@<TRIPOS>MOLECULE
A2L
   45    47     1     0     0
SMALL
bcc


@<TRIPOS>ATOM
      1 O2'         0.2310   -1.4920    0.1010 oh        1 A2L     -0.590800
      2 C2'         1.0420   -0.4980   -0.4900 c3        1 A2L      0.094100
      3 C1'         0.1790    0.6940   -1.0120 c3        1 A2L      0.242800
      4 O4'         0.9640    1.8910   -0.7750 os        1 A2L     -0.430600
      5 C4'         1.9430    1.6490    0.2450 c3        1 A2L      0.104100
      6 C5'         3.2940    2.1950   -0.2500 c3        1 A2L      0.196400
      7 O5'         3.9650    2.8660    0.7710 os        1 A2L     -0.576200
      8 P           5.3250    2.1790    1.3910 p5        1 A2L      1.439800
      9 OP1         5.9500    3.1410    2.3150 o         1 A2L     -0.849500
     10 OP3         6.2110    2.0290    0.0240 oh        1 A2L     -0.788400
     11 OP2         5.0120    0.7600    1.7020 o         1 A2L     -0.849500
     12 C3'         1.9800    0.1360    0.5530 c3        1 A2L      0.121100
     13 O3'         1.4840   -0.0620    1.8740 os        1 A2L     -0.409600
     14 CA'         2.3600   -0.8340    2.6950 c3        1 A2L      0.083400
     15 CB'         2.1390   -0.3610    4.1280 c3        1 A2L      0.128400
     16 OC'         3.1140   -0.9160    5.0060 os        1 A2L     -0.451600
     17 CD'         4.3790   -0.2730    4.9260 c3        1 A2L      0.095700
     18 N9         -0.1960    0.5640   -2.3850 nh        1 A2L     -0.265200
     19 C8          0.4170   -0.2870   -3.3610 c1        1 A2L      0.062400
     20 N7         -0.1600   -0.1330   -4.5700 ne        1 A2L     -0.677800
     21 C5         -1.1610    0.8300   -4.4290 ca        1 A2L     -0.127200
     22 C4         -1.2030    1.3050   -3.0270 ca        1 A2L      0.388800
     23 N3         -2.0810    2.2420   -2.5890 nb        1 A2L     -0.713000
     24 C2         -2.8950    2.7120   -3.5700 ca        1 A2L      0.578900
     25 N1         -2.9590    2.3830   -4.8840 nb        1 A2L     -0.782000
     26 C6         -2.0940    1.4110   -5.3250 ca        1 A2L      0.576200
     27 N6         -2.1760    0.9410   -6.6630 nh        1 A2L     -0.898500
     28 HO2'       -0.3210   -1.8280   -0.6180 ho        1 A2L      0.401000
     29 H2'         1.6470   -0.9440   -1.3300 h1        1 A2L      0.092700
     30 H1'        -0.7540    0.8030   -0.3810 h2        1 A2L      0.057700
     31 H4'         1.6150    2.2230    1.1550 h1        1 A2L      0.074700
     32 H5'         3.0900    2.9360   -1.0750 h1        1 A2L      0.030200
     33 H5''        3.9340    1.3630   -0.6520 h1        1 A2L      0.030200
     34 H3'         3.0200   -0.2730    0.4430 h1        1 A2L      0.092700
     35 HA'1        2.0790   -1.9140    2.5860 h1        1 A2L      0.064700
     36 HA'2        3.4370   -0.6860    2.3980 h1        1 A2L      0.064700
     37 HB'1        1.1630   -0.7400    4.5290 h1        1 A2L      0.043200
     38 HB'2        2.1580    0.7590    4.1730 h1        1 A2L      0.043200
     39 HD'1        4.7350   -0.1820    3.8670 h1        1 A2L      0.044033
     40 HD'2        5.0620   -0.9300    5.5210 h1        1 A2L      0.044033
     41 HD'3        4.3140    0.7410    5.3940 h1        1 A2L      0.044033
     42 H8          6.2170    1.1350   -0.2990 ho        1 A2L      0.425000
     43 H2         -3.6150    3.4900   -3.2500 h5        1 A2L      0.008100
     44 H61        -1.3300    0.4720   -6.9200 hn        1 A2L      0.367300
     45 H62        -2.3930    1.6690   -7.3120 hn        1 A2L      0.367300
@<TRIPOS>BOND
     1    1    2 1   
     2    1   28 1   
     3    2    3 1   
     4    2   12 1   
     5    2   29 1   
     6    3    4 1   
     7    3   18 1   
     8    3   30 1   
     9    4    5 1   
    10    5    6 1   
    11    5   12 1   
    12    5   31 1   
    13    6    7 1   
    14    6   32 1   
    15    6   33 1   
    16    7    8 1   
    17    8    9 1   
    18    8   10 1   
    19    8   11 1   
    20   10   42 1   
    21   12   13 1   
    22   12   34 1   
    23   13   14 1   
    24   14   15 1   
    25   14   35 1   
    26   14   36 1   
    27   15   16 1   
    28   15   37 1   
    29   15   38 1   
    30   16   17 1   
    31   17   39 1   
    32   17   40 1   
    33   17   41 1   
    34   18   19 2   
    35   18   22 1   
    36   19   20 2   
    37   20   21 1   
    38   21   22 ar  
    39   21   26 ar  
    40   22   23 ar  
    41   23   24 ar  
    42   24   25 ar  
    43   24   43 1   
    44   25   26 ar  
    45   26   27 1   
    46   27   44 1   
    47   27   45 1   
@<TRIPOS>SUBSTRUCTURE
     1 A2L         1 TEMP              0 ****  ****    0 ROOT
