@<TRIPOS>MOLECULE
A2L
   45    43     1     0     0
SMALL
bcc


@<TRIPOS>ATOM
      1 O2'        -2.4170    0.9360   -0.6340 oh        1 A2L     -0.611800
      2 C2'        -1.0030    1.0800   -0.6640 c3        1 A2L      0.104100
      3 C1'        -0.5130    1.0860    0.5640 c3        1 A2L      0.222800
      4 O4'         0.8990    0.3860    0.4500 os        1 A2L     -0.436600
      5 C4'         0.9320   -0.2780   -0.9910 c3        1 A2L      0.094100
      6 C5'         1.8650    0.5100   -1.9270 c3        1 A2L      0.196400
      7 O5'         2.9940   -0.2550   -2.2150 os        1 A2L     -0.584200
      8 P           4.4090    0.5130   -2.4590 p5        1 A2L      1.329900
      9 OP1         5.1020    0.7070   -1.1440 o         1 A2L     -0.914833
     10 OP3         4.1560    1.8430   -3.0880 o         1 A2L     -0.914833
     11 OP2         5.2990   -0.3310   -3.3850 o         1 A2L     -0.914833
     12 C3'        -0.3100   -0.2200   -1.4260 c3        1 A2L      0.027100
     13 O3'        -1.0110   -1.4320   -1.0790 os        1 A2L     -0.451600
     14 CA'        -0.8530   -2.5040   -2.0420 c3        1 A2L      0.115400
     15 CB'        -1.7300   -3.6970   -1.6180 c3        1 A2L      0.075400
     16 OC'        -1.2760   -4.8700   -2.2470 os        1 A2L     -0.460600
     17 CD'        -2.1240   -6.0240   -2.0120 c3        1 A2L      0.084700
     18 N9         -0.3650    2.4040    1.0270 n3        1 A2L     -0.101400
     19 C8         -1.3440    3.3180    1.1130 c1        1 A2L      0.239400
     20 N7         -1.3980    3.7550    2.3980 ne        1 A2L     -0.447400
     21 C5         -0.4460    3.1050    3.1020 cg        1 A2L     -0.151000
     22 C4          0.1950    2.2700    2.2590 c1        1 A2L      0.310500
     23 N3          1.2310    1.4980    2.7160 n1        1 A2L     -0.511800
     24 C2          1.6090    1.5740    4.0120 c1        1 A2L      0.353300
     25 N1          0.9620    2.4170    4.8630 n1        1 A2L     -0.602800
     26 C6         -0.0610    3.1800    4.4140 c1        1 A2L      0.217800
     27 N6         -0.7150    3.5990    5.6460 n3        1 A2L     -0.789400
     28 HO2'       -2.7670    1.1860   -1.4470 ho        1 A2L      0.408000
     29 H2'        -0.7610    1.9070   -1.1220 h1        1 A2L      0.109700
     30 H1'        -1.1120    0.5660    1.1800 h2        1 A2L      0.081700
     31 H4'         1.2280   -1.2140   -0.9240 h1        1 A2L      0.053700
     32 H5'         2.1220    1.2850   -1.5200 h1        1 A2L      0.023200
     33 H5''        1.3820    0.7250   -2.7780 h1        1 A2L      0.023200
     34 H3'        -0.3250   -0.0820   -2.4470 h1        1 A2L      0.223700
     35 HA'1        0.0600   -2.7730   -2.0710 h1        1 A2L      0.031200
     36 HA'2       -1.1400   -2.1810   -2.9580 h1        1 A2L      0.031200
     37 HB'1       -1.6760   -3.8150   -0.5960 h1        1 A2L      0.089700
     38 HB'2       -2.6760   -3.5230   -1.8840 h1        1 A2L      0.089700
     39 HD'1       -2.8840   -6.0100   -2.6480 h1        1 A2L      0.047367
     40 HD'2       -2.4860   -5.9940   -1.0420 h1        1 A2L      0.047367
     41 HD'3       -1.6170   -6.8250   -2.1400 h1        1 A2L      0.047367
     42 H8         -1.8630    3.6620    0.3760 DU        1 A2L      0.308000
     43 H2          2.3390    1.0300    4.3350 ha        1 A2L      0.102500
     44 H61        -1.5030    4.1810    5.6100 hn        1 A2L      0.403300
     45 H62        -0.4070    3.3060    6.4410 hn        1 A2L      0.403300
@<TRIPOS>BOND
     1    1    2 1   
     2    1   28 1   
     3    2    3 1   
     4    2   12 1   
     5    2   29 1   
     6    3    4 1   
     7    3   18 1   
     8    3   30 1   
     9    4    5 1   
    10    5    6 1   
    11    5   12 1   
    12    5   31 1   
    13    6    7 1   
    14    6   32 1   
    15    6   33 1   
    16    7    8 1   
    17    8    9 1   
    18    8   10 1   
    19    8   11 1   
    20   12   13 1   
    21   12   34 1   
    22   13   14 1   
    23   14   15 1   
    24   14   35 1   
    25   14   36 1   
    26   15   16 1   
    27   15   37 1   
    28   15   38 1   
    29   16   17 1   
    30   17   39 1   
    31   17   40 1   
    32   17   41 1   
    33   18   19 2   
    34   18   22 1   
    35   19   20 2   
    36   20   21 1   
    37   21   26 3   
    38   22   23 3   
    39   24   25 3   
    40   24   43 1   
    41   26   27 1   
    42   27   44 1   
    43   27   45 1   
@<TRIPOS>SUBSTRUCTURE
     1 A2L         1 TEMP              0 ****  ****    0 ROOT
