@<TRIPOS>MOLECULE
A2M
   38    40     1     0     0
SMALL
bcc


@<TRIPOS>ATOM
      1 P           3.3030    0.4700   -1.1840 p5        1 A2M      1.346900
      2 OP1         3.5410   -0.9860   -1.5060 o         1 A2M     -0.924167
      3 OP3         1.8950    0.8820   -1.5740 o         1 A2M     -0.924167
      4 O5'         3.1350    0.2930    0.5330 os        1 A2M     -0.569200
      5 C5'         1.8830    0.3830    1.0720 c3        1 A2M      0.221400
      6 C4'         1.1910   -0.9930    1.2390 c3        1 A2M      0.067100
      7 O4'        -0.1650   -0.7650    1.6960 os        1 A2M     -0.430600
      8 C3'         1.1070   -1.8050   -0.0690 c3        1 A2M      0.088100
      9 O3'         1.9780   -2.9080   -0.0560 oh        1 A2M     -0.651800
     10 C2'        -0.3680   -2.2080   -0.2190 c3        1 A2M      0.104100
     11 O2'        -0.7190   -3.5010    0.2750 os        1 A2M     -0.424600
     12 C1'        -1.1090   -1.2080    0.7290 c3        1 A2M      0.252800
     13 CM'        -0.3550   -4.5490   -0.6050 c3        1 A2M      0.124700
     14 N9         -1.7000   -0.0920    0.0050 na        1 A2M     -0.278000
     15 C8         -1.0830    0.8210   -0.8960 cc        1 A2M      0.468700
     16 N7         -1.9290    1.7680   -1.3420 nd        1 A2M     -0.606100
     17 C5         -3.1540    1.5110   -0.7130 ca        1 A2M     -0.189200
     18 C6         -4.4210    2.1610   -0.7570 ca        1 A2M      0.673200
     19 N6         -4.6270    3.2260   -1.6450 nh        1 A2M     -0.922500
     20 N1         -5.4450    1.6940    0.0250 nb        1 A2M     -0.801000
     21 C2         -5.1910    0.5880    0.7800 ca        1 A2M      0.626900
     22 N3         -4.0610   -0.1400    0.9120 nb        1 A2M     -0.714000
     23 C4         -3.0250    0.3390    0.1580 ca        1 A2M      0.423800
     24 H5'         1.9630    0.8230    2.1100 h1        1 A2M     -0.001300
     25 H5''        1.2140    1.0480    0.4550 h1        1 A2M     -0.001300
     26 H4'         1.6830   -1.5920    2.0480 h1        1 A2M      0.053700
     27 H3'         1.3880   -1.1120   -0.9360 h1        1 A2M      0.153700
     28 HO3'        2.8030   -2.5770   -0.4820 ho        1 A2M      0.487000
     29 H2'        -0.6950   -2.1210   -1.2880 h1        1 A2M      0.054700
     30 H1'        -1.9290   -1.7220    1.3110 h2        1 A2M      0.096700
     31 HM'1       -0.5970   -5.4830   -0.0390 h1        1 A2M      0.027700
     32 HM'2       -0.9690   -4.4970   -1.5400 h1        1 A2M      0.027700
     33 HM'3        0.7340   -4.5070   -0.8550 h1        1 A2M      0.027700
     34 H8          0.0200    0.7510   -1.1890 h5        1 A2M      0.217800
     35 H61        -3.7790    3.6570   -1.9450 hn        1 A2M      0.399800
     36 H62        -5.3390    3.8690   -1.3820 hn        1 A2M      0.399800
     37 H2         -6.0510    0.2380    1.3870 h5        1 A2M      0.021100
     38 OP2         4.3990    1.4650   -1.3690 o         1 A2M     -0.924167
@<TRIPOS>BOND
     1    1    2 1   
     2    1    3 1   
     3    1    4 1   
     4    1   38 1   
     5    4    5 1   
     6    5    6 1   
     7    5   24 1   
     8    5   25 1   
     9    6    7 1   
    10    6    8 1   
    11    6   26 1   
    12    7   12 1   
    13    8    9 1   
    14    8   10 1   
    15    8   27 1   
    16    9   28 1   
    17   10   11 1   
    18   10   12 1   
    19   10   29 1   
    20   11   13 1   
    21   12   14 1   
    22   12   30 1   
    23   13   31 1   
    24   13   32 1   
    25   13   33 1   
    26   14   15 1   
    27   14   23 1   
    28   15   16 2   
    29   15   34 1   
    30   16   17 1   
    31   17   18 ar  
    32   17   23 ar  
    33   18   19 1   
    34   18   20 ar  
    35   19   35 1   
    36   19   36 1   
    37   20   21 ar  
    38   21   22 ar  
    39   21   37 1   
    40   22   23 ar  
@<TRIPOS>SUBSTRUCTURE
     1 A2M         1 TEMP              0 ****  ****    0 ROOT
