@<TRIPOS>MOLECULE
A2M
   38    35     1     0     0
SMALL
bcc


@<TRIPOS>ATOM
      1 P          -1.0240   -5.3200    0.8390 p4        1 A2M      1.698200
      2 OP1        -0.6140   -5.8750   -0.5080 o         1 A2M     -0.929500
      3 OP3         0.0890   -5.5120    1.8160 os        1 A2M     -1.247000
      4 O5'        -1.3400   -3.7780    0.7010 os        1 A2M     -0.551200
      5 C5'        -0.4130   -2.9640    0.0500 c3        1 A2M      0.226400
      6 C4'        -1.0920   -1.7210   -0.4320 c3        1 A2M      0.052100
      7 O4'        -1.2140   -0.8860    0.5280 os        1 A2M     -0.427600
      8 C3'        -0.1560   -0.9730   -1.5860 c3        1 A2M      0.162100
      9 O3'        -0.3940   -1.5900   -2.9190 oh        1 A2M     -0.641800
     10 C2'        -0.4980    0.1830   -1.5970 c3        1 A2M      0.090100
     11 O2'        -1.6110    0.3990   -2.6340 os        1 A2M     -0.371600
     12 C1'        -1.0640    0.4640   -0.1140 c3        1 A2M      0.221800
     13 CM'        -1.3700    1.4640   -3.5110 c3        1 A2M      0.105700
     14 N9         -0.2190    1.2070    0.5720 n3        1 A2M     -0.102400
     15 C8         -1.1030    1.6140    1.5010 c1        1 A2M      0.228400
     16 N7         -0.4400    2.3780    2.4050 ne        1 A2M     -0.435400
     17 C5          0.8650    2.4420    2.0270 cg        1 A2M     -0.159000
     18 C6          1.9510    3.2180    2.5140 c1        1 A2M      0.559600
     19 N6          2.1490    3.9630    3.7610 n3        1 A2M     -0.793400
     20 N1          3.1080    3.2300    1.8510 n1        1 A2M     -0.603800
     21 C2          3.2510    2.4870    0.6890 c1        1 A2M      0.363300
     22 N3          2.2060    1.7400    0.2200 n1        1 A2M     -0.516800
     23 C4          1.0070    1.7240    0.9010 c1        1 A2M     -0.017300
     24 H5'         0.2830   -2.7310    0.6550 h1        1 A2M     -0.005300
     25 H5''       -0.0630   -3.4100   -0.6560 h1        1 A2M     -0.005300
     26 H4'        -1.9300   -1.9290   -0.7810 h1        1 A2M      0.083700
     27 H3'         0.7800   -1.0410   -1.3490 h1        1 A2M      0.115700
     28 HO3'        0.3650   -1.8570   -3.2530 ho        1 A2M      0.495000
     29 H2'         0.3100    0.7940   -1.8010 h1        1 A2M      0.049700
     30 H1'        -1.9600    0.9180   -0.1700 h2        1 A2M      0.081700
     31 HM'1       -2.0010    1.4080   -4.2870 h1        1 A2M      0.022367
     32 HM'2       -1.5130    2.3600   -3.0140 h1        1 A2M      0.022367
     33 HM'3       -0.4730    1.4160   -3.8280 h1        1 A2M      0.022367
     34 H8         -2.0590    1.3100    1.5770 DU        1 A2M      0.260000
     35 H61         1.5360    3.9000    4.4290 hn        1 A2M      0.410300
     36 H62         2.8620    4.5300    3.8470 hn        1 A2M      0.410300
     37 H2          4.0710    2.4970    0.2200 ha        1 A2M      0.107500
     38 OP2        -2.2830   -6.0600    1.3390 o         1 A2M     -0.978300
@<TRIPOS>BOND
     1    1    2 1   
     2    1    4 1   
     3    1   38 2   
     4    4    5 1   
     5    5    6 1   
     6    5   24 1   
     7    5   25 1   
     8    6    7 1   
     9    6    8 1   
    10    6   26 1   
    11    7   12 1   
    12    8    9 1   
    13    8   10 1   
    14    8   27 1   
    15    9   28 1   
    16   10   11 1   
    17   10   12 1   
    18   10   29 1   
    19   11   13 1   
    20   12   14 1   
    21   12   30 1   
    22   13   31 1   
    23   13   32 1   
    24   13   33 1   
    25   14   15 2   
    26   14   23 1   
    27   15   16 2   
    28   16   17 1   
    29   17   23 3   
    30   18   19 1   
    31   18   20 3   
    32   19   35 1   
    33   19   36 1   
    34   21   22 3   
    35   21   37 1   
@<TRIPOS>SUBSTRUCTURE
     1 A2M         1 TEMP              0 ****  ****    0 ROOT
