@<TRIPOS>MOLECULE
A2O
   48    49     1     0     0
SMALL
bcc


@<TRIPOS>ATOM
      1 C1          0.0040   -0.2920   -0.2230 c2        1 A2O      0.151000
      2 C2          1.5240   -0.3800   -0.2300 c3        1 A2O     -0.124000
      3 C3         -0.7270   -0.7830    1.0070 c3        1 A2O     -0.157000
      4 C4          0.0770   -1.0600    2.1780 c1        1 A2O     -0.236000
      5 C5          1.4470   -0.9070    2.1640 c2        1 A2O     -0.308000
      6 C6         -2.7760   -1.0110   -1.8160 c3        1 A2O     -0.170000
      7 C7          2.2040   -0.5690    1.0520 c1        1 A2O     -0.096000
      8 C9          2.1070    0.8250   -0.9600 c3        1 A2O     -0.147000
      9 C10         1.4030   -3.6840    7.0980 c2        1 A2O     -0.184000
     10 C11         1.8000   -4.4850    8.1060 c2        1 A2O      0.030000
     11 C12         1.5580    0.9000   -2.3620 c3        1 A2O     -0.189000
     12 C13         0.0700    0.7140   -2.4500 c2        1 A2O      0.293000
     13 C14        -4.2740   -0.8360   -1.8080 c3        1 A2O     -0.220000
     14 C15        -0.0360   -2.1770    4.8640 c3        1 A2O     -0.812000
     15 C16         0.7360   -3.4280    4.7200 c2        1 A2O     -0.240000
     16 C17         2.5060   -6.9800    7.8990 c1        1 A2O     -0.136000
     17 C18         1.3270   -4.1060    5.7190 c2        1 A2O     -0.041000
     18 C19         2.1780   -5.8290    7.9720 c1        1 A2O     -0.183000
     19 N1          2.0930   -1.1180    3.4530 n4        1 A2O     -0.378000
     20 N2         -0.6460    0.2080   -1.2700 n         1 A2O     -0.162000
     21 O1          0.1430    0.3810    4.4130 o         1 A2O     -0.867500
     22 O2         -0.5980    0.9490   -3.4530 o         1 A2O     -0.207000
     23 O3          1.7040   -0.6190    5.8710 o         1 A2O     -0.867500
     24 S1          0.8550   -0.7520    4.7720 s6        1 A2O      2.730000
     25 H1         -1.4890   -0.0070    1.3370 hc        1 A2O      0.179500
     26 H2         -1.3120   -1.7130    0.7370 hc        1 A2O      0.179500
     27 H3         -2.4920   -1.8750   -1.1590 hc        1 A2O      0.097500
     28 H4         -2.4280   -1.2420   -2.8570 hc        1 A2O      0.097500
     29 H5          1.7820   -1.3220   -0.8220 hc        1 A2O      0.179000
     30 H6         -2.5030    0.5400   -0.3010 h1        1 A2O      0.138000
     31 H7         -2.3930    1.1170   -2.0250 h1        1 A2O      0.138000
     32 H8          1.8020    1.8990   -2.8240 hc        1 A2O      0.157000
     33 H9          1.8770    1.7640   -0.3910 hc        1 A2O      0.136500
     34 H12         3.2270    0.7240   -0.9910 hc        1 A2O      0.136500
     35 H13         2.0260    0.1090   -3.0150 hc        1 A2O      0.157000
     36 H14        -4.5800    0.0030   -2.4800 hc        1 A2O      0.095000
     37 H15        -4.7630   -1.7730   -2.1730 hc        1 A2O      0.095000
     38 H16        -4.6480   -0.6210   -0.7780 hc        1 A2O      0.095000
     39 H17        -0.5860   -2.2040    5.8530 h1        1 A2O      0.201500
     40 H18        -0.8520   -2.1820    4.0760 h1        1 A2O      0.201500
     41 H19         2.7970   -8.0000    7.8430 ha        1 A2O      0.236000
     42 H20         0.7280   -3.8580    3.7040 ha        1 A2O      0.137000
     43 H21         1.8180   -5.0720    5.4880 ha        1 A2O      0.150000
     44 H22         2.4300   -2.0800    3.5000 hn        1 A2O      0.252000
     45 C8         -2.1120    0.2750   -1.3240 c3        1 A2O     -0.089000
     46 H10         1.1380   -2.6350    7.3180 ha        1 A2O      0.141000
     47 H121        2.9170   -0.5140    3.5080 hn        1 A2O      0.252000
     48 H11         1.8410   -4.0890    9.1410 ha        1 A2O      0.157000
@<TRIPOS>BOND
     1    1    2 1   
     2    1    3 1   
     3    1   20 1   
     4    2    7 1   
     5    2    8 1   
     6    2   29 1   
     7    3    4 1   
     8    3   25 1   
     9    3   26 1   
    10    4    5 1   
    11    5    7 1   
    12    5   19 1   
    13    6   13 1   
    14    6   27 1   
    15    6   28 1   
    16    6   45 1   
    17    8   11 1   
    18    8   33 1   
    19    8   34 1   
    20    9   10 1   
    21    9   17 1   
    22    9   46 1   
    23   10   18 1   
    24   10   48 1   
    25   11   12 1   
    26   11   32 1   
    27   11   35 1   
    28   12   20 1   
    29   12   22 1   
    30   13   36 1   
    31   13   37 1   
    32   13   38 1   
    33   14   15 1   
    34   14   24 1   
    35   14   39 1   
    36   14   40 1   
    37   15   17 1   
    38   15   42 1   
    39   16   18 1   
    40   16   41 1   
    41   17   43 1   
    42   19   24 1   
    43   19   44 1   
    44   19   47 1   
    45   20   45 1   
    46   21   24 1   
    47   23   24 1   
    48   30   45 1   
    49   31   45 1   
@<TRIPOS>SUBSTRUCTURE
     1 A2O         1 TEMP              0 ****  ****    0 ROOT
