@<TRIPOS>MOLECULE
A2O
   47    47     1     0     0
SMALL
bcc


@<TRIPOS>ATOM
      1 C1         -0.2170   -0.1000   -0.3020 c2        1 A2O      0.114000
      2 C2          1.2410   -0.4920   -0.2150 c3        1 A2O     -0.121000
      3 C3         -0.9220    0.0290    0.8810 c2        1 A2O     -0.280000
      4 C4         -0.2860   -0.0530    2.1430 c2        1 A2O      0.021000
      5 C5          1.0820   -0.2920    2.2560 c2        1 A2O     -0.098000
      6 C6         -3.0640   -0.9510   -1.4870 c3        1 A2O     -0.178000
      7 C7          1.8730   -0.4690    1.0980 c1        1 A2O     -0.134000
      8 C9          2.0610    0.2740   -1.2430 c3        1 A2O     -0.126000
      9 C10         0.5040   -5.1730    7.5400 c3        1 A2O     -0.055000
     10 C11         0.9490   -6.5450    7.5330 c1        1 A2O      0.000000
     11 C12         1.5150    0.0010   -2.6230 c3        1 A2O     -0.186000
     12 C13         0.0130    0.1330   -2.7250 c2        1 A2O      0.307000
     13 C14        -4.5260   -0.6030   -1.6030 c3        1 A2O     -0.212000
     14 C15         1.6280   -2.7100    4.5270 c3        1 A2O     -0.708000
     15 C16         1.2300   -3.5660    5.5880 c1        1 A2O     -0.147000
     16 C17         2.4120   -7.9720    6.0000 c1        1 A2O     -0.141000
     17 C18         0.9060   -4.3110    6.4670 c1        1 A2O     -0.154000
     18 C19         1.7310   -7.2200    6.6680 c1        1 A2O     -0.167000
     19 N1          1.7320   -0.3010    3.5090 n3        1 A2O     -0.819000
     20 N2         -0.7810    0.0900   -1.5560 n         1 A2O     -0.263000
     21 O1         -0.1820   -0.9390    4.9680 o         1 A2O     -0.921000
     22 O2         -0.5360    0.2740   -3.8300 o         1 A2O     -0.323000
     23 O3          1.9990   -0.5920    5.9360 o         1 A2O     -0.921000
     24 S1          1.2200   -1.0400    4.8500 s6        1 A2O      2.785000
     25 H1         -2.0050    0.2310    0.8900 ha        1 A2O      0.151000
     26 H2         -0.9270    0.0780    3.0380 ha        1 A2O      0.174000
     27 H3         -2.8600   -1.4050   -0.4820 hc        1 A2O      0.091000
     28 H4         -2.7950   -1.7160   -2.2630 hc        1 A2O      0.091000
     29 H5          1.2850   -1.6050   -0.4800 hc        1 A2O      0.172000
     30 H6         -2.5270    1.0890   -0.9340 h1        1 A2O      0.113000
     31 H7         -2.4220    0.7190   -2.7130 h1        1 A2O      0.113000
     32 H8          2.0230    1.3700   -1.0140 hc        1 A2O      0.115000
     33 H9          3.1330   -0.0490   -1.1780 hc        1 A2O      0.115000
     34 H11        -0.6300   -5.2060    7.5960 hc        1 A2O      0.163000
     35 H12         1.7740   -1.0440   -2.9460 hc        1 A2O      0.127500
     36 H13         1.9680    0.7090   -3.3680 hc        1 A2O      0.127500
     37 H14        -4.7520   -0.1690   -2.6070 hc        1 A2O      0.079333
     38 H15        -5.1490   -1.5210   -1.4670 hc        1 A2O      0.079333
     39 H16        -4.8210    0.1410   -0.8230 hc        1 A2O      0.079333
     40 H17         1.1470   -3.0670    3.5730 h1        1 A2O      0.160000
     41 H18         2.7380   -2.8240    4.3670 h1        1 A2O      0.160000
     42 H19         3.0040   -8.6400    5.4280 ha        1 A2O      0.227000
     43 H20         3.3960    0.2210    7.6920 ha        1 A2O      0.002000
     44 H21         2.7970    0.2130    8.0100 ha        1 A2O      0.002000
     45 H22         2.6540    0.0750    3.4470 hn        1 A2O      0.266000
     46 C8         -2.2150    0.3050   -1.6830 c3        1 A2O     -0.046000
     47 H10         0.8490   -4.7340    8.5300 hc        1 A2O      0.163000
@<TRIPOS>BOND
     1    1    2 1   
     2    1    3 1   
     3    1   20 1   
     4    2    7 1   
     5    2    8 1   
     6    2   29 1   
     7    3    4 1   
     8    3   25 1   
     9    4    5 1   
    10    4   26 1   
    11    5    7 1   
    12    5   19 1   
    13    6   13 1   
    14    6   27 1   
    15    6   28 1   
    16    6   46 1   
    17    8   11 1   
    18    8   32 1   
    19    8   33 1   
    20    9   10 1   
    21    9   17 1   
    22    9   34 1   
    23    9   47 1   
    24   10   18 1   
    25   11   12 1   
    26   11   35 1   
    27   11   36 1   
    28   12   20 1   
    29   12   22 1   
    30   13   37 1   
    31   13   38 1   
    32   13   39 1   
    33   14   15 1   
    34   14   24 1   
    35   14   40 1   
    36   14   41 1   
    37   15   17 1   
    38   16   18 1   
    39   16   42 1   
    40   19   24 1   
    41   19   45 1   
    42   20   46 1   
    43   21   24 1   
    44   23   24 1   
    45   30   46 1   
    46   31   46 1   
    47   43   44 1   
@<TRIPOS>SUBSTRUCTURE
     1 A2O         1 TEMP              0 ****  ****    0 ROOT
