@<TRIPOS>MOLECULE
A2O
   47    42     1     0     0
SMALL
bcc


@<TRIPOS>ATOM
      1 C1         -1.9210    0.5820   -1.1080 c1        1 A2O      0.078000
      2 C2         -0.5230    0.2080   -1.1000 c2        1 A2O     -0.101000
      3 C3         -2.6120    0.6970    0.0860 c1        1 A2O     -0.146000
      4 C4         -1.9480    0.4480    1.3190 c1        1 A2O     -0.142000
      5 C5         -0.5720    0.0800    1.3270 c1        1 A2O      0.040000
      6 C6         -4.4240    1.4770   -3.8490 c3        1 A2O     -0.181000
      7 C7          0.1300   -0.0380    0.1200 c1        1 A2O     -0.129000
      8 C8         -4.0440    0.8610   -2.5060 c3        1 A2O     -0.032000
      9 C9          0.2190    0.1200   -2.4770 c3        1 A2O     -0.119000
     10 C10         5.1030   -0.0880    4.5840 c1        1 A2O     -0.120250
     11 C11         6.2160   -0.8870    4.3160 c1        1 A2O     -0.120250
     12 C12        -0.5060    0.5590   -3.6280 c3        1 A2O     -0.176000
     13 C13        -1.9560    0.2670   -3.5390 c1        1 A2O      0.310000
     14 C14        -5.6790    2.3090   -3.6890 c3        1 A2O     -0.211000
     15 C15         2.6170   -1.3340    1.9810 c3        1 A2O     -0.800000
     16 C16         3.8700   -1.2300    2.8700 c1        1 A2O     -0.069000
     17 C17         4.9860   -2.0320    2.6020 c1        1 A2O     -0.120250
     18 C18         3.9350   -0.2620    3.8610 c1        1 A2O     -0.120000
     19 C19         6.1520   -1.8580    3.3230 c1        1 A2O     -0.120250
     20 N1         -0.2350   -1.1500    2.0400 n3        1 A2O     -0.833000
     21 N2         -2.6240    0.6830   -2.4490 n1        1 A2O     -0.276000
     22 O1          1.0670   -2.3000    3.9570 o         1 A2O     -0.921500
     23 O2         -2.4580   -0.5620   -4.2810 o         1 A2O     -0.348000
     24 O3          1.2080   -0.0850    3.8820 o         1 A2O     -0.921500
     25 S1          1.1400   -1.2120    3.0060 s6        1 A2O      2.804000
     26 H1         -3.5640    0.9520    0.0820 ha        1 A2O      0.148000
     27 H2         -2.4390    0.5300    2.1670 ha        1 A2O      0.173000
     28 H3         -3.6980    2.0430   -4.1630 hc        1 A2O      0.090500
     29 H4         -4.5860    0.7640   -4.5010 hc        1 A2O      0.090500
     30 H5          1.0700   -0.2880    0.1270 ha        1 A2O      0.136000
     31 H6         -4.4870   -0.0080   -2.4080 h1        1 A2O      0.106500
     32 H7         -4.3280    1.4570   -1.7810 h1        1 A2O      0.106500
     33 H8          0.4770   -0.8090   -2.6210 hc        1 A2O      0.100500
     34 H9          1.0320    0.6540   -2.4130 hc        1 A2O      0.100500
     35 H10         5.1480    0.5890    5.2770 ha        1 A2O      0.134250
     36 H11         7.0430   -0.7640    4.8280 ha        1 A2O      0.134250
     37 H12        -0.2660    1.4980   -3.7300 hc        1 A2O      0.121500
     38 H13        -0.1760    0.1880   -4.4760 hc        1 A2O      0.121500
     39 H14        -6.4420    1.7160   -3.4870 hc        1 A2O      0.077000
     40 H15        -5.5560    2.9480   -2.9530 hc        1 A2O      0.077000
     41 H16        -5.8530    2.7920   -4.5120 hc        1 A2O      0.077000
     42 H17         2.6210   -0.6060    1.3270 h1        1 A2O      0.154500
     43 H18         2.6190   -2.1980    1.5100 h1        1 A2O      0.154500
     44 H19         4.9410   -2.7070    1.9110 ha        1 A2O      0.134250
     45 H20         3.1650    0.2910    4.0460 ha        1 A2O      0.152000
     46 H21         6.9230   -2.4130    3.1370 ha        1 A2O      0.134250
     47 H22        -0.7850   -1.8800    1.9800 hn        1 A2O      0.253000
@<TRIPOS>BOND
     1    1    2 1   
     2    1    3 1   
     3    2    7 1   
     4    2    9 1   
     5    3   26 1   
     6    4    5 1   
     7    4   27 1   
     8    5   20 1   
     9    6    8 1   
    10    6   14 1   
    11    6   28 1   
    12    6   29 1   
    13    7   30 1   
    14    8   21 1   
    15    8   31 1   
    16    8   32 1   
    17    9   12 1   
    18    9   33 1   
    19    9   34 1   
    20   10   11 1   
    21   10   35 1   
    22   11   36 1   
    23   12   13 1   
    24   12   37 1   
    25   12   38 1   
    26   13   23 1   
    27   14   39 1   
    28   14   40 1   
    29   14   41 1   
    30   15   16 1   
    31   15   25 1   
    32   15   42 1   
    33   15   43 1   
    34   16   18 1   
    35   17   19 1   
    36   17   44 1   
    37   18   45 1   
    38   19   46 1   
    39   20   25 1   
    40   20   47 1   
    41   22   25 1   
    42   24   25 1   
@<TRIPOS>SUBSTRUCTURE
     1 A2O         1 TEMP              0 ****  ****    0 ROOT
