@<TRIPOS>MOLECULE
A2O
   47    47     1     0     0
SMALL
bcc


@<TRIPOS>ATOM
      1 C1         -0.1690   -0.1540   -0.3860 c2        1 A2O      0.117000
      2 C2          1.0900   -0.9910   -0.3750 c3        1 A2O     -0.121000
      3 C3         -0.7910    0.0900    0.8270 c2        1 A2O     -0.283000
      4 C4         -0.2040   -0.2890    2.0570 c2        1 A2O      0.027000
      5 C5          1.0220   -0.9510    2.1060 c2        1 A2O     -0.102000
      6 C6         -3.1480    0.0430   -1.5430 c3        1 A2O     -0.178000
      7 C7          1.7070   -1.2750    0.9140 c1        1 A2O     -0.136000
      8 C9          2.1030   -0.4410   -1.3690 c3        1 A2O     -0.126000
      9 C10        -1.4780   -4.9300    6.4560 c1        1 A2O     -0.184000
     10 C11         4.4750   -5.0930    9.5680 c1        1 A2O     -0.075000
     11 C12         1.4900   -0.4140   -2.7470 c3        1 A2O     -0.186000
     12 C13         0.1060    0.1930   -2.7900 c2        1 A2O      0.307000
     13 C14        -4.4230    0.8450   -1.5840 c3        1 A2O     -0.212000
     14 C15         0.8430   -3.6240    4.1490 c3        1 A2O     -0.856000
     15 C16         0.8710   -4.5830    5.3270 c3        1 A2O     -0.022000
     16 C17         3.3040   -3.4320    8.0270 c1        1 A2O     -0.075000
     17 C18        -0.4140   -4.7610    5.9350 c1        1 A2O     -0.191000
     18 C19         3.8200   -4.2960    8.7230 c1        1 A2O     -0.227000
     19 N1          1.6440   -1.2610    3.3360 n7        1 A2O     -0.818000
     20 N2         -0.6520    0.3080   -1.6020 n         1 A2O     -0.263000
     21 O1         -0.3720   -1.4670    4.7770 o         1 A2O     -0.939500
     22 O2         -0.3780    0.5890   -3.8620 o         1 A2O     -0.321000
     23 O3          1.8120   -1.8530    5.7160 o         1 A2O     -0.939500
     24 S1          0.9380   -1.9600    4.6070 s6        1 A2O      2.805000
     25 H1         -1.7560    0.6190    0.8860 ha        1 A2O      0.151000
     26 H2         -0.7650   -0.0430    2.9810 ha        1 A2O      0.173000
     27 H3         -3.0940   -0.5360   -0.5840 hc        1 A2O      0.091000
     28 H4         -3.1390   -0.6980   -2.3850 hc        1 A2O      0.091000
     29 H5          0.7770   -2.0350   -0.7250 hc        1 A2O      0.172000
     30 H6         -1.9850    1.7520   -0.8470 h1        1 A2O      0.113000
     31 H7         -2.0120    1.5220   -2.6520 h1        1 A2O      0.113000
     32 H8          2.4170    0.5890   -1.0570 hc        1 A2O      0.115000
     33 H9          3.0190   -1.0890   -1.3630 hc        1 A2O      0.115000
     34 H11         4.3860   -6.1770    9.6300 ha        1 A2O      0.188500
     35 H12         1.4020   -1.4580   -3.1560 hc        1 A2O      0.127500
     36 H13         2.1380    0.1720   -3.4520 hc        1 A2O      0.127500
     37 H14        -4.5030    1.4130   -2.5420 hc        1 A2O      0.079667
     38 H15        -5.3040    0.1650   -1.5020 hc        1 A2O      0.079667
     39 H16        -4.4610    1.5750   -0.7390 hc        1 A2O      0.079667
     40 H17        -0.0960   -3.8080    3.5620 h1        1 A2O      0.155500
     41 H18         1.6830   -3.9200    3.4660 h1        1 A2O      0.155500
     42 H19         2.8720   -2.6550    7.4350 ha        1 A2O      0.188500
     43 H20         1.2430   -5.5860    4.9710 hc        1 A2O      0.117500
     44 H21         1.6090   -4.2140    6.1010 hc        1 A2O      0.117500
     45 H22         2.6340   -1.1540    3.2850 hn        1 A2O      0.266000
     46 C8         -1.9430    0.9770   -1.6650 c3        1 A2O     -0.046000
     47 H10        -2.4210   -5.0690    6.9200 ha        1 A2O      0.225000
@<TRIPOS>BOND
     1    1    2 1   
     2    1    3 1   
     3    1   20 1   
     4    2    7 1   
     5    2    8 1   
     6    2   29 1   
     7    3    4 1   
     8    3   25 1   
     9    4    5 1   
    10    4   26 1   
    11    5    7 1   
    12    5   19 1   
    13    6   13 1   
    14    6   27 1   
    15    6   28 1   
    16    6   46 1   
    17    8   11 1   
    18    8   32 1   
    19    8   33 1   
    20    9   17 1   
    21    9   47 1   
    22   10   18 1   
    23   10   34 1   
    24   11   12 1   
    25   11   35 1   
    26   11   36 1   
    27   12   20 1   
    28   12   22 1   
    29   13   37 1   
    30   13   38 1   
    31   13   39 1   
    32   14   15 1   
    33   14   24 1   
    34   14   40 1   
    35   14   41 1   
    36   15   17 1   
    37   15   43 1   
    38   15   44 1   
    39   16   18 1   
    40   16   42 1   
    41   19   24 1   
    42   19   45 1   
    43   20   46 1   
    44   21   24 1   
    45   23   24 1   
    46   30   46 1   
    47   31   46 1   
@<TRIPOS>SUBSTRUCTURE
     1 A2O         1 TEMP              0 ****  ****    0 ROOT
