@<TRIPOS>MOLECULE
A2O
   47    49     1     0     0
SMALL
bcc


@<TRIPOS>ATOM
      1 C1         -2.7700    0.3050    0.1580 ca        1 A2O      0.068600
      2 C2         -2.3580    1.4960   -0.4950 ca        1 A2O     -0.106300
      3 C3         -1.8330   -0.3580    0.9790 ca        1 A2O     -0.148000
      4 C4         -0.5520    0.1440    1.1620 ca        1 A2O     -0.141000
      5 C5         -0.1400    1.3220    0.5050 ca        1 A2O      0.120600
      6 C6         -4.3550   -2.6240    0.4830 c3        1 A2O     -0.103400
      7 C7         -1.0680    1.9850   -0.3240 ca        1 A2O     -0.129000
      8 C9         -3.3230    2.2320   -1.3550 c3        1 A2O     -0.033100
      9 C10         5.1250   -2.6240   -1.0800 ca        1 A2O     -0.126500
     10 C11         6.3680   -1.9970   -1.0080 ca        1 A2O     -0.120000
     11 C12        -4.2860    1.2860   -2.0340 c3        1 A2O     -0.148400
     12 C13        -4.8690    0.2660   -1.0820 c         1 A2O      0.700500
     13 C14        -4.9230   -3.5620    1.5150 c3        1 A2O     -0.093100
     14 C15         2.7800    0.3150   -0.6850 c3        1 A2O     -0.253300
     15 C16         4.0210   -0.4910   -0.7750 ca        1 A2O     -0.075300
     16 C17         5.2730    0.1360   -0.7030 ca        1 A2O     -0.114500
     17 C18         3.9540   -1.8760   -0.9670 ca        1 A2O     -0.114500
     18 C19         6.4390   -0.6160   -0.8180 ca        1 A2O     -0.126500
     19 N1          1.1550    1.8440    0.6710 nh        1 A2O     -0.783500
     20 N2         -4.0830   -0.1750   -0.0100 n         1 A2O     -0.374000
     21 O1          2.3850   -0.0110    1.8280 o         1 A2O     -0.642300
     22 O2         -6.0170   -0.1850   -1.2440 o         1 A2O     -0.622500
     23 O3          3.5570    1.9680    1.1110 o         1 A2O     -0.642300
     24 S1          2.5420    1.0140    0.8820 s6        1 A2O      1.448900
     25 H1         -2.1040   -1.2920    1.4980 ha        1 A2O      0.149000
     26 H2          0.1390   -0.3990    1.8330 ha        1 A2O      0.174000
     27 H3         -4.8330   -2.8200   -0.5130 hc        1 A2O      0.051200
     28 H4         -3.2550   -2.8050    0.3680 hc        1 A2O      0.051200
     29 H5         -0.7820    2.9140   -0.8420 ha        1 A2O      0.136000
     30 H6         -5.7350   -1.0190    0.9490 h1        1 A2O      0.065700
     31 H7         -4.1930   -0.9920    1.9220 h1        1 A2O      0.065700
     32 H8         -3.8930    2.9610   -0.7150 hc        1 A2O      0.061200
     33 H9         -2.7800    2.8300   -2.1350 hc        1 A2O      0.061200
     34 H11         7.2910   -2.5890   -1.0980 ha        1 A2O      0.134000
     35 H12        -5.1350    1.8570   -2.4940 hc        1 A2O      0.081700
     36 H13        -3.7680    0.7210   -2.8550 hc        1 A2O      0.081700
     37 H14        -4.7430   -4.6210    1.2100 hc        1 A2O      0.037033
     38 H15        -4.4440   -3.3960    2.5110 hc        1 A2O      0.037033
     39 H16        -6.0240   -3.4100    1.6250 hc        1 A2O      0.037033
     40 H17         2.8340    1.1150   -1.4730 h1        1 A2O      0.115200
     41 H18         1.9040   -0.3290   -0.9730 h1        1 A2O      0.115200
     42 H19         5.3300    1.2240   -0.5360 ha        1 A2O      0.143000
     43 H20         2.9770   -2.3780   -1.0230 ha        1 A2O      0.143000
     44 H21         7.4180   -0.1180   -0.7550 ha        1 A2O      0.135500
     45 H22         1.1820    2.8390    0.6210 hn        1 A2O      0.457800
     46 C8         -4.6170   -1.1730    0.8940 c3        1 A2O      0.089000
     47 H10         5.0650   -3.7130   -1.2260 ha        1 A2O      0.135500
@<TRIPOS>BOND
     1    1    2 ar  
     2    1    3 ar  
     3    1   20 1   
     4    2    7 ar  
     5    2    8 1   
     6    3    4 ar  
     7    3   25 1   
     8    4    5 ar  
     9    4   26 1   
    10    5    7 ar  
    11    5   19 1   
    12    6   13 1   
    13    6   27 1   
    14    6   28 1   
    15    6   46 1   
    16    7   29 1   
    17    8   11 1   
    18    8   32 1   
    19    8   33 1   
    20    9   10 ar  
    21    9   17 ar  
    22    9   47 1   
    23   10   18 ar  
    24   10   34 1   
    25   11   12 1   
    26   11   35 1   
    27   11   36 1   
    28   12   20 1   
    29   12   22 2   
    30   13   37 1   
    31   13   38 1   
    32   13   39 1   
    33   14   15 1   
    34   14   24 1   
    35   14   40 1   
    36   14   41 1   
    37   15   16 ar  
    38   15   17 ar  
    39   16   18 ar  
    40   16   42 1   
    41   17   43 1   
    42   18   44 1   
    43   19   24 1   
    44   19   45 1   
    45   20   46 1   
    46   21   24 2   
    47   23   24 2   
    48   30   46 1   
    49   31   46 1   
@<TRIPOS>SUBSTRUCTURE
     1 A2O         1 TEMP              0 ****  ****    0 ROOT
