@<TRIPOS>MOLECULE
A2P
   39    42     1     0     0
SMALL
bcc


@<TRIPOS>ATOM
      1 P1         -0.1710    0.0300    0.4570 p5        1 A2P      1.476800
      2 O1P         1.2460    0.3230    0.7260 o         1 A2P     -0.825000
      3 O2P        -1.1880    0.7410    1.5650 os        1 A2P     -0.629200
      4 O3P        -0.7140   -1.3340    0.3390 o         1 A2P     -0.825000
      5 P2         -7.0810    2.8780   -3.5950 p5        1 A2P      1.315900
      6 O4P        -7.4520    4.2570   -4.0710 o         1 A2P     -0.935500
      7 O5P        -6.4590    1.9680   -4.6230 o         1 A2P     -0.935500
      8 O6P        -8.0690    2.2130   -2.6720 o         1 A2P     -0.935500
      9 O5'        -5.7390    3.2020   -2.5290 os        1 A2P     -0.559200
     10 C5'        -4.8920    2.1550   -2.3000 c3        1 A2P      0.224400
     11 C4'        -3.4140    2.6050   -2.3810 c3        1 A2P      0.074100
     12 O4'        -3.0700    3.3900   -1.2100 os        1 A2P     -0.417600
     13 C3'        -2.4250    1.4200   -2.4490 c3        1 A2P      0.114100
     14 O3'        -1.3750    1.6700   -3.3680 oh        1 A2P     -0.613800
     15 C2'        -1.9260    1.2600   -0.9990 c3        1 A2P      0.111100
     16 O2'        -0.5900    0.8960   -0.8980 os        1 A2P     -0.570200
     17 C1'        -2.1140    2.7060   -0.4060 c3        1 A2P      0.194800
     18 N9         -2.4820    2.6970    0.9920 nh        1 A2P     -0.303100
     19 C8         -3.7940    2.4480    1.4130 ce        1 A2P      0.484200
     20 N7         -3.9420    1.9660    2.6530 ne        1 A2P     -0.808000
     21 C5         -2.6320    1.8050    3.1460 cf        1 A2P      0.185000
     22 C6         -2.1620    1.7960    4.4320 cf        1 A2P      0.359900
     23 N6         -3.1630    1.5100    5.4950 n4        1 A2P     -0.766600
     24 N1         -0.8950    2.1770    4.8250 ne        1 A2P     -0.941000
     25 C2         -0.1980    2.7570    3.7820 ce        1 A2P      0.672200
     26 N3         -0.4260    2.8130    2.4830 n2        1 A2P     -0.716900
     27 C4         -1.5570    2.0130    1.9970 c3        1 A2P      0.489400
     28 H5'1       -5.0520    1.3350   -3.0590 h1        1 A2P     -0.000300
     29 H5'2       -5.0330    1.7370   -1.2550 h1        1 A2P     -0.000300
     30 H4'        -3.2760    3.3080   -3.2450 h1        1 A2P      0.083700
     31 H3'        -2.9330    0.4940   -2.8250 h1        1 A2P      0.086700
     32 HO3'       -0.6340    2.0260   -2.8620 ho        1 A2P      0.404000
     33 H2'        -2.5720    0.5070   -0.4650 h1        1 A2P      0.069700
     34 H1'        -1.1430    3.2840   -0.4730 h2        1 A2P      0.072700
     35 H8         -4.6390    2.7050    0.7410 h5        1 A2P      0.102800
     36 HN61       -3.9380    2.1710    5.4110 hn        1 A2P      0.421467
     37 HN62       -3.5130    0.5670    5.3250 hn        1 A2P      0.421467
     38 H2          0.7380    3.2530    4.1190 h5        1 A2P     -0.001200
     39 H63        -2.7450    1.5710    6.4210 hn        1 A2P      0.421467
@<TRIPOS>BOND
     1    1    2 1   
     2    1    3 1   
     3    1    4 1   
     4    1   16 1   
     5    3   27 1   
     6    5    6 1   
     7    5    7 1   
     8    5    8 1   
     9    5    9 1   
    10    9   10 1   
    11   10   11 1   
    12   10   28 1   
    13   10   29 1   
    14   11   12 1   
    15   11   13 1   
    16   11   30 1   
    17   12   17 1   
    18   13   14 1   
    19   13   15 1   
    20   13   31 1   
    21   14   32 1   
    22   15   16 1   
    23   15   17 1   
    24   15   33 1   
    25   17   18 1   
    26   17   34 1   
    27   18   19 2   
    28   18   27 1   
    29   19   20 1   
    30   19   35 1   
    31   20   21 2   
    32   21   22 1   
    33   21   27 1   
    34   22   23 1   
    35   22   24 2   
    36   23   36 1   
    37   23   37 1   
    38   23   39 1   
    39   24   25 1   
    40   25   26 2   
    41   25   38 1   
    42   26   27 1   
@<TRIPOS>SUBSTRUCTURE
     1 A2P         1 TEMP              0 ****  ****    0 ROOT
