@<TRIPOS>MOLECULE
A2P
   38    34     1     0     0
SMALL
bcc


@<TRIPOS>ATOM
      1 P1          2.0500    3.2040   -0.0330 p3        1 A2P      2.559000
      2 O1P         3.5380    3.3440    0.3590 o         1 A2P     -1.178000
      3 O2P         1.2150    3.2860    1.1770 os        1 A2P     -1.054500
      4 O3P         1.6750    4.3110   -0.9760 o         1 A2P     -1.178000
      5 P2          0.8440   -3.1700    4.0890 p3        1 A2P      2.519000
      6 O4P        -0.2480   -4.2230    4.2280 o         1 A2P     -1.264000
      7 O5P         0.5010   -1.9730    4.9370 os        1 A2P     -1.054500
      8 O6P         2.1580   -3.7480    4.5420 o         1 A2P     -1.264000
      9 O5'         0.9560   -2.7330    2.5990 os        1 A2P     -0.741000
     10 C5'         1.3890   -1.4210    2.3120 c3        1 A2P      0.073000
     11 C4'         1.8870   -1.3580    0.8700 c3        1 A2P     -0.026000
     12 O4'         0.6870   -1.4410   -0.1160 os        1 A2P     -0.286000
     13 C3'         2.4260   -0.2350    0.6400 c3        1 A2P     -0.005000
     14 O3'         3.4830   -0.3850   -0.3480 oh        1 A2P     -0.323000
     15 C2'         1.2380    0.7330    0.0520 c3        1 A2P      0.030000
     16 O2'         1.8190    1.8140   -0.7340 os        1 A2P     -0.756000
     17 C1'         0.5160   -0.0050   -0.6860 c3        1 A2P      0.144000
     18 N9         -0.8680    0.4020   -0.5970 n3        1 A2P     -0.186000
     19 C8         -1.6580    1.1360    0.2440 c1        1 A2P     -0.131000
     20 N7         -2.8670    1.3370   -0.3760 n2        1 A2P     -0.345000
     21 C5         -2.8200    0.7180   -1.6110 c1        1 A2P     -0.121000
     22 C6         -3.7370    0.6370   -2.6410 c1        1 A2P     -0.006000
     23 N6         -5.1170    1.0110   -2.8860 n3        1 A2P     -0.285000
     24 N1         -3.4160   -0.0130   -3.7820 n1        1 A2P     -0.256000
     25 C2         -2.1880   -0.5880   -3.9180 c1        1 A2P     -0.109000
     26 N3         -1.2710   -0.5070   -2.8920 n1        1 A2P     -0.167000
     27 C4         -1.5910    0.1430   -1.7480 c1        1 A2P      0.012000
     28 H5'1        2.1480   -1.1640    2.9480 h1        1 A2P      0.052500
     29 H5'2        0.6420   -0.7990    2.4280 h1        1 A2P      0.052500
     30 H4'         2.5090   -2.0680    0.7000 h1        1 A2P      0.090000
     31 H3'         2.7980    0.1510    1.4890 h1        1 A2P      0.116000
     32 HO3'        4.2620   -0.1100    0.0030 ho        1 A2P      0.200000
     33 H2'         0.7110    1.0940    0.7780 h1        1 A2P      0.123000
     34 H1'         0.8190    0.0330   -1.5950 h2        1 A2P      0.091000
     35 H8         -1.4240    1.4110    1.1810 DU        1 A2P      0.264000
     36 HN61       -5.4140    1.8400   -2.6450 hn        1 A2P      0.138000
     37 HN62       -5.6990    0.4040   -3.2360 hn        1 A2P      0.138000
     38 H2         -1.9530   -1.0650   -4.7580 ha        1 A2P      0.130000
@<TRIPOS>BOND
     1    1    2 1   
     2    1    4 1   
     3    1   16 1   
     4    5    6 1   
     5    5    8 1   
     6    5    9 1   
     7    9   10 1   
     8   10   11 1   
     9   10   28 1   
    10   10   29 1   
    11   11   12 1   
    12   11   13 1   
    13   11   30 1   
    14   12   17 1   
    15   13   14 1   
    16   13   15 1   
    17   13   31 1   
    18   14   32 1   
    19   15   16 1   
    20   15   17 1   
    21   15   33 1   
    22   17   18 1   
    23   17   34 1   
    24   18   19 1   
    25   18   27 1   
    26   19   20 1   
    27   20   21 1   
    28   21   27 1   
    29   22   23 1   
    30   22   24 1   
    31   23   36 1   
    32   23   37 1   
    33   25   26 1   
    34   25   38 1   
@<TRIPOS>SUBSTRUCTURE
     1 A2P         1 TEMP              0 ****  ****    0 ROOT
