@<TRIPOS>MOLECULE
A2P
   38    40     1     0     0
SMALL
bcc


@<TRIPOS>ATOM
      1 P1          3.4500   -0.7520    1.7020 p5        1 A2P      1.450800
      2 O1P         4.7210   -1.2350    1.1140 o         1 A2P     -0.861500
      3 O2P         3.4500    0.0710    2.9370 o         1 A2P     -0.861500
      4 O3P         2.5670   -2.0760    2.0470 oh        1 A2P     -0.805400
      5 P2          0.0090    0.7020   -5.4420 p5        1 A2P      1.326900
      6 O4P        -0.8950   -0.3960   -5.9440 o         1 A2P     -0.944833
      7 O5P         0.0000    1.9560   -6.2800 o         1 A2P     -0.944833
      8 O6P         1.3570    0.2440   -4.9350 o         1 A2P     -0.944833
      9 O5'        -0.7350    1.1970   -3.9650 os        1 A2P     -0.577200
     10 C5'        -0.7610    0.2390   -2.9770 c3        1 A2P      0.230400
     11 C4'         0.1330    0.6300   -1.7780 c3        1 A2P      0.071100
     12 O4'        -0.6760    0.7140   -0.5890 os        1 A2P     -0.443600
     13 C3'         1.2640   -0.3720   -1.4750 c3        1 A2P      0.132100
     14 O3'         2.4760    0.0140   -2.0770 oh        1 A2P     -0.622800
     15 C2'         1.3610   -0.4550    0.0730 c3        1 A2P      0.187100
     16 O2'         2.5300    0.0670    0.6050 os        1 A2P     -0.570200
     17 C1'         0.1460    0.4260    0.5630 c3        1 A2P      0.228800
     18 N9         -0.6610   -0.1640    1.6080 nh        1 A2P     -0.230200
     19 C8         -0.7010   -1.5230    2.0200 c1        1 A2P      0.101400
     20 N7         -1.6060   -1.7180    3.0180 ne        1 A2P     -0.711800
     21 C5         -2.1840   -0.4870    3.2890 ca        1 A2P     -0.110200
     22 C6         -3.1420   -0.0410    4.2310 ca        1 A2P      0.504200
     23 N6         -3.7900   -0.9800    5.1010 nh        1 A2P     -0.887500
     24 N1         -3.4820    1.2890    4.2980 nb        1 A2P     -0.780000
     25 C2         -2.8720    2.1160    3.4180 ca        1 A2P      0.546900
     26 N3         -1.9440    1.8510    2.4550 nb        1 A2P     -0.693000
     27 C4         -1.5940    0.5470    2.3830 ca        1 A2P      0.400800
     28 H5'1       -0.4170   -0.7540   -3.3830 h1        1 A2P     -0.000800
     29 H5'2       -1.8160    0.1290   -2.5890 h1        1 A2P     -0.000800
     30 H4'         0.5740    1.6490   -1.9600 h1        1 A2P      0.059700
     31 H3'         0.9780   -1.3960   -1.8520 h1        1 A2P      0.022700
     32 HO3'        2.2680    0.1350   -3.0300 ho        1 A2P      0.471000
     33 H2'         1.2270   -1.5290    0.3800 h1        1 A2P      0.068700
     34 H1'         0.5390    1.4160    0.9450 h2        1 A2P      0.060700
     35 H8          1.6920   -1.9070    2.3900 ho        1 A2P      0.452000
     36 HN61       -3.6490   -0.7110    6.0580 hn        1 A2P      0.340800
     37 HN62       -3.3770   -1.8830    4.9590 hn        1 A2P      0.340800
     38 H2         -3.1700    3.1780    3.4910 h5        1 A2P     -0.009900
@<TRIPOS>BOND
     1    1    2 1   
     2    1    3 1   
     3    1    4 1   
     4    1   16 1   
     5    4   35 1   
     6    5    6 1   
     7    5    7 1   
     8    5    8 1   
     9    5    9 1   
    10    9   10 1   
    11   10   11 1   
    12   10   28 1   
    13   10   29 1   
    14   11   12 1   
    15   11   13 1   
    16   11   30 1   
    17   12   17 1   
    18   13   14 1   
    19   13   15 1   
    20   13   31 1   
    21   14   32 1   
    22   15   16 1   
    23   15   17 1   
    24   15   33 1   
    25   17   18 1   
    26   17   34 1   
    27   18   19 2   
    28   18   27 1   
    29   19   20 2   
    30   20   21 1   
    31   21   22 ar  
    32   21   27 ar  
    33   22   23 1   
    34   22   24 ar  
    35   23   36 1   
    36   23   37 1   
    37   24   25 ar  
    38   25   26 ar  
    39   25   38 1   
    40   26   27 ar  
@<TRIPOS>SUBSTRUCTURE
     1 A2P         1 TEMP              0 ****  ****    0 ROOT
