@<TRIPOS>MOLECULE
A2P
   38    40     1     0     0
SMALL
bcc


@<TRIPOS>ATOM
      1 P1          0.7610    0.1750    0.7290 p5        1 A2P      1.313900
      2 O1P         1.6290    0.8830    1.7310 o         1 A2P     -0.926833
      3 O2P        -0.5770   -0.2810    1.2380 o         1 A2P     -0.926833
      4 O3P         1.4640   -0.7820   -0.1970 o         1 A2P     -0.926833
      5 P2          0.7810    4.6520   -6.9270 p5        1 A2P      1.324900
      6 O4P         1.9660    3.7280   -7.0700 o         1 A2P     -0.944167
      7 O5P        -0.1890    4.6220   -8.0830 o         1 A2P     -0.944167
      8 O6P         1.1010    6.0340   -6.4180 o         1 A2P     -0.944167
      9 O5'        -0.1360    3.9370   -5.6410 os        1 A2P     -0.572200
     10 C5'         0.4630    2.9600   -4.8890 c3        1 A2P      0.225400
     11 C4'         0.1050    3.1000   -3.3890 c3        1 A2P      0.072100
     12 O4'        -1.1810    2.4970   -3.1050 os        1 A2P     -0.416600
     13 C3'         1.1250    2.4480   -2.4330 c3        1 A2P      0.096100
     14 O3'         1.6570    3.4240   -1.5580 oh        1 A2P     -0.632800
     15 C2'         0.4000    1.2830   -1.6900 c3        1 A2P      0.168100
     16 O2'         0.3220    1.4980   -0.3460 os        1 A2P     -0.551200
     17 C1'        -1.0530    1.3320   -2.3140 c3        1 A2P      0.186800
     18 N9         -1.3750    0.1450   -3.1250 na        1 A2P     -0.200000
     19 C8         -0.5100   -0.5270   -4.0040 cc        1 A2P      0.487700
     20 N7         -1.0370   -1.6370   -4.5720 nd        1 A2P     -0.632100
     21 C5         -2.3340   -1.7140   -4.0570 ca        1 A2P     -0.183200
     22 C6         -3.3880   -2.6540   -4.2210 ca        1 A2P      0.638200
     23 N6         -3.2300   -3.7410   -5.1160 nh        1 A2P     -0.908500
     24 N1         -4.5660   -2.4790   -3.5510 nb        1 A2P     -0.811000
     25 C2         -4.6640   -1.3640   -2.7660 ca        1 A2P      0.611900
     26 N3         -3.7680   -0.3930   -2.5070 nb        1 A2P     -0.662000
     27 C4         -2.5720   -0.5740   -3.1460 ca        1 A2P      0.454800
     28 H5'1        0.1070    1.9310   -5.2060 h1        1 A2P     -0.004800
     29 H5'2        1.5840    3.0040   -5.0040 h1        1 A2P     -0.004800
     30 H4'        -0.0400    4.1870   -3.1460 h1        1 A2P      0.079700
     31 H3'         2.0030    2.0470   -3.0090 h1        1 A2P      0.049700
     32 HO3'        1.2910    3.2610   -0.6740 ho        1 A2P      0.432000
     33 H2'         0.9140    0.3000   -1.9040 h1        1 A2P      0.086700
     34 H1'        -1.8390    1.3910   -1.5050 h2        1 A2P      0.110700
     35 H8          0.5050   -0.1390   -4.1890 h5        1 A2P      0.100800
     36 HN61       -3.6860   -4.5730   -4.8040 hn        1 A2P      0.371800
     37 HN62       -2.2640   -3.9050   -5.3160 hn        1 A2P      0.371800
     38 H2         -5.6400   -1.2520   -2.2530 h5        1 A2P      0.009100
@<TRIPOS>BOND
     1    1    2 1   
     2    1    3 1   
     3    1    4 1   
     4    1   16 1   
     5    5    6 1   
     6    5    7 1   
     7    5    8 1   
     8    5    9 1   
     9    9   10 1   
    10   10   11 1   
    11   10   28 1   
    12   10   29 1   
    13   11   12 1   
    14   11   13 1   
    15   11   30 1   
    16   12   17 1   
    17   13   14 1   
    18   13   15 1   
    19   13   31 1   
    20   14   32 1   
    21   15   16 1   
    22   15   17 1   
    23   15   33 1   
    24   17   18 1   
    25   17   34 1   
    26   18   19 1   
    27   18   27 1   
    28   19   20 2   
    29   19   35 1   
    30   20   21 1   
    31   21   22 ar  
    32   21   27 ar  
    33   22   23 1   
    34   22   24 ar  
    35   23   36 1   
    36   23   37 1   
    37   24   25 ar  
    38   25   26 ar  
    39   25   38 1   
    40   26   27 ar  
@<TRIPOS>SUBSTRUCTURE
     1 A2P         1 TEMP              0 ****  ****    0 ROOT
