@<TRIPOS>MOLECULE
A2P
   38    40     1     0     0
SMALL
bcc


@<TRIPOS>ATOM
      1 P1          0.7320    0.1570    0.7360 p5        1 A2P      1.313900
      2 O1P         1.6040    0.8530    1.7430 o         1 A2P     -0.926833
      3 O2P        -0.6140   -0.2820    1.2390 o         1 A2P     -0.926833
      4 O3P         1.4280   -0.8090   -0.1860 o         1 A2P     -0.926833
      5 P2          0.8460    4.6330   -6.9190 p5        1 A2P      1.324900
      6 O4P         2.0200    3.6940   -7.0570 o         1 A2P     -0.944167
      7 O5P        -0.1190    4.6170   -8.0790 o         1 A2P     -0.944167
      8 O6P         1.1830    6.0110   -6.4080 o         1 A2P     -0.944167
      9 O5'        -0.0860    3.9310   -5.6370 os        1 A2P     -0.572200
     10 C5'         0.4970    2.9460   -4.8830 c3        1 A2P      0.225400
     11 C4'         0.1340    3.0890   -3.3850 c3        1 A2P      0.072100
     12 O4'        -1.1610    2.5040   -3.1070 os        1 A2P     -0.416600
     13 C3'         1.1420    2.4240   -2.4240 c3        1 A2P      0.096100
     14 O3'         1.6820    3.3930   -1.5460 oh        1 A2P     -0.632800
     15 C2'         0.3970    1.2690   -1.6840 c3        1 A2P      0.168100
     16 O2'         0.3160    1.4850   -0.3420 os        1 A2P     -0.551200
     17 C1'        -1.0520    1.3370   -2.3150 c3        1 A2P      0.186800
     18 N9         -1.3850    0.1540   -3.1280 na        1 A2P     -0.200000
     19 C8         -0.5240   -0.5290   -4.0040 cc        1 A2P      0.487700
     20 N7         -1.0620   -1.6310   -4.5750 nd        1 A2P     -0.632100
     21 C5         -2.3620   -1.6920   -4.0660 ca        1 A2P     -0.183200
     22 C6         -3.4270   -2.6190   -4.2350 ca        1 A2P      0.638200
     23 N6         -3.2790   -3.7080   -5.1300 nv        1 A2P     -0.908500
     24 N1         -4.6060   -2.4290   -3.5700 nb        1 A2P     -0.811000
     25 C2         -4.6940   -1.3140   -2.7850 ca        1 A2P      0.611900
     26 N3         -3.7870   -0.3540   -2.5220 nb        1 A2P     -0.662000
     27 C4         -2.5910   -0.5490   -3.1550 ca        1 A2P      0.454800
     28 H5'1        1.6190    2.9750   -4.9920 h1        1 A2P     -0.004800
     29 H5'2        0.1290    1.9220   -5.2020 h1        1 A2P     -0.004800
     30 H4'         0.0030    4.1780   -3.1420 h1        1 A2P      0.079700
     31 H3'         2.0160    2.0120   -2.9960 h1        1 A2P      0.049700
     32 HO3'        1.3090    3.2360   -0.6650 ho        1 A2P      0.432000
     33 H2'         0.9000    0.2800   -1.8960 h1        1 A2P      0.086700
     34 H1'        -1.8410    1.4050   -1.5110 h2        1 A2P      0.110700
     35 H8          0.4960   -0.1530   -4.1840 h5        1 A2P      0.100800
     36 HN61       -3.7470   -4.5340   -4.8210 hn        1 A2P      0.371800
     37 HN62       -2.3140   -3.8830   -5.3250 hn        1 A2P      0.371800
     38 H2         -5.6710   -1.1900   -2.2770 h5        1 A2P      0.009100
@<TRIPOS>BOND
     1    1    2 1   
     2    1    3 1   
     3    1    4 1   
     4    1   16 1   
     5    5    6 1   
     6    5    7 1   
     7    5    8 1   
     8    5    9 1   
     9    9   10 1   
    10   10   11 1   
    11   10   28 1   
    12   10   29 1   
    13   11   12 1   
    14   11   13 1   
    15   11   30 1   
    16   12   17 1   
    17   13   14 1   
    18   13   15 1   
    19   13   31 1   
    20   14   32 1   
    21   15   16 1   
    22   15   17 1   
    23   15   33 1   
    24   17   18 1   
    25   17   34 1   
    26   18   19 1   
    27   18   27 1   
    28   19   20 2   
    29   19   35 1   
    30   20   21 1   
    31   21   22 ar  
    32   21   27 ar  
    33   22   23 1   
    34   22   24 ar  
    35   23   36 1   
    36   23   37 1   
    37   24   25 ar  
    38   25   26 ar  
    39   25   38 1   
    40   26   27 ar  
@<TRIPOS>SUBSTRUCTURE
     1 A2P         1 TEMP              0 ****  ****    0 ROOT
