@<TRIPOS>MOLECULE
A2Q
   15    15     1     0     0
SMALL
bcc


@<TRIPOS>ATOM
      1 C1         -0.0130    0.0220   -0.0430 c         1 A2Q      0.565300
      2 C2          1.4880   -0.0580    0.0370 c3        1 A2Q     -0.181400
      3 C3          1.9920    0.0380    1.4600 c3        1 A2Q     -0.072400
      4 C4          1.4580    1.2680    2.1680 c3        1 A2Q     -0.066200
      5 C5         -0.0000    1.4440    1.9670 c2        1 A2Q     -0.097200
      6 C6         -0.6730    0.8770    0.9580 ce        1 A2Q     -0.254200
      7 O1         -0.6500   -0.5780   -0.9170 o         1 A2Q     -0.532100
      8 H21C        1.9030    0.7880   -0.5760 hc        1 A2Q      0.071700
      9 H22C        1.8380   -1.0150   -0.4300 hc        1 A2Q      0.071700
     10 H6         -1.7570    1.0180    0.8250 ha        1 A2Q      0.149000
     11 H31C        1.6820   -0.8800    2.0260 hc        1 A2Q      0.049700
     12 H32C        3.1130    0.0660    1.4550 hc        1 A2Q      0.049700
     13 H41C        1.9830    2.1870    1.7840 hc        1 A2Q      0.058200
     14 H42C        1.6850    1.1940    3.2660 hc        1 A2Q      0.058200
     15 H5         -0.5120    2.0880    2.7010 ha        1 A2Q      0.129000
@<TRIPOS>BOND
     1    1    2 1   
     2    1    6 1   
     3    1    7 2   
     4    2    3 1   
     5    2    8 1   
     6    2    9 1   
     7    3    4 1   
     8    3   11 1   
     9    3   12 1   
    10    4    5 1   
    11    4   13 1   
    12    4   14 1   
    13    5    6 2   
    14    5   15 1   
    15    6   10 1   
@<TRIPOS>SUBSTRUCTURE
     1 A2Q         1 TEMP              0 ****  ****    0 ROOT
