@<TRIPOS>MOLECULE
A2Q
   15    15     1     0     0
SMALL
bcc


@<TRIPOS>ATOM
      1 C1         -0.0260    0.0100   -0.0350 c         1 A2Q      0.565300
      2 C2          1.4760   -0.0590    0.0360 c3        1 A2Q     -0.181400
      3 C3          1.9880    0.0480    1.4560 c3        1 A2Q     -0.072400
      4 C4          1.4500    1.2780    2.1610 c3        1 A2Q     -0.066200
      5 C5         -0.0110    1.4430    1.9680 c2        1 A2Q     -0.097200
      6 C6         -0.6850    0.8670    0.9650 ce        1 A2Q     -0.254200
      7 O1         -0.6640   -0.5990   -0.9020 o         1 A2Q     -0.532100
      8 H21C        1.8820    0.7860   -0.5830 hc        1 A2Q      0.071700
      9 H22C        1.8300   -1.0170   -0.4280 hc        1 A2Q      0.071700
     10 H6         -1.7710    1.0000    0.8370 ha        1 A2Q      0.149000
     11 H31C        3.1080    0.0830    1.4440 hc        1 A2Q      0.049700
     12 H32C        1.6880   -0.8690    2.0280 hc        1 A2Q      0.049700
     13 H41C        1.9670    2.1970    1.7690 hc        1 A2Q      0.058200
     14 H42C        1.6830    1.2100    3.2570 hc        1 A2Q      0.058200
     15 H5         -0.5220    2.0880    2.7010 ha        1 A2Q      0.129000
@<TRIPOS>BOND
     1    1    2 1   
     2    1    6 1   
     3    1    7 2   
     4    2    3 1   
     5    2    8 1   
     6    2    9 1   
     7    3    4 1   
     8    3   11 1   
     9    3   12 1   
    10    4    5 1   
    11    4   13 1   
    12    4   14 1   
    13    5    6 2   
    14    5   15 1   
    15    6   10 1   
@<TRIPOS>SUBSTRUCTURE
     1 A2Q         1 TEMP              0 ****  ****    0 ROOT
