@<TRIPOS>MOLECULE
A2T
   89    92     1     0     0
SMALL
bcc


@<TRIPOS>ATOM
      1 O22         0.8370    1.5000   -0.7440 o         1 A2T     -0.427100
      2 C20         1.6670    0.6630   -0.4100 c         1 A2T      0.570700
      3 C23         2.2520    0.5370    0.9340 ca        1 A2T     -0.212600
      4 C27         2.2870    1.7060    1.7140 ca        1 A2T     -0.072000
      5 C31         2.7990    1.6700    3.0070 ca        1 A2T     -0.129500
      6 C33         3.2730    0.4700    3.5510 ca        1 A2T      0.005700
      7 C35         3.8080    0.4220    4.9380 c3        1 A2T     -0.061100
      8 C37         5.3060    0.1780    4.9580 c3        1 A2T     -0.074400
      9 C39         5.8180    0.0900    6.3800 c3        1 A2T     -0.081400
     10 C42         7.3130   -0.1490    6.4090 c3        1 A2T     -0.078400
     11 C43         7.8270   -0.2390    7.8220 c3        1 A2T     -0.095100
     12 C30         3.2230   -0.6980    2.7730 ca        1 A2T     -0.129500
     13 C26         2.7190   -0.6690    1.4780 ca        1 A2T     -0.072000
     14 N19         2.1480   -0.3320   -1.4460 nx        1 A2T     -0.591200
     15 C21         1.2680   -0.5100   -2.6630 c3        1 A2T      0.141500
     16 C25         1.0130    0.7410   -3.5030 c3        1 A2T     -0.102900
     17 C29         0.2090    0.3470   -4.7450 c3        1 A2T      0.171800
     18 N32        -1.0460   -0.3110   -4.4230 n3        1 A2T     -0.734600
     19 C34        -1.8490   -0.6440   -5.5960 c3        1 A2T      0.170800
     20 C36        -2.2540    0.5660   -6.4350 c3        1 A2T     -0.076400
     21 C38        -3.3410    0.2330   -7.4470 c3        1 A2T     -0.067700
     22 C41        -4.6780   -0.0190   -6.7830 c3        1 A2T     -0.092600
     23 C40        -2.9560   -0.9300   -8.3350 c3        1 A2T     -0.092600
     24 C28        -0.8640   -1.4610   -3.5510 c3        1 A2T      0.171800
     25 C24        -0.0840   -1.1250   -2.2780 c3        1 A2T     -0.102900
     26 C18         3.6080   -0.1190   -1.7730 c3        1 A2T      0.201100
     27 C17         3.9840    1.1920   -2.3540 ca        1 A2T     -0.232300
     28 C15         4.0200    2.3490   -1.5640 ca        1 A2T     -0.053500
     29 C13         4.4630    3.5540   -2.0780 ca        1 A2T     -0.201500
     30 C16         4.4210    1.2720   -3.6820 ca        1 A2T     -0.053500
     31 C14         4.8750    2.4670   -4.2160 ca        1 A2T     -0.201500
     32 C12         4.9070    3.6510   -3.4270 ca        1 A2T      0.244600
     33 N44         5.3850    4.8420   -3.9490 nh        1 A2T     -0.563400
     34 C45         5.9980    4.8730   -5.2520 c3        1 A2T      0.201100
     35 C4          5.2180    6.0720   -3.2630 ca        1 A2T      0.164600
     36 C2          3.9550    6.4880   -2.7890 ca        1 A2T     -0.265800
     37 C8          6.3170    6.9350   -3.0620 ca        1 A2T     -0.265800
     38 C9          6.0980    8.1570   -2.4020 ca        1 A2T      0.412700
     39 N6          4.8990    8.5590   -1.9420 nb        1 A2T     -0.653000
     40 C3          3.8570    7.7300   -2.1410 ca        1 A2T      0.412700
     41 H27         1.8990    2.6520    1.2970 ha        1 A2T      0.144000
     42 H31         2.8230    2.5940    3.6080 ha        1 A2T      0.163000
     43 H351        3.2890   -0.4020    5.5010 hc        1 A2T      0.069700
     44 H352        3.5810    1.3830    5.4740 hc        1 A2T      0.069700
     45 H371        5.8320    1.0090    4.4190 hc        1 A2T      0.044200
     46 H372        5.5400   -0.7750    4.4120 hc        1 A2T      0.044200
     47 H391        5.5790    1.0400    6.9260 hc        1 A2T      0.046700
     48 H392        5.2940   -0.7430    6.9190 hc        1 A2T      0.046700
     49 H421        7.8350    0.6850    5.8700 hc        1 A2T      0.039700
     50 H422        7.5510   -1.0990    5.8600 hc        1 A2T      0.039700
     51 H431        8.9300   -0.4150    7.8220 hc        1 A2T      0.039033
     52 H432        7.3360   -1.0800    8.3690 hc        1 A2T      0.039033
     53 H433        7.6220    0.7080    8.3790 hc        1 A2T      0.039033
     54 H30         3.5820   -1.6480    3.2010 ha        1 A2T      0.163000
     55 H26         2.6760   -1.6160    0.9190 ha        1 A2T      0.144000
     56 H21         1.8310   -1.2540   -3.3100 hx        1 A2T      0.082700
     57 H251        1.9790    1.2010   -3.8350 hc        1 A2T      0.077950
     58 H252        0.4410    1.5060   -2.9160 hc        1 A2T      0.077950
     59 H291        0.8610   -0.2910   -5.4120 h1        1 A2T      0.048950
     60 H292       -0.0360    1.2930   -5.3070 h1        1 A2T      0.048950
     61 H341       -2.7850   -1.1480   -5.2200 h1        1 A2T      0.042700
     62 H342       -1.3080   -1.3800   -6.2620 h1        1 A2T      0.042700
     63 H361       -1.3570    0.9490   -6.9910 hc        1 A2T      0.047200
     64 H362       -2.6200    1.3910   -5.7680 hc        1 A2T      0.047200
     65 H38        -3.4530    1.1470   -8.1030 hc        1 A2T      0.054700
     66 H411       -4.6630   -0.9660   -6.1920 hc        1 A2T      0.037033
     67 H412       -4.9400    0.8230   -6.0980 hc        1 A2T      0.037033
     68 H413       -5.4770   -0.1080   -7.5590 hc        1 A2T      0.037033
     69 H401       -2.9490   -1.8870   -7.7580 hc        1 A2T      0.037033
     70 H402       -3.6900   -1.0330   -9.1700 hc        1 A2T      0.037033
     71 H403       -1.9400   -0.7710   -8.7710 hc        1 A2T      0.037033
     72 H281       -1.8850   -1.8270   -3.2450 h1        1 A2T      0.048950
     73 H282       -0.3360   -2.3120   -4.0770 h1        1 A2T      0.048950
     74 H241        0.0510   -2.0720   -1.6940 hc        1 A2T      0.077950
     75 H242       -0.6690   -0.3990   -1.6540 hc        1 A2T      0.077950
     76 H181        4.1560   -0.2610   -0.7920 hx        1 A2T      0.092700
     77 H182        3.8990   -0.9520   -2.4780 hx        1 A2T      0.092700
     78 H15         3.6970    2.3010   -0.5100 ha        1 A2T      0.131000
     79 H13         4.4850    4.4410   -1.4250 ha        1 A2T      0.156500
     80 H16         4.4160    0.3720   -4.3190 ha        1 A2T      0.131000
     81 H14         5.2140    2.4830   -5.2640 ha        1 A2T      0.156500
     82 H451        5.2410    4.6230   -6.0450 h1        1 A2T      0.055700
     83 H452        6.8380    4.1280   -5.2990 h1        1 A2T      0.055700
     84 H453        6.4080    5.8970   -5.4560 h1        1 A2T      0.055700
     85 H2          3.0600    5.8660   -2.9240 ha        1 A2T      0.153500
     86 H8          7.3260    6.6720   -3.4080 ha        1 A2T      0.153500
     87 H9          6.9390    8.8550   -2.2300 h4        1 A2T      0.035100
     88 H3          2.8810    8.0870   -1.7620 h4        1 A2T      0.035100
     89 H191        2.1070   -1.2470   -0.9710 hn        1 A2T      0.435800
@<TRIPOS>BOND
     1    1    2 2   
     2    2    3 1   
     3    2   14 1   
     4    3    4 ar  
     5    3   13 ar  
     6    4    5 ar  
     7    4   41 1   
     8    5    6 ar  
     9    5   42 1   
    10    6    7 1   
    11    6   12 ar  
    12    7    8 1   
    13    7   43 1   
    14    7   44 1   
    15    8    9 1   
    16    8   45 1   
    17    8   46 1   
    18    9   10 1   
    19    9   47 1   
    20    9   48 1   
    21   10   11 1   
    22   10   49 1   
    23   10   50 1   
    24   11   51 1   
    25   11   52 1   
    26   11   53 1   
    27   12   13 ar  
    28   12   54 1   
    29   13   55 1   
    30   14   15 1   
    31   14   26 1   
    32   14   89 1   
    33   15   16 1   
    34   15   25 1   
    35   15   56 1   
    36   16   17 1   
    37   16   57 1   
    38   16   58 1   
    39   17   18 1   
    40   17   59 1   
    41   17   60 1   
    42   18   19 1   
    43   18   24 1   
    44   19   20 1   
    45   19   61 1   
    46   19   62 1   
    47   20   21 1   
    48   20   63 1   
    49   20   64 1   
    50   21   22 1   
    51   21   23 1   
    52   21   65 1   
    53   22   66 1   
    54   22   67 1   
    55   22   68 1   
    56   23   69 1   
    57   23   70 1   
    58   23   71 1   
    59   24   25 1   
    60   24   72 1   
    61   24   73 1   
    62   25   74 1   
    63   25   75 1   
    64   26   27 1   
    65   26   76 1   
    66   26   77 1   
    67   27   28 ar  
    68   27   30 ar  
    69   28   29 ar  
    70   28   78 1   
    71   29   32 ar  
    72   29   79 1   
    73   30   31 ar  
    74   30   80 1   
    75   31   32 ar  
    76   31   81 1   
    77   32   33 1   
    78   33   34 1   
    79   33   35 1   
    80   34   82 1   
    81   34   83 1   
    82   34   84 1   
    83   35   36 ar  
    84   35   37 ar  
    85   36   40 ar  
    86   36   85 1   
    87   37   38 ar  
    88   37   86 1   
    89   38   39 ar  
    90   38   87 1   
    91   39   40 ar  
    92   40   88 1   
@<TRIPOS>SUBSTRUCTURE
     1 A2T         1 TEMP              0 ****  ****    0 ROOT
