@<TRIPOS>MOLECULE
A2T
   88    84     1     0     0
SMALL
bcc


@<TRIPOS>ATOM
      1 O22        -2.7720    1.4030    1.0700 o         1 A2T     -0.346000
      2 C20        -1.5480    1.3490    1.0840 c1        1 A2T      0.330000
      3 C23        -0.7760    1.4030    2.4540 c1        1 A2T     -0.120000
      4 C27        -1.4950    1.5490    3.6610 c2        1 A2T     -0.088000
      5 C31        -0.8250    1.4770    4.8860 c1        1 A2T     -0.134000
      6 C33         0.5560    1.2600    4.9160 c1        1 A2T     -0.049000
      7 C35         1.2780    1.1710    6.2430 c3        1 A2T     -0.128000
      8 C37         1.1330   -0.2300    6.8040 c3        1 A2T     -0.155000
      9 C39         1.8530   -0.3190    8.1580 c3        1 A2T     -0.159000
     10 C42         1.7490   -1.7840    8.7040 c3        1 A2T     -0.159000
     11 C43         2.6230   -1.9310    9.9720 c3        1 A2T     -0.211000
     12 C30         1.2680    1.1160    3.7230 c1        1 A2T     -0.137000
     13 C26         0.5930    1.1880    2.4860 c1        1 A2T     -0.096000
     14 N19        -0.7930    1.1930   -0.1980 n3        1 A2T     -0.308000
     15 C21        -1.5300    1.1020   -1.4900 c3        1 A2T      0.022000
     16 C25        -2.9800    0.9310   -1.2080 c3        1 A2T     -0.164000
     17 C29        -3.2980   -0.4360   -0.5930 c3        1 A2T     -0.065500
     18 N32        -2.7390   -1.5550   -1.3830 n3        1 A2T     -0.255000
     19 C34        -2.9610   -2.8170   -0.6680 c3        1 A2T     -0.065000
     20 C36        -3.8210   -3.7980   -1.5850 c3        1 A2T     -0.157000
     21 C38        -3.5660   -5.2570   -1.1570 c3        1 A2T     -0.107000
     22 C41        -2.9010   -6.0040   -2.2870 c3        1 A2T     -0.208000
     23 C40        -4.9230   -5.9410   -0.8070 c3        1 A2T     -0.208000
     24 C28        -1.2950   -1.3930   -1.6700 c3        1 A2T     -0.065500
     25 C24        -0.9720   -0.0340   -2.2880 c3        1 A2T     -0.164000
     26 C18         0.6420    1.2250   -0.1950 c3        1 A2T      0.003000
     27 C17         1.1520    1.7530   -1.5710 c2        1 A2T     -0.121000
     28 C15         2.2590    1.1510   -2.1800 c2        1 A2T     -0.109000
     29 C13         2.8230    1.7220   -3.3260 c1        1 A2T     -0.157000
     30 C16         0.6100    2.9240   -2.1100 c1        1 A2T     -0.105000
     31 C14         1.1780    3.4970   -3.2620 c1        1 A2T     -0.139000
     32 C12         2.2780    2.8990   -3.8660 c1        1 A2T      0.056000
     33 N44         2.9240    3.5450   -4.9860 n3        1 A2T     -0.232000
     34 C45         3.5910    4.8210   -4.8020 c3        1 A2T     -0.079000
     35 C4          2.9330    2.9250   -6.2430 c2        1 A2T      0.118000
     36 C2          3.9730    2.1110   -6.5950 c2        1 A2T     -0.245000
     37 C8          1.9590    3.2230   -7.1580 c1        1 A2T     -0.229000
     38 C9          2.0290    2.6950   -8.4460 c1        1 A2T     -0.048000
     39 N6          3.0690    1.8820   -8.7950 n1        1 A2T     -0.164000
     40 C3          4.0420    1.5850   -7.8830 c1        1 A2T     -0.045000
     41 H27        -2.4660    1.7010    3.6400 ha        1 A2T      0.145000
     42 H31        -1.3230    1.5770    5.7230 ha        1 A2T      0.138000
     43 H351        2.2270    1.3720    6.1100 hc        1 A2T      0.089500
     44 H352        0.8910    1.8180    6.8710 hc        1 A2T      0.089500
     45 H371        1.5270   -0.8710    6.1830 hc        1 A2T      0.085000
     46 H372        0.1800   -0.4360    6.9260 hc        1 A2T      0.085000
     47 H391        1.4320    0.3000    8.7940 hc        1 A2T      0.079000
     48 H392        2.8010   -0.0760    8.0420 hc        1 A2T      0.079000
     49 H421        0.8010   -1.9870    8.9300 hc        1 A2T      0.079500
     50 H422        2.0620   -2.4090    8.0190 hc        1 A2T      0.079500
     51 H431        3.5670   -1.7530    9.7430 hc        1 A2T      0.072667
     52 H432        2.3230   -1.2890   10.6530 hc        1 A2T      0.072667
     53 H433        2.5380   -2.8510   10.3260 hc        1 A2T      0.072667
     54 H30         2.2350    0.9640    3.7460 ha        1 A2T      0.137000
     55 H26         1.0820    1.0900    1.6650 ha        1 A2T      0.144000
     56 H21        -1.3990    1.9400   -1.9910 h1        1 A2T      0.092000
     57 H251       -3.4820    1.0250   -2.0530 hc        1 A2T      0.100500
     58 H252       -3.2720    1.6390   -0.5830 hc        1 A2T      0.100500
     59 H291       -4.2640   -0.5400   -0.5430 h1        1 A2T      0.069250
     60 H292       -2.9310   -0.4710    0.3090 h1        1 A2T      0.069250
     61 H341       -2.0890   -3.2380   -0.4600 h1        1 A2T      0.067500
     62 H342       -3.4430   -2.6420    0.1600 h1        1 A2T      0.067500
     63 H361       -4.7660   -3.5920   -1.4860 hc        1 A2T      0.089000
     64 H362       -3.5570   -3.6810   -2.5260 hc        1 A2T      0.089000
     65 H38        -2.9800   -5.2690   -0.3680 hc        1 A2T      0.083000
     66 H411       -3.4870   -5.9980   -3.0740 hc        1 A2T      0.073500
     67 H412       -2.7340   -6.9260   -2.0120 hc        1 A2T      0.073500
     68 H413       -2.0520   -5.5710   -2.5100 hc        1 A2T      0.073500
     69 H401       -5.4430   -6.0820   -1.6320 hc        1 A2T      0.073500
     70 H402       -5.4310   -5.3660   -0.1940 hc        1 A2T      0.073500
     71 H403       -4.7510   -6.8130   -0.3730 hc        1 A2T      0.073500
     72 H281       -0.7920   -1.4900   -0.8360 h1        1 A2T      0.069250
     73 H282       -1.0140   -2.1020   -2.2960 h1        1 A2T      0.069250
     74 H241       -0.0080    0.0650   -2.3460 hc        1 A2T      0.100500
     75 H242       -1.3430   -0.0010   -3.1750 hc        1 A2T      0.100500
     76 H181        0.9940    0.3080   -0.0400 h1        1 A2T      0.106500
     77 H182        0.9480    1.8100    0.5060 h1        1 A2T      0.106500
     78 H15         2.6440    0.3210   -1.8000 ha        1 A2T      0.135000
     79 H13         3.5900    1.3050   -3.7470 ha        1 A2T      0.146000
     80 H16        -0.1610    3.3440   -1.6870 ha        1 A2T      0.140000
     81 H14         0.7900    4.3350   -3.6470 ha        1 A2T      0.143000
     82 H451        4.4290    4.6840   -4.3090 h1        1 A2T      0.084000
     83 H452        3.7900    5.2180   -5.6840 h1        1 A2T      0.084000
     84 H453        3.0040    5.4280   -4.2930 h1        1 A2T      0.084000
     85 H2          4.6660    1.8990   -5.9450 ha        1 A2T      0.143000
     86 H8          1.2130    3.8050   -6.9080 ha        1 A2T      0.153000
     87 H9          1.3370    2.9060   -9.0970 ha        1 A2T      0.158000
     88 H3          4.7930    0.9970   -8.1370 ha        1 A2T      0.156000
@<TRIPOS>BOND
     1    1    2 1   
     2    2   14 1   
     3    3    4 1   
     4    3   13 1   
     5    4    5 1   
     6    4   41 1   
     7    5   42 1   
     8    6    7 1   
     9    6   12 1   
    10    7    8 1   
    11    7   43 1   
    12    7   44 1   
    13    8    9 1   
    14    8   45 1   
    15    8   46 1   
    16    9   10 1   
    17    9   47 1   
    18    9   48 1   
    19   10   11 1   
    20   10   49 1   
    21   10   50 1   
    22   11   51 1   
    23   11   52 1   
    24   11   53 1   
    25   12   54 1   
    26   13   55 1   
    27   14   15 1   
    28   14   26 1   
    29   15   16 1   
    30   15   25 1   
    31   15   56 1   
    32   16   17 1   
    33   16   57 1   
    34   16   58 1   
    35   17   18 1   
    36   17   59 1   
    37   17   60 1   
    38   18   19 1   
    39   18   24 1   
    40   19   20 1   
    41   19   61 1   
    42   19   62 1   
    43   20   21 1   
    44   20   63 1   
    45   20   64 1   
    46   21   22 1   
    47   21   23 1   
    48   21   65 1   
    49   22   66 1   
    50   22   67 1   
    51   22   68 1   
    52   23   69 1   
    53   23   70 1   
    54   23   71 1   
    55   24   25 1   
    56   24   72 1   
    57   24   73 1   
    58   25   74 1   
    59   25   75 1   
    60   26   27 1   
    61   26   76 1   
    62   26   77 1   
    63   27   28 1   
    64   27   30 1   
    65   28   29 1   
    66   28   78 1   
    67   29   79 1   
    68   30   80 1   
    69   31   32 1   
    70   31   81 1   
    71   32   33 1   
    72   33   34 1   
    73   33   35 1   
    74   34   82 1   
    75   34   83 1   
    76   34   84 1   
    77   35   36 1   
    78   35   37 1   
    79   36   40 1   
    80   36   85 1   
    81   37   86 1   
    82   38   39 1   
    83   38   87 1   
    84   40   88 1   
@<TRIPOS>SUBSTRUCTURE
     1 A2T         1 TEMP              0 ****  ****    0 ROOT
