@<TRIPOS>MOLECULE
A2T
   88    91     1     0     0
SMALL
bcc


@<TRIPOS>ATOM
      1 O22         2.6140    0.8670   -1.2270 o         1 A2T     -0.586100
      2 C20         2.0060    0.4330   -2.2250 c         1 A2T      0.672700
      3 C23         2.0570    1.1860   -3.5150 ca        1 A2T     -0.134600
      4 C27         1.3540    2.3880   -3.6370 ca        1 A2T     -0.101000
      5 C31         1.4490    3.1330   -4.8110 ca        1 A2T     -0.130500
      6 C33         2.2510    2.6910   -5.8690 ca        1 A2T     -0.061300
      7 C35         2.3650    3.4910   -7.1190 c3        1 A2T     -0.042100
      8 C37         1.6360    2.8340   -8.2760 c3        1 A2T     -0.076400
      9 C39         1.7940    3.6430   -9.5460 c3        1 A2T     -0.080400
     10 C42         1.0650    2.9950  -10.7040 c3        1 A2T     -0.079400
     11 C43         1.2190    3.7950  -11.9710 c3        1 A2T     -0.093100
     12 C30         2.9610    1.4900   -5.7340 ca        1 A2T     -0.130500
     13 C26         2.8660    0.7400   -4.5650 ca        1 A2T     -0.101000
     14 N19         1.3020   -0.7650   -2.1720 n         1 A2T     -0.468800
     15 C21         1.1990   -1.5180   -0.9260 c3        1 A2T      0.117700
     16 C25         0.5660   -0.7360    0.2350 c3        1 A2T     -0.097400
     17 C29         0.3960   -1.6500    1.4460 c3        1 A2T      0.173300
     18 N32         1.6280   -2.2970    1.8720 n3        1 A2T     -0.728600
     19 C34         1.4340   -3.2030    2.9990 c3        1 A2T      0.172800
     20 C36         0.8950   -2.5220    4.2560 c3        1 A2T     -0.076400
     21 C38         1.0070   -3.4000    5.4930 c3        1 A2T     -0.066700
     22 C41         2.4420   -3.5610    5.9480 c3        1 A2T     -0.090600
     23 C40         0.3560   -4.7520    5.2930 c3        1 A2T     -0.090600
     24 C28         2.3350   -2.9550    0.7820 c3        1 A2T      0.173300
     25 C24         2.5490   -2.0640   -0.4380 c3        1 A2T     -0.097400
     26 C18         0.5000   -1.2360   -3.2760 c3        1 A2T      0.141300
     27 C17        -0.9840   -1.0410   -3.1240 ca        1 A2T     -0.120300
     28 C15        -1.5520    0.2250   -3.2930 ca        1 A2T     -0.105500
     29 C13        -2.9270    0.4080   -3.1960 ca        1 A2T     -0.146000
     30 C16        -1.8140   -2.1290   -2.8450 ca        1 A2T     -0.105500
     31 C14        -3.1920   -1.9630   -2.7410 ca        1 A2T     -0.146000
     32 C12        -3.7720   -0.6890   -2.9170 ca        1 A2T      0.135600
     33 N44        -5.1820   -0.5070   -2.8780 nh        1 A2T     -0.555400
     34 C45        -5.9830   -1.5190   -3.5180 c3        1 A2T      0.195100
     35 C4         -5.7570    0.2370   -1.8370 ca        1 A2T      0.206600
     36 C2         -4.9730    0.9850   -0.9230 ca        1 A2T     -0.307800
     37 C8         -7.1650    0.3140   -1.6870 ca        1 A2T     -0.307800
     38 C9         -7.6960    1.1260   -0.6760 ca        1 A2T      0.421200
     39 N6         -6.9550    1.8470    0.1870 nb        1 A2T     -0.693000
     40 C3         -5.6180    1.7620    0.0480 ca        1 A2T      0.421200
     41 H27         0.7400    2.7520   -2.7990 ha        1 A2T      0.142500
     42 H31         0.8940    4.0790   -4.9020 ha        1 A2T      0.137500
     43 H351        1.9510    4.5220   -6.9560 hc        1 A2T      0.052200
     44 H352        3.4510    3.6080   -7.3830 hc        1 A2T      0.052200
     45 H371        0.5470    2.7330   -8.0260 hc        1 A2T      0.044200
     46 H372        2.0380    1.7990   -8.4340 hc        1 A2T      0.044200
     47 H391        1.3950    4.6790   -9.3850 hc        1 A2T      0.040700
     48 H392        2.8830    3.7430   -9.7970 hc        1 A2T      0.040700
     49 H421       -0.0240    2.8950  -10.4510 hc        1 A2T      0.039200
     50 H422        1.4630    1.9580  -10.8620 hc        1 A2T      0.039200
     51 H431        2.2960    3.8840  -12.2530 hc        1 A2T      0.033367
     52 H432        0.6740    3.3000  -12.8110 hc        1 A2T      0.033367
     53 H433        0.8050    4.8240  -11.8410 hc        1 A2T      0.033367
     54 H30         3.6010    1.1420   -6.5590 ha        1 A2T      0.137500
     55 H26         3.4340   -0.1970   -4.4630 ha        1 A2T      0.142500
     56 H21         0.5250   -2.4050   -1.1410 h1        1 A2T      0.045700
     57 H251       -0.4420   -0.3480   -0.0570 hc        1 A2T      0.065950
     58 H252        1.2180    0.1390    0.4990 hc        1 A2T      0.065950
     59 H291        0.0320   -1.0220    2.3080 h1        1 A2T      0.028200
     60 H292       -0.4090   -2.4090    1.2140 h1        1 A2T      0.028200
     61 H341        2.4400   -3.6530    3.2380 h1        1 A2T      0.030200
     62 H342        0.7380   -4.0530    2.7280 h1        1 A2T      0.030200
     63 H361       -0.1860   -2.2630    4.1010 hc        1 A2T      0.047700
     64 H362        1.4500   -1.5650    4.4410 hc        1 A2T      0.047700
     65 H38         0.4460   -2.8660    6.3160 hc        1 A2T      0.044700
     66 H411        3.0320   -4.1590    5.2140 hc        1 A2T      0.033533
     67 H412        2.9290   -2.5620    6.0630 hc        1 A2T      0.033533
     68 H413        2.4740   -4.0880    6.9330 hc        1 A2T      0.033533
     69 H401       -0.6800   -4.6310    4.8940 hc        1 A2T      0.033533
     70 H402        0.3030   -5.3010    6.2630 hc        1 A2T      0.033533
     71 H403        0.9430   -5.3720    4.5720 hc        1 A2T      0.033533
     72 H281        1.8000   -3.8950    0.4500 h1        1 A2T      0.028200
     73 H282        3.3460   -3.2640    1.1750 h1        1 A2T      0.028200
     74 H241        3.2290   -1.2090   -0.1830 hc        1 A2T      0.065950
     75 H242        3.0390   -2.6750   -1.2380 hc        1 A2T      0.065950
     76 H181        0.7080   -2.3390   -3.4080 h1        1 A2T      0.061200
     77 H182        0.8260   -0.7180   -4.2250 h1        1 A2T      0.061200
     78 H15        -0.9010    1.0880   -3.5130 ha        1 A2T      0.139000
     79 H13        -3.3560    1.4120   -3.3390 ha        1 A2T      0.143500
     80 H16        -1.3780   -3.1300   -2.7020 ha        1 A2T      0.139000
     81 H14        -3.8250   -2.8350   -2.5180 ha        1 A2T      0.143500
     82 H451       -6.4210   -2.2410   -2.7750 h1        1 A2T      0.044700
     83 H452       -5.3580   -2.0890   -4.2550 h1        1 A2T      0.044700
     84 H453       -6.8220   -1.0190   -4.0740 h1        1 A2T      0.044700
     85 H2         -3.8760    0.9640   -0.9590 ha        1 A2T      0.147000
     86 H8         -7.8480   -0.2410   -2.3420 ha        1 A2T      0.147000
     87 H9         -8.7910    1.2030   -0.5470 h4        1 A2T      0.020100
     88 H3         -5.0240    2.3550    0.7680 h4        1 A2T      0.020100
@<TRIPOS>BOND
     1    1    2 2   
     2    2    3 1   
     3    2   14 1   
     4    3    4 ar  
     5    3   13 ar  
     6    4    5 ar  
     7    4   41 1   
     8    5    6 ar  
     9    5   42 1   
    10    6    7 1   
    11    6   12 ar  
    12    7    8 1   
    13    7   43 1   
    14    7   44 1   
    15    8    9 1   
    16    8   45 1   
    17    8   46 1   
    18    9   10 1   
    19    9   47 1   
    20    9   48 1   
    21   10   11 1   
    22   10   49 1   
    23   10   50 1   
    24   11   51 1   
    25   11   52 1   
    26   11   53 1   
    27   12   13 ar  
    28   12   54 1   
    29   13   55 1   
    30   14   15 1   
    31   14   26 1   
    32   15   16 1   
    33   15   25 1   
    34   15   56 1   
    35   16   17 1   
    36   16   57 1   
    37   16   58 1   
    38   17   18 1   
    39   17   59 1   
    40   17   60 1   
    41   18   19 1   
    42   18   24 1   
    43   19   20 1   
    44   19   61 1   
    45   19   62 1   
    46   20   21 1   
    47   20   63 1   
    48   20   64 1   
    49   21   22 1   
    50   21   23 1   
    51   21   65 1   
    52   22   66 1   
    53   22   67 1   
    54   22   68 1   
    55   23   69 1   
    56   23   70 1   
    57   23   71 1   
    58   24   25 1   
    59   24   72 1   
    60   24   73 1   
    61   25   74 1   
    62   25   75 1   
    63   26   27 1   
    64   26   76 1   
    65   26   77 1   
    66   27   28 ar  
    67   27   30 ar  
    68   28   29 ar  
    69   28   78 1   
    70   29   32 ar  
    71   29   79 1   
    72   30   31 ar  
    73   30   80 1   
    74   31   32 ar  
    75   31   81 1   
    76   32   33 1   
    77   33   34 1   
    78   33   35 1   
    79   34   82 1   
    80   34   83 1   
    81   34   84 1   
    82   35   36 ar  
    83   35   37 ar  
    84   36   40 ar  
    85   36   85 1   
    86   37   38 ar  
    87   37   86 1   
    88   38   39 ar  
    89   38   87 1   
    90   39   40 ar  
    91   40   88 1   
@<TRIPOS>SUBSTRUCTURE
     1 A2T         1 TEMP              0 ****  ****    0 ROOT
