@<TRIPOS>MOLECULE
A2T
   90    93     1     0     0
SMALL
bcc


@<TRIPOS>ATOM
      1 O22         4.4140    2.6160   -0.5020 o         1 A2T     -0.461100
      2 C20         4.1870    1.4220   -0.3550 c         1 A2T      0.595700
      3 C23         3.7350    0.7380    0.8540 ca        1 A2T     -0.229600
      4 C27         2.8150    1.4200    1.6710 ca        1 A2T     -0.064000
      5 C31         2.3720    0.8380    2.8540 ca        1 A2T     -0.128000
      6 C33         2.8480   -0.4190    3.2530 ca        1 A2T      0.026700
      7 C35         2.3770   -1.0450    4.5170 c3        1 A2T     -0.067100
      8 C37         3.4700   -1.0770    5.5710 c3        1 A2T     -0.074400
      9 C39         2.9780   -1.7580    6.8310 c3        1 A2T     -0.082400
     10 C42         4.0600   -1.7890    7.8910 c3        1 A2T     -0.078400
     11 C43         3.5770   -2.4670    9.1470 c3        1 A2T     -0.096100
     12 C30         3.7830   -1.0850    2.4400 ca        1 A2T     -0.128000
     13 C26         4.2240   -0.5170    1.2530 ca        1 A2T     -0.064000
     14 N19         4.3900    0.5390   -1.5900 n4        1 A2T     -0.604200
     15 C21         3.1210    0.4430   -2.4180 c3        1 A2T      0.136500
     16 C25         2.2460    1.6940   -2.3230 c3        1 A2T     -0.102400
     17 C29         1.0100    1.5200   -3.2110 c3        1 A2T      0.174300
     18 N32         0.2450    0.3350   -2.8670 n3        1 A2T     -0.737600
     19 C34        -1.0010    0.1960   -3.6150 c3        1 A2T      0.169800
     20 C36        -1.9810    1.3490   -3.4140 c3        1 A2T     -0.075400
     21 C38        -3.3730    1.0220   -3.9360 c3        1 A2T     -0.068700
     22 C41        -4.0760   -0.0090   -3.0780 c3        1 A2T     -0.094100
     23 C40        -3.3500    0.5860   -5.3850 c3        1 A2T     -0.094100
     24 C28         1.0520   -0.8730   -2.9160 c3        1 A2T      0.174300
     25 C24         2.2940   -0.7880   -2.0240 c3        1 A2T     -0.102400
     26 C18         5.6040    0.9250   -2.3790 c3        1 A2T      0.162100
     27 C17         5.4330    1.9050   -3.4990 ca        1 A2T     -0.094300
     28 C15         5.4140    3.2820   -3.2500 ca        1 A2T     -0.082500
     29 C13         5.4090    4.1950   -4.3040 ca        1 A2T     -0.099000
     30 C16         5.4250    1.4460   -4.8230 ca        1 A2T     -0.082500
     31 C14         5.4220    2.3440   -5.8880 ca        1 A2T     -0.099000
     32 C12         5.4270    3.7260   -5.6270 ca        1 A2T     -0.004400
     33 N44         5.4730    4.6730   -6.7610 n4        1 A2T     -0.435200
     34 C45         6.8180    5.3140   -6.8610 c3        1 A2T      0.094100
     35 C4          4.3820    5.6670   -6.6980 ca        1 A2T      0.001600
     36 C2          3.1720    5.3900   -7.3590 ca        1 A2T     -0.235300
     37 C8          4.5360    6.8840   -6.0150 ca        1 A2T     -0.235300
     38 C9          3.4480    7.7820   -6.0250 ca        1 A2T      0.440700
     39 N6          2.2820    7.5350   -6.6470 nb        1 A2T     -0.597000
     40 C3          2.1560    6.3660   -7.3000 ca        1 A2T      0.440700
     41 H27         2.4480    2.4160    1.3720 ha        1 A2T      0.143000
     42 H31         1.6460    1.3760    3.4870 ha        1 A2T      0.172000
     43 H351        2.0390   -2.0960    4.3010 hc        1 A2T      0.073700
     44 H352        1.4900   -0.4860    4.9190 hc        1 A2T      0.073700
     45 H371        3.7950   -0.0300    5.8110 hc        1 A2T      0.046700
     46 H372        4.3650   -1.6220    5.1710 hc        1 A2T      0.046700
     47 H391        2.6550   -2.8050    6.5930 hc        1 A2T      0.048200
     48 H392        2.0800   -1.2150    7.2280 hc        1 A2T      0.048200
     49 H421        4.9590   -2.3290    7.4920 hc        1 A2T      0.040700
     50 H422        4.3820   -0.7410    8.1280 hc        1 A2T      0.040700
     51 H431        4.3880   -2.4800    9.9140 hc        1 A2T      0.041367
     52 H432        3.2740   -3.5220    8.9360 hc        1 A2T      0.041367
     53 H433        2.6960   -1.9280    9.5730 hc        1 A2T      0.041367
     54 H30         4.1750   -2.0650    2.7610 ha        1 A2T      0.172000
     55 H26         4.9880   -1.0520    0.6670 ha        1 A2T      0.143000
     56 H21         3.4570    0.3170   -3.4930 hx        1 A2T      0.088700
     57 H251        1.9180    1.8630   -1.2620 hc        1 A2T      0.072450
     58 H252        2.8170    2.5970   -2.6610 hc        1 A2T      0.072450
     59 H291        0.3460    2.4180   -3.0560 h1        1 A2T      0.052950
     60 H292        1.3420    1.5160   -4.2910 h1        1 A2T      0.052950
     61 H341       -1.4910   -0.7550   -3.2580 h1        1 A2T      0.048700
     62 H342       -0.7960    0.0830   -4.7210 h1        1 A2T      0.048700
     63 H361       -2.0560    1.6050   -2.3240 hc        1 A2T      0.044200
     64 H362       -1.6040    2.2580   -3.9540 hc        1 A2T      0.044200
     65 H38        -3.9680    1.9810   -3.8730 hc        1 A2T      0.059700
     66 H411       -4.0550    0.2950   -2.0040 hc        1 A2T      0.039200
     67 H412       -3.5940   -1.0120   -3.1740 hc        1 A2T      0.039200
     68 H413       -5.1420   -0.1060   -3.3980 hc        1 A2T      0.039200
     69 H401       -2.7750    1.3150   -6.0060 hc        1 A2T      0.039200
     70 H402       -4.3930    0.5260   -5.7820 hc        1 A2T      0.039200
     71 H403       -2.8800   -0.4220   -5.4920 hc        1 A2T      0.039200
     72 H281        0.4190   -1.7300   -2.5460 h1        1 A2T      0.052950
     73 H282        1.3840   -1.1200   -3.9680 h1        1 A2T      0.052950
     74 H241        1.9830   -0.7190   -0.9490 hc        1 A2T      0.072450
     75 H242        2.8870   -1.7290   -2.1640 hc        1 A2T      0.072450
     76 H181        6.3530    1.3530   -1.6450 hx        1 A2T      0.112200
     77 H182        6.0320   -0.0330   -2.8040 hx        1 A2T      0.112200
     78 H15         5.4110    3.6620   -2.2110 ha        1 A2T      0.181000
     79 H13         5.3920    5.2760   -4.0810 ha        1 A2T      0.172000
     80 H16         5.4410    0.3630   -5.0410 ha        1 A2T      0.181000
     81 H14         5.4270    1.9480   -6.9190 ha        1 A2T      0.172000
     82 H451        7.5720    4.5260   -7.1310 hx        1 A2T      0.112033
     83 H452        6.7860    6.1070   -7.6560 hx        1 A2T      0.112033
     84 H453        7.0980    5.7720   -5.8760 hx        1 A2T      0.112033
     85 H2          2.9960    4.4600   -7.9180 ha        1 A2T      0.167000
     86 H8          5.4620    7.1660   -5.4940 ha        1 A2T      0.167000
     87 H9          3.5250    8.7600   -5.5060 h4        1 A2T      0.069600
     88 H3          1.1860    6.1970   -7.8130 h4        1 A2T      0.069600
     89 H191        4.5720   -0.4130   -1.2350 hn        1 A2T      0.455800
     90 H441        5.3250    4.1270   -7.6280 hn        1 A2T      0.462800
@<TRIPOS>BOND
     1    1    2 2   
     2    2    3 1   
     3    2   14 1   
     4    3    4 ar  
     5    3   13 ar  
     6    4    5 ar  
     7    4   41 1   
     8    5    6 ar  
     9    5   42 1   
    10    6    7 1   
    11    6   12 ar  
    12    7    8 1   
    13    7   43 1   
    14    7   44 1   
    15    8    9 1   
    16    8   45 1   
    17    8   46 1   
    18    9   10 1   
    19    9   47 1   
    20    9   48 1   
    21   10   11 1   
    22   10   49 1   
    23   10   50 1   
    24   11   51 1   
    25   11   52 1   
    26   11   53 1   
    27   12   13 ar  
    28   12   54 1   
    29   13   55 1   
    30   14   15 1   
    31   14   26 1   
    32   14   89 1   
    33   15   16 1   
    34   15   25 1   
    35   15   56 1   
    36   16   17 1   
    37   16   57 1   
    38   16   58 1   
    39   17   18 1   
    40   17   59 1   
    41   17   60 1   
    42   18   19 1   
    43   18   24 1   
    44   19   20 1   
    45   19   61 1   
    46   19   62 1   
    47   20   21 1   
    48   20   63 1   
    49   20   64 1   
    50   21   22 1   
    51   21   23 1   
    52   21   65 1   
    53   22   66 1   
    54   22   67 1   
    55   22   68 1   
    56   23   69 1   
    57   23   70 1   
    58   23   71 1   
    59   24   25 1   
    60   24   72 1   
    61   24   73 1   
    62   25   74 1   
    63   25   75 1   
    64   26   27 1   
    65   26   76 1   
    66   26   77 1   
    67   27   28 ar  
    68   27   30 ar  
    69   28   29 ar  
    70   28   78 1   
    71   29   32 ar  
    72   29   79 1   
    73   30   31 ar  
    74   30   80 1   
    75   31   32 ar  
    76   31   81 1   
    77   32   33 1   
    78   33   34 1   
    79   33   35 1   
    80   33   90 1   
    81   34   82 1   
    82   34   83 1   
    83   34   84 1   
    84   35   36 ar  
    85   35   37 ar  
    86   36   40 ar  
    87   36   85 1   
    88   37   38 ar  
    89   37   86 1   
    90   38   39 ar  
    91   38   87 1   
    92   39   40 ar  
    93   40   88 1   
@<TRIPOS>SUBSTRUCTURE
     1 A2T         1 TEMP              0 ****  ****    0 ROOT
