@<TRIPOS>MOLECULE
A2T
   89    92     1     0     0
SMALL
bcc


@<TRIPOS>ATOM
      1 O22         0.8410    1.5010   -0.7480 o         1 A2T     -0.427100
      2 C20         1.6690    0.6640   -0.4120 c         1 A2T      0.570700
      3 C23         2.2510    0.5380    0.9350 ca        1 A2T     -0.212600
      4 C27         2.2840    1.7090    1.7140 ca        1 A2T     -0.072000
      5 C31         2.7920    1.6730    3.0090 ca        1 A2T     -0.129500
      6 C33         3.2640    0.4740    3.5550 ca        1 A2T      0.005700
      7 C35         3.7940    0.4260    4.9440 c3        1 A2T     -0.061100
      8 C37         5.2920    0.1820    4.9690 c3        1 A2T     -0.074400
      9 C39         5.7980    0.0940    6.3930 c3        1 A2T     -0.081400
     10 C42         7.2930   -0.1440    6.4280 c3        1 A2T     -0.078400
     11 C43         7.8020   -0.2330    7.8430 c3        1 A2T     -0.095100
     12 C30         3.2150   -0.6950    2.7780 ca        1 A2T     -0.129500
     13 C26         2.7150   -0.6670    1.4820 ca        1 A2T     -0.072000
     14 N19         2.1540   -0.3320   -1.4450 n4        1 A2T     -0.591200
     15 C21         1.2770   -0.5120   -2.6640 c3        1 A2T      0.141500
     16 C25         1.0240    0.7390   -3.5060 c3        1 A2T     -0.102900
     17 C29         0.2230    0.3430   -4.7500 c3        1 A2T      0.171800
     18 N32        -1.0330   -0.3150   -4.4300 n3        1 A2T     -0.734600
     19 C34        -1.8330   -0.6480   -5.6040 c3        1 A2T      0.170800
     20 C36        -2.2360    0.5610   -6.4440 c3        1 A2T     -0.076400
     21 C38        -3.3220    0.2280   -7.4580 c3        1 A2T     -0.067700
     22 C41        -4.6600   -0.0240   -6.7970 c3        1 A2T     -0.092600
     23 C40        -2.9350   -0.9370   -8.3440 c3        1 A2T     -0.092600
     24 C28        -0.8520   -1.4640   -3.5560 c3        1 A2T      0.171800
     25 C24        -0.0760   -1.1270   -2.2810 c3        1 A2T     -0.102900
     26 C18         3.6140   -0.1190   -1.7680 c3        1 A2T      0.201100
     27 C17         3.9910    1.1910   -2.3500 ca        1 A2T     -0.232300
     28 C15         4.0240    2.3500   -1.5620 ca        1 A2T     -0.053500
     29 C13         4.4670    3.5540   -2.0770 ca        1 A2T     -0.201500
     30 C16         4.4330    1.2690   -3.6770 ca        1 A2T     -0.053500
     31 C14         4.8870    2.4640   -4.2120 ca        1 A2T     -0.201500
     32 C12         4.9150    3.6490   -3.4250 ca        1 A2T      0.244600
     33 N44         5.3950    4.8400   -3.9470 nh        1 A2T     -0.563400
     34 C45         6.0120    4.8690   -5.2480 c3        1 A2T      0.201100
     35 C4          5.2220    6.0710   -3.2650 ca        1 A2T      0.164600
     36 C2          3.9570    6.4850   -2.7960 ca        1 A2T     -0.265800
     37 C8          6.3190    6.9370   -3.0620 ca        1 A2T     -0.265800
     38 C9          6.0950    8.1590   -2.4060 ca        1 A2T      0.412700
     39 N6          4.8930    8.5600   -1.9510 nb        1 A2T     -0.653000
     40 C3          3.8540    7.7290   -2.1500 ca        1 A2T      0.412700
     41 H27         1.8980    2.6540    1.2950 ha        1 A2T      0.144000
     42 H31         2.8150    2.5980    3.6090 ha        1 A2T      0.163000
     43 H351        3.5650    1.3870    5.4790 hc        1 A2T      0.069700
     44 H352        3.2730   -0.3980    5.5060 hc        1 A2T      0.069700
     45 H371        5.8190    1.0140    4.4330 hc        1 A2T      0.044200
     46 H372        5.5280   -0.7700    4.4240 hc        1 A2T      0.044200
     47 H391        5.2730   -0.7390    6.9300 hc        1 A2T      0.046700
     48 H392        5.5560    1.0440    6.9390 hc        1 A2T      0.046700
     49 H421        7.8170    0.6910    5.8910 hc        1 A2T      0.039700
     50 H422        7.5340   -1.0930    5.8800 hc        1 A2T      0.039700
     51 H431        7.3100   -1.0750    8.3880 hc        1 A2T      0.039033
     52 H432        7.5940    0.7130    8.3990 hc        1 A2T      0.039033
     53 H433        8.9050   -0.4090    7.8470 hc        1 A2T      0.039033
     54 H30         3.5730   -1.6450    3.2070 ha        1 A2T      0.163000
     55 H26         2.6740   -1.6150    0.9230 ha        1 A2T      0.144000
     56 H21         1.8410   -1.2560   -3.3080 hx        1 A2T      0.082700
     57 H251        0.4500    1.5040   -2.9210 hc        1 A2T      0.077950
     58 H252        1.9910    1.1980   -3.8360 hc        1 A2T      0.077950
     59 H291        0.8770   -0.2960   -5.4150 h1        1 A2T      0.048950
     60 H292       -0.0210    1.2890   -5.3130 h1        1 A2T      0.048950
     61 H341       -2.7700   -1.1530   -5.2300 h1        1 A2T      0.042700
     62 H342       -1.2900   -1.3840   -6.2690 h1        1 A2T      0.042700
     63 H361       -2.6040    1.3860   -5.7790 hc        1 A2T      0.047200
     64 H362       -1.3390    0.9440   -6.9990 hc        1 A2T      0.047200
     65 H38        -3.4320    1.1400   -8.1160 hc        1 A2T      0.054700
     66 H411       -4.9240    0.8190   -6.1140 hc        1 A2T      0.037033
     67 H412       -4.6460   -0.9700   -6.2040 hc        1 A2T      0.037033
     68 H413       -5.4570   -0.1130   -7.5740 hc        1 A2T      0.037033
     69 H401       -2.9300   -1.8930   -7.7660 hc        1 A2T      0.037033
     70 H402       -1.9190   -0.7780   -8.7790 hc        1 A2T      0.037033
     71 H403       -3.6680   -1.0400   -9.1810 hc        1 A2T      0.037033
     72 H281       -0.3240   -2.3150   -4.0810 h1        1 A2T      0.048950
     73 H282       -1.8750   -1.8300   -3.2530 h1        1 A2T      0.048950
     74 H241       -0.6630   -0.4000   -1.6590 hc        1 A2T      0.077950
     75 H242        0.0580   -2.0730   -1.6960 hc        1 A2T      0.077950
     76 H181        3.9080   -0.9530   -2.4710 hx        1 A2T      0.092700
     77 H182        4.1600   -0.2590   -0.7860 hx        1 A2T      0.092700
     78 H15         3.6970    2.3030   -0.5090 ha        1 A2T      0.131000
     79 H13         4.4870    4.4430   -1.4250 ha        1 A2T      0.156500
     80 H16         4.4310    0.3680   -4.3120 ha        1 A2T      0.131000
     81 H14         5.2300    2.4780   -5.2580 ha        1 A2T      0.156500
     82 H451        6.8520    4.1240   -5.2910 h1        1 A2T      0.055700
     83 H452        6.4210    5.8930   -5.4530 h1        1 A2T      0.055700
     84 H453        5.2580    4.6170   -6.0430 h1        1 A2T      0.055700
     85 H2          3.0630    5.8610   -2.9320 ha        1 A2T      0.153500
     86 H8          7.3300    6.6760   -3.4040 ha        1 A2T      0.153500
     87 H9          6.9330    8.8610   -2.2330 h4        1 A2T      0.035100
     88 H3          2.8760    8.0840   -1.7760 h4        1 A2T      0.035100
     89 H191        2.1120   -1.2470   -0.9690 hn        1 A2T      0.435800
@<TRIPOS>BOND
     1    1    2 2   
     2    2    3 1   
     3    2   14 1   
     4    3    4 ar  
     5    3   13 ar  
     6    4    5 ar  
     7    4   41 1   
     8    5    6 ar  
     9    5   42 1   
    10    6    7 1   
    11    6   12 ar  
    12    7    8 1   
    13    7   43 1   
    14    7   44 1   
    15    8    9 1   
    16    8   45 1   
    17    8   46 1   
    18    9   10 1   
    19    9   47 1   
    20    9   48 1   
    21   10   11 1   
    22   10   49 1   
    23   10   50 1   
    24   11   51 1   
    25   11   52 1   
    26   11   53 1   
    27   12   13 ar  
    28   12   54 1   
    29   13   55 1   
    30   14   15 1   
    31   14   26 1   
    32   14   89 1   
    33   15   16 1   
    34   15   25 1   
    35   15   56 1   
    36   16   17 1   
    37   16   57 1   
    38   16   58 1   
    39   17   18 1   
    40   17   59 1   
    41   17   60 1   
    42   18   19 1   
    43   18   24 1   
    44   19   20 1   
    45   19   61 1   
    46   19   62 1   
    47   20   21 1   
    48   20   63 1   
    49   20   64 1   
    50   21   22 1   
    51   21   23 1   
    52   21   65 1   
    53   22   66 1   
    54   22   67 1   
    55   22   68 1   
    56   23   69 1   
    57   23   70 1   
    58   23   71 1   
    59   24   25 1   
    60   24   72 1   
    61   24   73 1   
    62   25   74 1   
    63   25   75 1   
    64   26   27 1   
    65   26   76 1   
    66   26   77 1   
    67   27   28 ar  
    68   27   30 ar  
    69   28   29 ar  
    70   28   78 1   
    71   29   32 ar  
    72   29   79 1   
    73   30   31 ar  
    74   30   80 1   
    75   31   32 ar  
    76   31   81 1   
    77   32   33 1   
    78   33   34 1   
    79   33   35 1   
    80   34   82 1   
    81   34   83 1   
    82   34   84 1   
    83   35   36 ar  
    84   35   37 ar  
    85   36   40 ar  
    86   36   85 1   
    87   37   38 ar  
    88   37   86 1   
    89   38   39 ar  
    90   38   87 1   
    91   39   40 ar  
    92   40   88 1   
@<TRIPOS>SUBSTRUCTURE
     1 A2T         1 TEMP              0 ****  ****    0 ROOT
