@<TRIPOS>MOLECULE
A2Y
   45    49     1     0     0
SMALL
bcc


@<TRIPOS>ATOM
      1 O           2.7790   -0.4180   -1.3640 os        1 A2Y     -0.077100
      2 S           5.4500    0.0800    1.5970 ss        1 A2Y      0.112200
      3 C1          6.9600   -0.2270    0.9940 cc        1 A2Y     -0.138100
      4 N1          1.4770   -0.2890   -1.3830 nc        1 A2Y     -0.383300
      5 C2          6.9320   -0.5720   -0.3470 cd        1 A2Y     -0.161000
      6 N2         -1.3430   -0.0780   -0.7840 n4        1 A2Y     -0.763000
      7 C3          5.6060   -0.5720   -0.8550 cd        1 A2Y     -0.073000
      8 C4          2.1880    0.1820    0.7430 cd        1 A2Y     -0.375600
      9 C9          1.0490    0.0700   -0.1490 cd        1 A2Y      0.248600
     10 C10        -2.8050    0.0370   -0.3610 c3        1 A2Y      0.143200
     11 C11         3.2810   -0.1330   -0.0600 cc        1 A2Y      0.433200
     12 C12         4.6790   -0.2240    0.1300 cc        1 A2Y     -0.260600
     13 C61        -3.6770   -0.2160   -1.6140 c3        1 A2Y     -0.089400
     14 C62        -3.1120    1.4410    0.1920 c3        1 A2Y     -0.089400
     15 C63        -3.1420   -1.0220    0.7080 c3        1 A2Y     -0.089400
     16 C71        -5.1500   -0.1190   -1.2300 c3        1 A2Y     -0.058367
     17 C72        -4.5940    1.5220    0.5540 c3        1 A2Y     -0.058367
     18 C73        -4.6220   -0.9140    1.0670 c3        1 A2Y     -0.058367
     19 C81        -5.4440    1.2740   -0.6860 c3        1 A2Y     -0.083400
     20 C82        -4.9160    0.4770    1.6160 c3        1 A2Y     -0.083400
     21 C83        -5.4720   -1.1670   -0.1720 c3        1 A2Y     -0.083400
     22 H44         2.1710    0.4540    1.7930 ha        1 A2Y      0.190000
     23 H1          7.8660   -0.1600    1.6000 h4        1 A2Y      0.192000
     24 H2          7.8100   -0.8160   -0.9510 ha        1 A2Y      0.176000
     25 H3          5.3460   -0.8130   -1.8900 ha        1 A2Y      0.174000
     26 H15        -0.4810    1.4440    0.4430 hx        1 A2Y      0.117700
     27 H25        -0.5810   -0.2240    1.2090 hx        1 A2Y      0.117700
     28 H161       -3.4510    0.5460   -2.4050 hc        1 A2Y      0.061700
     29 H261       -3.4700   -1.2370   -2.0300 hc        1 A2Y      0.061700
     30 H362       -2.5050    1.6390    1.1140 hc        1 A2Y      0.061700
     31 H462       -2.8700    2.2230   -0.5740 hc        1 A2Y      0.061700
     32 H563       -2.9280   -2.0510    0.3160 hc        1 A2Y      0.061700
     33 H663       -2.5290   -0.8560    1.6310 hc        1 A2Y      0.061700
     34 H171       -5.7720   -0.3050   -2.1480 hc        1 A2Y      0.084033
     35 H272       -4.8060    2.5490    0.9580 hc        1 A2Y      0.084033
     36 H373       -4.8560   -1.6860    1.8490 hc        1 A2Y      0.084033
     37 H181       -5.2230    2.0470   -1.4660 hc        1 A2Y      0.065367
     38 H281       -6.5300    1.3540   -0.4210 hc        1 A2Y      0.065367
     39 H382       -4.3080    0.6640    2.5380 hc        1 A2Y      0.065367
     40 H482       -5.9980    0.5490    1.9000 hc        1 A2Y      0.065367
     41 H583       -6.5590   -1.1090    0.0980 hc        1 A2Y      0.065367
     42 H683       -5.2740   -2.1940   -0.5730 hc        1 A2Y      0.065367
     43 H1N2       -1.2060    0.5010   -1.6210 hn        1 A2Y      0.455800
     44 H2N2       -1.1690   -1.0570   -1.0440 hn        1 A2Y      0.455800
     45 C5         -0.3570    0.3360    0.2540 c3        1 A2Y      0.093500
@<TRIPOS>BOND
     1    1    4 1   
     2    1   11 1   
     3    2    3 1   
     4    2   12 1   
     5    3    5 2   
     6    3   23 1   
     7    4    9 2   
     8    5    7 1   
     9    5   24 1   
    10    6   10 1   
    11    6   43 1   
    12    6   44 1   
    13    6   45 1   
    14    7   12 2   
    15    7   25 1   
    16    8    9 1   
    17    8   11 2   
    18    8   22 1   
    19    9   45 1   
    20   10   13 1   
    21   10   14 1   
    22   10   15 1   
    23   11   12 1   
    24   13   16 1   
    25   13   28 1   
    26   13   29 1   
    27   14   17 1   
    28   14   30 1   
    29   14   31 1   
    30   15   18 1   
    31   15   32 1   
    32   15   33 1   
    33   16   19 1   
    34   16   21 1   
    35   16   34 1   
    36   17   19 1   
    37   17   20 1   
    38   17   35 1   
    39   18   20 1   
    40   18   21 1   
    41   18   36 1   
    42   19   37 1   
    43   19   38 1   
    44   20   39 1   
    45   20   40 1   
    46   21   41 1   
    47   21   42 1   
    48   26   45 1   
    49   27   45 1   
@<TRIPOS>SUBSTRUCTURE
     1 A2Y         1 TEMP              0 ****  ****    0 ROOT
