@<TRIPOS>MOLECULE
A2Y
   45    62     1     0     0
SMALL
bcc


@<TRIPOS>ATOM
      1 O           0.0000    0.0000    0.0000 os        1 A2Y      0.148000
      2 S          -2.5020    0.0020    3.3030 s4        1 A2Y      0.840000
      3 C1         -4.1680    0.0010    2.7390 c3        1 A2Y      0.230000
      4 N1          1.2090    0.0000    0.0000 n2        1 A2Y      0.056000
      5 C2         -4.1970    0.0000    1.4010 c3        1 A2Y     -0.316000
      6 N2          3.6590   -1.3800    1.5980 ny        1 A2Y      0.886000
      7 C3         -2.9640   -0.0000    0.7880 c2        1 A2Y      0.013000
      8 C4          0.5980    0.0000    2.0890 c2        1 A2Y     -0.208000
      9 C9          1.6980    0.0000    1.2090 c3        1 A2Y     -0.143000
     10 C10         5.0800   -1.3820    1.9690 DU        1 A2Y     -0.115000
     11 C11        -0.4910   -0.0000    1.2540 c2        1 A2Y      0.092000
     12 C12        -1.9070    0.0010    1.6480 c2        1 A2Y     -0.322000
     13 C61         5.6040   -2.8190    1.9770 DU        1 A2Y     -0.258000
     14 C62         5.2430   -0.7720    3.3640 c3        1 A2Y     -0.171000
     15 C63         5.8730   -0.5540    0.9560 c3        1 A2Y     -0.422000
     16 C71         7.0840   -2.8200    2.3650 c3        1 A2Y     -0.515000
     17 C72         6.7230   -0.7730    3.7520 DU        1 A2Y     -0.259000
     18 C73         7.3530   -0.5550    1.3430 DU        1 A2Y      0.105000
     19 C81         7.2480   -2.2100    3.7590 DU        1 A2Y      0.282000
     20 C82         7.5160    0.0540    2.7380 DU        1 A2Y      0.055000
     21 C83         7.8780   -1.9920    1.3510 DU        1 A2Y     -0.030000
     22 H44         1.5750   -0.4410    1.9320 DU        1 A2Y      0.231000
     23 H1         -3.0900    0.0000    2.8400 DU        1 A2Y     -0.648000
     24 H2         -4.6440    0.0010    2.3880 DU        1 A2Y      0.162000
     25 H3         -4.0460   -0.0010    0.8220 DU        1 A2Y      0.168000
     26 H15         2.1270   -0.0000    1.2510 hx        1 A2Y     -0.226000
     27 H25         3.2210   -1.0820    1.6060 hx        1 A2Y     -0.226000
     28 H161        5.1970   -2.0400    1.3440 DU        1 A2Y      0.181000
     29 H261        5.0280   -3.4430    2.6490 ha        1 A2Y      0.162000
     30 H362        5.3150   -1.5100    2.5730 DU        1 A2Y     -0.172000
     31 H462        4.6960   -1.3750    4.0790 hc        1 A2Y      0.094000
     32 H563        5.4650   -0.2170    1.9010 hc        1 A2Y      0.226000
     33 H663        5.4990    0.4620    0.9340 hc        1 A2Y      0.226000
     34 H171        6.6540   -2.2580    1.5450 DU        1 A2Y      0.370000
     35 H272        6.9560   -1.7410    3.3250 DU        1 A2Y     -0.011000
     36 H373        7.1980   -0.4800    2.4130 DU        1 A2Y     -0.160000
     37 H181        7.4340   -1.5890    2.8910 DU        1 A2Y     -0.065000
     38 H281        6.6660   -2.7910    4.4650 ha        1 A2Y      0.141000
     39 H382        7.9050   -0.8110    3.2630 DU        1 A2Y      0.093000
     40 H482        8.5650    0.0700    3.0100 ha        1 A2Y      0.178000
     41 H583        7.6360   -1.0210    1.7670 DU        1 A2Y     -0.074000
     42 H683        8.9310   -2.0000    1.6040 ha        1 A2Y      0.144000
     43 H1N2        4.5840   -1.6230    1.3020 hn        1 A2Y      0.092500
     44 H2N2        3.1480   -1.9070    2.2790 hn        1 A2Y      0.092500
     45 C5          3.1550   -0.0000    1.5900 c3        1 A2Y      0.071000
@<TRIPOS>BOND
     1    1    4 1   
     2    1   11 1   
     3    2    3 1   
     4    2   12 1   
     5    2   23 1   
     6    3    5 1   
     7    3   23 1   
     8    3   24 1   
     9    4    9 1   
    10    5    7 1   
    11    5   24 1   
    12    5   25 1   
    13    6   10 1   
    14    6   43 1   
    15    6   44 1   
    16    6   45 1   
    17    7   12 1   
    18    7   25 1   
    19    8    9 1   
    20    8   11 1   
    21    8   22 1   
    22    9   22 1   
    23    9   45 1   
    24   10   13 1   
    25   10   14 1   
    26   10   15 1   
    27   10   28 1   
    28   10   30 1   
    29   11   12 1   
    30   13   16 1   
    31   13   28 1   
    32   13   29 1   
    33   13   34 1   
    34   14   17 1   
    35   14   30 1   
    36   14   31 1   
    37   15   18 1   
    38   15   32 1   
    39   15   33 1   
    40   16   19 1   
    41   16   21 1   
    42   16   34 1   
    43   17   19 1   
    44   17   20 1   
    45   17   35 1   
    46   17   39 1   
    47   18   20 1   
    48   18   21 1   
    49   18   36 1   
    50   18   41 1   
    51   19   35 1   
    52   19   37 1   
    53   19   38 1   
    54   20   36 1   
    55   20   39 1   
    56   20   40 1   
    57   21   34 1   
    58   21   41 1   
    59   21   42 1   
    60   26   45 1   
    61   27   45 1   
    62   35   37 1   
@<TRIPOS>SUBSTRUCTURE
     1 A2Y         1 TEMP              0 ****  ****    0 ROOT
