@<TRIPOS>MOLECULE
A2Z
   27    27     1     0     0
SMALL
bcc


@<TRIPOS>ATOM
      1 C1         -0.5960   -0.9730    0.9330 c2        1 A2Z     -0.104000
      2 N1          2.9940   -0.0460    1.4960 n3        1 A2Z     -0.227000
      3 O1         -0.8180    0.0990    4.4440 os        1 A2Z      0.001000
      4 C2          0.8800   -1.2540    0.9040 c3        1 A2Z     -0.116000
      5 O2          1.6500    1.4610    3.4840 oh        1 A2Z     -0.268000
      6 C3          1.6290   -0.1980    1.7200 c2        1 A2Z      0.076000
      7 C4          0.9940    0.5090    2.7320 c2        1 A2Z     -0.130000
      8 C5         -0.3400    0.0520    3.1200 c2        1 A2Z      0.000000
      9 C6         -1.0000   -0.4990    2.0990 c1        1 A2Z     -0.171000
     10 C8          3.5590   -0.3150    0.2450 c2        1 A2Z     -0.111000
     11 C9          3.2360    0.3020   -0.9640 c1        1 A2Z     -0.110000
     12 C10         2.9700    0.8540   -1.9960 c1        1 A2Z     -0.139000
     13 C12        -0.0710    0.1800    5.4730 c1        1 A2Z     -0.021000
     14 C15         2.6490    1.5170   -3.2140 c3        1 A2Z     -0.108000
     15 C16         4.8510   -2.0950    1.0890 c2        1 A2Z     -0.219000
     16 H1          1.2180   -1.2070   -0.1670 hc        1 A2Z      0.127000
     17 H6         -1.1890   -1.0820    0.0210 ha        1 A2Z      0.158000
     18 H9          1.1430   -2.2670    1.3080 hc        1 A2Z      0.127000
     19 H12         1.3670    2.3210    3.1330 ho        1 A2Z      0.214000
     20 H12A        1.0350    0.2090    5.3960 ha        1 A2Z      0.057000
     21 H15         2.4060    0.7710   -4.0160 hc        1 A2Z      0.097000
     22 H15A        3.5100    2.1430   -3.5640 hc        1 A2Z      0.097000
     23 H15B        1.7600    2.1850   -3.0720 hc        1 A2Z      0.097000
     24 H16         3.4230    0.7140    1.9890 hn        1 A2Z      0.235000
     25 H16A        4.4620   -2.0430    2.1080 h4        1 A2Z      0.166500
     26 H16B        5.6460   -2.7860    0.7780 h4        1 A2Z      0.166500
     27 O3          4.4520   -1.3300    0.1110 os        1 A2Z      0.104000
@<TRIPOS>BOND
     1    1    4 1   
     2    1    9 1   
     3    1   17 1   
     4    2    6 1   
     5    2   10 1   
     6    2   24 1   
     7    3    8 1   
     8    3   13 1   
     9    4    6 1   
    10    4   16 1   
    11    4   18 1   
    12    5    7 1   
    13    5   19 1   
    14    6    7 1   
    15    7    8 1   
    16    8    9 1   
    17   10   11 1   
    18   10   27 1   
    19   11   12 1   
    20   12   14 1   
    21   13   20 1   
    22   14   21 1   
    23   14   22 1   
    24   14   23 1   
    25   15   25 1   
    26   15   26 1   
    27   15   27 1   
@<TRIPOS>SUBSTRUCTURE
     1 A2Z         1 TEMP              0 ****  ****    0 ROOT
