@<TRIPOS>MOLECULE
A2Z
   27    29     1     0     0
SMALL
bcc


@<TRIPOS>ATOM
      1 C1          0.1710    2.2610    0.0430 ca        1 A2Z     -0.074000
      2 N1         -0.9000   -1.3330    0.0270 n         1 A2Z     -0.342000
      3 O1          3.4440    0.5510    0.1440 os        1 A2Z     -0.330900
      4 C2         -0.6570    1.1270    0.0240 ca        1 A2Z     -0.130800
      5 O2          2.1300   -1.3780    0.1140 os        1 A2Z     -0.337900
      6 C3         -0.0970   -0.1970    0.0450 ca        1 A2Z      0.128600
      7 C4          1.3050   -0.2490    0.0860 ca        1 A2Z     -0.015900
      8 C5          2.1030    0.9100    0.1040 ca        1 A2Z      0.108100
      9 C6          1.5630    2.1870    0.0830 ca        1 A2Z     -0.149000
     10 C8         -2.3040   -1.2170   -0.0140 c         1 A2Z      0.697700
     11 C9         -2.8720    0.1350   -0.0360 cc        1 A2Z     -0.239200
     12 C10        -2.1020    1.2480   -0.0190 cd        1 A2Z      0.024600
     13 C12         3.4910   -0.8960    0.1510 c3        1 A2Z      0.321200
     14 C15        -2.7170    2.5970   -0.0420 c3        1 A2Z     -0.070900
     15 C16        -0.2810   -2.6360    0.0500 c3        1 A2Z      0.067300
     16 H1         -0.2950    3.2600    0.0250 ha        1 A2Z      0.144000
     17 H6          2.1960    3.0830    0.0970 ha        1 A2Z      0.161000
     18 H9         -3.9720    0.1710   -0.0680 ha        1 A2Z      0.165000
     19 H12         4.0200   -1.2400   -0.7710 h2        1 A2Z      0.073700
     20 H12A        3.9660   -1.2320    1.1060 h2        1 A2Z      0.073700
     21 H15        -2.3730    3.1640   -0.9440 hc        1 A2Z      0.055033
     22 H15A       -3.8330    2.5300   -0.0740 hc        1 A2Z      0.055033
     23 H15B       -2.4250    3.1710    0.8730 hc        1 A2Z      0.055033
     24 H16         0.3370   -2.7470    0.9820 h1        1 A2Z      0.063033
     25 H16A       -1.0740   -3.4310    0.0310 h1        1 A2Z      0.063033
     26 H16B        0.3900   -2.7540   -0.8430 h1        1 A2Z      0.063033
     27 O3         -3.0070   -2.2460   -0.0300 o         1 A2Z     -0.629500
@<TRIPOS>BOND
     1    1    4 ar  
     2    1    9 ar  
     3    1   16 1   
     4    2    6 1   
     5    2   10 1   
     6    2   15 1   
     7    3    8 1   
     8    3   13 1   
     9    4    6 ar  
    10    4   12 1   
    11    5    7 1   
    12    5   13 1   
    13    6    7 ar  
    14    7    8 ar  
    15    8    9 ar  
    16    9   17 1   
    17   10   11 1   
    18   10   27 2   
    19   11   12 2   
    20   11   18 1   
    21   12   14 1   
    22   13   19 1   
    23   13   20 1   
    24   14   21 1   
    25   14   22 1   
    26   14   23 1   
    27   15   24 1   
    28   15   25 1   
    29   15   26 1   
@<TRIPOS>SUBSTRUCTURE
     1 A2Z         1 TEMP              0 ****  ****    0 ROOT
