@<TRIPOS>MOLECULE
A2Z
   27    27     1     0     0
SMALL
bcc


@<TRIPOS>ATOM
      1 C1         -0.6110    0.2470    0.6890 c2        1 A2Z     -0.078000
      2 N1          3.1650    0.5990    1.0070 ns        1 A2Z     -0.311000
      3 O1          0.0760   -0.6490    4.2180 os        1 A2Z     -0.180000
      4 C2          0.8020    0.1340    0.1980 c3        1 A2Z     -0.121000
      5 O2          2.1440    0.3790    3.7770 os        1 A2Z     -0.239000
      6 C3          1.8260    0.3780    1.3020 c2        1 A2Z      0.075000
      7 C4          1.3950    0.3330    2.6010 c2        1 A2Z     -0.116000
      8 C5          0.0610   -0.1850    2.9310 c2        1 A2Z      0.157000
      9 C6         -0.8500   -0.0700    1.9570 c1        1 A2Z     -0.237000
     10 C8          3.8200    0.5880   -0.2250 c2        1 A2Z      0.434000
     11 C9          3.1220    0.2890   -1.4340 c1        1 A2Z     -0.224000
     12 C10         2.6560    0.0450   -2.5110 c1        1 A2Z     -0.044000
     13 C12         1.3450   -0.2620    4.8100 c3        1 A2Z      0.093000
     14 C15         2.0870   -0.2480   -3.7850 c3        1 A2Z     -0.134000
     15 C16         3.9660   -0.9600    4.1970 c1        1 A2Z     -0.055000
     16 H1          0.9220    0.9250   -0.5950 hc        1 A2Z      0.125500
     17 H6         -1.3570    0.6730    0.0080 ha        1 A2Z      0.153000
     18 H9          1.0280   -0.8630   -0.2680 hc        1 A2Z      0.125500
     19 H12         1.8750   -1.1920    5.1440 h2        1 A2Z      0.142500
     20 H12A        1.1500    0.4950    5.6080 h2        1 A2Z      0.142500
     21 H15         1.0030   -0.5170   -3.6830 hc        1 A2Z      0.111667
     22 H15A        2.1720    0.6430   -4.4620 hc        1 A2Z      0.111667
     23 H15B        2.6260   -1.1090   -4.2620 hc        1 A2Z      0.111667
     24 H16         3.7590    0.7720    1.7970 hn        1 A2Z      0.253000
     25 H16A        4.5360   -0.0480    4.4300 ha        1 A2Z      0.012500
     26 H16B        4.0750   -1.2370    3.1370 ha        1 A2Z      0.012500
     27 O3          5.0410    0.8370   -0.2130 o         1 A2Z     -0.322000
@<TRIPOS>BOND
     1    1    4 1   
     2    1    9 1   
     3    1   17 1   
     4    2    6 1   
     5    2   10 1   
     6    2   24 1   
     7    3    8 1   
     8    3   13 1   
     9    4    6 1   
    10    4   16 1   
    11    4   18 1   
    12    5    7 1   
    13    5   13 1   
    14    6    7 1   
    15    7    8 1   
    16    8    9 1   
    17   10   11 1   
    18   10   27 1   
    19   11   12 1   
    20   12   14 1   
    21   13   19 1   
    22   13   20 1   
    23   14   21 1   
    24   14   22 1   
    25   14   23 1   
    26   15   25 1   
    27   15   26 1   
@<TRIPOS>SUBSTRUCTURE
     1 A2Z         1 TEMP              0 ****  ****    0 ROOT
