@<TRIPOS>MOLECULE
A2Z
   27    27     1     0     0
SMALL
bcc


@<TRIPOS>ATOM
      1 C1         -0.6030    0.2550    0.6770 c2        1 A2Z     -0.078000
      2 N1          3.1830    0.5060    0.9820 n         1 A2Z     -0.311000
      3 O1          0.0590   -0.5040    4.2420 os        1 A2Z     -0.180000
      4 C2          0.8070    0.0770    0.1920 c3        1 A2Z     -0.121000
      5 O2          2.1570    0.4400    3.7580 os        1 A2Z     -0.239000
      6 C3          1.8380    0.3380    1.2850 c2        1 A2Z      0.075000
      7 C4          1.4060    0.3640    2.5840 c2        1 A2Z     -0.116000
      8 C5          0.0580   -0.0980    2.9360 c2        1 A2Z      0.157000
      9 C6         -0.8510    0.0020    1.9580 c1        1 A2Z     -0.237000
     10 C8          3.8360    0.4200   -0.2480 c2        1 A2Z      0.434000
     11 C9          3.1280    0.0920   -1.4440 c1        1 A2Z     -0.224000
     12 C10         2.6550   -0.1840   -2.5100 c1        1 A2Z     -0.044000
     13 C12         1.3400   -0.1300    4.8170 c3        1 A2Z      0.093000
     14 C15         2.0760   -0.5120   -3.7700 c3        1 A2Z     -0.134000
     15 C16         3.9380   -0.9330    4.2390 c1        1 A2Z     -0.055000
     16 H1          0.9500    0.8280   -0.6350 hc        1 A2Z      0.125500
     17 H6         -1.3350    0.6730   -0.0230 ha        1 A2Z      0.153000
     18 H9          1.0010   -0.9460   -0.2300 hc        1 A2Z      0.125500
     19 H12         1.8410   -1.0600    5.1940 h2        1 A2Z      0.142500
     20 H12A        1.1670    0.6670    5.5810 h2        1 A2Z      0.142500
     21 H15         0.9690   -0.6580   -3.6730 hc        1 A2Z      0.111667
     22 H15A        2.5270   -1.4590   -4.1690 hc        1 A2Z      0.111667
     23 H15B        2.2640    0.3100   -4.5110 hc        1 A2Z      0.111667
     24 H16         3.7820    0.6940    1.7640 hn        1 A2Z      0.253000
     25 H16A        4.5350   -0.0290    4.4310 ha        1 A2Z      0.012500
     26 H16B        4.0380   -1.2600    3.1930 ha        1 A2Z      0.012500
     27 O3          5.0650    0.6310   -0.2450 o         1 A2Z     -0.322000
@<TRIPOS>BOND
     1    1    4 1   
     2    1    9 1   
     3    1   17 1   
     4    2    6 1   
     5    2   10 1   
     6    2   24 1   
     7    3    8 1   
     8    3   13 1   
     9    4    6 1   
    10    4   16 1   
    11    4   18 1   
    12    5    7 1   
    13    5   13 1   
    14    6    7 1   
    15    7    8 1   
    16    8    9 1   
    17   10   11 1   
    18   10   27 1   
    19   11   12 1   
    20   12   14 1   
    21   13   19 1   
    22   13   20 1   
    23   14   21 1   
    24   14   22 1   
    25   14   23 1   
    26   15   25 1   
    27   15   26 1   
@<TRIPOS>SUBSTRUCTURE
     1 A2Z         1 TEMP              0 ****  ****    0 ROOT
