@<TRIPOS>MOLECULE
A2Z
   27    28     1     0     0
SMALL
bcc


@<TRIPOS>ATOM
      1 C1         -1.9190   -0.0150   -0.9600 c1        1 A2Z     -0.074000
      2 N1          1.6890   -0.0150    0.2620 n         1 A2Z     -0.245000
      3 O1         -2.3540   -0.0150    2.8340 os        1 A2Z     -0.214000
      4 C2         -0.5150   -0.0150   -0.9600 c1        1 A2Z     -0.119000
      5 O2         -0.0820   -0.0150    2.8380 os        1 A2Z     -0.221000
      6 C3          0.1890   -0.0150    0.2600 c2        1 A2Z      0.136000
      7 O3          3.6130   -0.2030   -0.9930 o         1 A2Z     -0.354000
      8 C4         -0.5190   -0.0150    1.4820 c2        1 A2Z     -0.061000
      9 C5         -1.9120   -0.0150    1.4800 c2        1 A2Z      0.063000
     10 C6         -2.6190   -0.0150    0.2500 c2        1 A2Z     -0.149000
     11 C8          2.4130   -0.0150   -0.9870 c2        1 A2Z      0.336000
     12 C9          1.6950   -0.0150   -2.2610 c2        1 A2Z     -0.220000
     13 C10         0.2420   -0.0150   -2.2680 c2        1 A2Z      0.017000
     14 C12        -1.2190   -0.0150    3.6600 c3        1 A2Z      0.099000
     15 C15        -0.5100   -0.1150   -3.5770 c3        1 A2Z     -0.193000
     16 C16         2.3990    0.2110    1.4760 c3        1 A2Z     -0.088000
     17 H1         -2.4070   -0.0120   -1.8060 ha        1 A2Z      0.144000
     18 H6         -3.5960   -0.0150    0.2500 ha        1 A2Z      0.161000
     19 H9          2.1900   -0.0150   -3.1020 ha        1 A2Z      0.165000
     20 H12        -1.2200    0.7830    4.2210 h2        1 A2Z      0.113000
     21 H12A       -1.2200   -0.8140    4.2210 h2        1 A2Z      0.113000
     22 H15        -1.0490   -0.9290   -3.5820 hc        1 A2Z      0.094333
     23 H15A       -1.0940    0.6610   -3.6780 hc        1 A2Z      0.094333
     24 H15B        0.1260   -0.1420   -4.3170 hc        1 A2Z      0.094333
     25 H16         2.2830   -0.5570    2.0680 h1        1 A2Z      0.102333
     26 H16A        3.3470    0.3310    1.2800 h1        1 A2Z      0.102333
     27 H16B        2.0520    1.0120    1.9110 h1        1 A2Z      0.102333
@<TRIPOS>BOND
     1    1   10 1   
     2    1   17 1   
     3    2    6 1   
     4    2   11 1   
     5    2   16 1   
     6    3    9 1   
     7    3   14 1   
     8    4    6 1   
     9    4   13 1   
    10    5    8 1   
    11    5   14 1   
    12    6    8 1   
    13    7   11 1   
    14    8    9 1   
    15    9   10 1   
    16   10   18 1   
    17   11   12 1   
    18   12   13 1   
    19   12   19 1   
    20   13   15 1   
    21   14   20 1   
    22   14   21 1   
    23   15   22 1   
    24   15   23 1   
    25   15   24 1   
    26   16   25 1   
    27   16   26 1   
    28   16   27 1   
@<TRIPOS>SUBSTRUCTURE
     1 A2Z         1 TEMP              0 ****  ****    0 ROOT
