@<TRIPOS>MOLECULE
A32
   63    65     1     0     0
SMALL
bcc


@<TRIPOS>ATOM
      1 C1         -0.1180   -0.0470    0.2980 c3        1 A32      0.302900
      2 O1         -1.0670   -0.8490    1.0180 os        1 A32     -0.333900
      3 C2          1.0980    0.1550    1.2220 c3        1 A32      0.093100
      4 O2          1.5920   -1.0740    1.7080 oh        1 A32     -0.577800
      5 C3          0.7020    0.9900    2.4510 c3        1 A32      0.115100
      6 O3          1.8510    1.3480    3.1940 oh        1 A32     -0.597800
      7 C4          0.0610    2.3080    1.9830 c3        1 A32      0.123100
      8 O4          0.9850    3.1080    1.2690 oh        1 A32     -0.596800
      9 C5         -1.1250    2.0060    1.0570 c3        1 A32      0.145100
     10 O5         -0.7750    1.1440   -0.0370 os        1 A32     -0.427600
     11 C6         -1.6450    3.2910    0.4100 c3        1 A32      0.137400
     12 O6         -2.9710    3.0370   -0.0320 oh        1 A32     -0.626800
     13 C1'        -2.1040   -1.4040    0.3130 ca        1 A32      0.145100
     14 C2'        -2.6930   -2.5340    0.9210 ca        1 A32     -0.040000
     15 C3'        -3.8060   -3.1170    0.3080 ca        1 A32     -0.150200
     16 C4'        -4.3400   -2.6090   -0.8870 ca        1 A32     -0.084000
     17 C5'        -3.7390   -1.4890   -1.4630 ca        1 A32     -0.171600
     18 C6'        -2.6140   -0.8830   -0.8830 ca        1 A32     -0.099000
     19 N1'        -4.4550   -4.3120    0.9340 no        1 A32      0.317200
     20 O1'        -5.4640   -4.7260    0.4310 o         1 A32     -0.174000
     21 O2'        -3.9530   -4.7960    1.9050 o         1 A32     -0.174000
     22 C7'        -4.2420   -0.9150   -2.7160 c         1 A32      0.579700
     23 O3'        -3.6230   -0.5540   -3.7040 o         1 A32     -0.395100
     24 N2'        -5.7470   -0.7110   -2.7840 n4        1 A32     -0.681800
     25 O1B       -11.7030    3.9950   -1.1370 os        1 A32     -0.400600
     26 C2B       -11.0320    4.4160   -2.3170 c3        1 A32      0.125900
     27 C3B        -9.5390    4.0640   -2.2690 c3        1 A32      0.133800
     28 N4'        -9.3110    2.6540   -1.9700 n3        1 A32     -0.738600
     29 C5B       -10.0870    2.1930   -0.8250 c3        1 A32      0.133800
     30 C6B       -11.5640    2.5980   -0.9150 c3        1 A32      0.125900
     31 C7B        -7.9010    2.3250   -1.8650 c3        1 A32      0.186800
     32 C8'        -7.6210    0.8920   -2.3430 c3        1 A32     -0.118400
     33 C9'        -6.1180    0.6570   -2.3010 c3        1 A32      0.106800
     34 H11         0.1620   -0.5270   -0.6810 h2        1 A32      0.091700
     35 H21         1.8790    0.7110    0.6280 h1        1 A32      0.090700
     36 HO21        2.0740   -1.4980    0.9860 ho        1 A32      0.417000
     37 H31        -0.0150    0.4050    3.0890 h1        1 A32      0.074700
     38 HO31        2.2690    0.5230    3.4790 ho        1 A32      0.436000
     39 H41        -0.3080    2.8730    2.8860 h1        1 A32      0.071700
     40 HO41        1.7560    3.2250    1.8440 ho        1 A32      0.436000
     41 H51        -1.9340    1.5000    1.6540 h1        1 A32      0.070700
     42 H61        -1.6360    4.1130    1.1730 h1        1 A32      0.062200
     43 H62        -0.9940    3.5720   -0.4610 h1        1 A32      0.062200
     44 HO1        -3.3260    3.8880   -0.3130 ho        1 A32      0.410000
     45 H2'1       -2.2720   -2.9350    1.8630 ha        1 A32      0.213000
     46 H4'1       -5.1960   -3.1260   -1.3550 ha        1 A32      0.170000
     47 H6'1       -2.1490    0.0040   -1.3520 ha        1 A32      0.201000
     48 HN21       -6.2230   -1.4130   -2.2080 hn        1 A32      0.459800
     49 H3'1       -9.0900    4.2810   -3.2780 h1        1 A32      0.041950
     50 H3'2       -9.0390    4.7320   -1.5090 h1        1 A32      0.041950
     51 H5'1       -9.6680    2.5920    0.1460 h1        1 A32      0.041950
     52 H5'2      -10.0250    1.0710   -0.7940 h1        1 A32      0.041950
     53 H6A1      -12.0740    2.4170    0.0670 h1        1 A32      0.064950
     54 H6'2      -12.0820    2.0300   -1.7320 h1        1 A32      0.064950
     55 H7'1       -7.5140    2.4270   -0.8080 h1        1 A32      0.043700
     56 H7'2       -7.3070    3.0330   -2.5120 h1        1 A32      0.043700
     57 H8'1       -8.0150    0.7610   -3.3850 hc        1 A32      0.075200
     58 H8'2       -8.1520    0.1600   -1.6780 hc        1 A32      0.075200
     59 H9'1       -5.5850    1.4020   -2.9620 hx        1 A32      0.112200
     60 H9'2       -5.7320    0.7680   -1.2470 hx        1 A32      0.112200
     61 H2A1      -11.5190    3.9560   -3.2170 h1        1 A32      0.064950
     62 H2'2       -6.0630   -0.8140   -3.7570 hn        1 A32      0.459800
     63 H2'3      -11.1620    5.5300   -2.3330 h1        1 A32      0.064950
@<TRIPOS>BOND
     1    1    2 1   
     2    1    3 1   
     3    1   10 1   
     4    1   34 1   
     5    2   13 1   
     6    3    4 1   
     7    3    5 1   
     8    3   35 1   
     9    4   36 1   
    10    5    6 1   
    11    5    7 1   
    12    5   37 1   
    13    6   38 1   
    14    7    8 1   
    15    7    9 1   
    16    7   39 1   
    17    8   40 1   
    18    9   10 1   
    19    9   11 1   
    20    9   41 1   
    21   11   12 1   
    22   11   42 1   
    23   11   43 1   
    24   12   44 1   
    25   13   14 ar  
    26   13   18 ar  
    27   14   15 ar  
    28   14   45 1   
    29   15   16 ar  
    30   15   19 1   
    31   16   17 ar  
    32   16   46 1   
    33   17   18 ar  
    34   17   22 1   
    35   18   47 1   
    36   19   20 1   
    37   19   21 1   
    38   22   23 2   
    39   22   24 1   
    40   24   33 1   
    41   24   48 1   
    42   24   62 1   
    43   25   26 1   
    44   25   30 1   
    45   26   27 1   
    46   26   61 1   
    47   26   63 1   
    48   27   28 1   
    49   27   49 1   
    50   27   50 1   
    51   28   29 1   
    52   28   31 1   
    53   29   30 1   
    54   29   51 1   
    55   29   52 1   
    56   30   53 1   
    57   30   54 1   
    58   31   32 1   
    59   31   55 1   
    60   31   56 1   
    61   32   33 1   
    62   32   57 1   
    63   32   58 1   
    64   33   59 1   
    65   33   60 1   
@<TRIPOS>SUBSTRUCTURE
     1 A32         1 TEMP              0 ****  ****    0 ROOT
