@<TRIPOS>MOLECULE
A32
   62    62     1     0     0
SMALL
bcc


@<TRIPOS>ATOM
      1 C1          4.0270   -1.9680    1.3890 c3        1 A32      0.158000
      2 O1          3.5100   -0.7070    1.5870 os        1 A32     -0.243000
      3 C2          5.0770   -2.2430    2.4630 c3        1 A32      0.007000
      4 O2          4.4880   -1.9800    3.7860 oh        1 A32     -0.325000
      5 C3          6.2730   -1.4100    2.2990 c3        1 A32     -0.044000
      6 O3          7.2980   -1.8660    3.2460 oh        1 A32     -0.337000
      7 C4          6.8280   -1.4830    0.9110 c3        1 A32     -0.027000
      8 O4          7.3830   -2.7990    0.6950 oh        1 A32     -0.332000
      9 C5          5.7780   -1.2130   -0.1440 c3        1 A32      0.001000
     10 O5          4.5780   -2.0420    0.0310 os        1 A32     -0.259000
     11 C6          6.3740   -1.4970   -1.5200 c3        1 A32     -0.004000
     12 O6          7.4320   -0.6780   -1.7370 oh        1 A32     -0.328000
     13 C1'         2.1140   -0.7540    1.5100 c2        1 A32      0.060000
     14 C2'         1.4340   -1.8440    2.0250 c2        1 A32     -0.096000
     15 C3'         0.0420   -1.8160    2.1250 c1        1 A32     -0.118000
     16 C4'        -0.6660   -0.6900    1.7050 c1        1 A32     -0.069000
     17 C5'         0.0130    0.4090    1.1880 c1        1 A32     -0.111000
     18 C6'         1.3990    0.3840    1.0870 c1        1 A32     -0.053000
     19 N1'        -0.6600   -2.9800    2.5420 no        1 A32      0.569000
     20 O1'         0.0340   -4.1880    2.7320 o         1 A32     -0.353000
     21 O2'        -1.8880   -2.9380    2.6970 o         1 A32     -0.353000
     22 C7'        -0.7700    1.5950    0.6410 c2        1 A32      0.343000
     23 O3'        -0.1670    2.5800    0.1780 o         1 A32     -0.352000
     24 N2'        -2.2410    1.5870    0.6960 n         1 A32     -0.370000
     25 O1B        -8.1950    1.2580   -3.6250 os        1 A32     -0.271000
     26 C2B        -7.6430    2.4610   -4.0760 c3        1 A32     -0.024000
     27 C3B        -6.7910    3.1550   -3.0000 c3        1 A32     -0.105500
     28 N4'        -5.8180    2.2890   -2.4340 n3        1 A32     -0.250000
     29 C5B        -6.3700    1.0710   -1.9780 c3        1 A32     -0.105500
     30 C6B        -7.2060    0.3790   -3.0450 c3        1 A32     -0.024000
     31 C7B        -5.1460    2.9730   -1.3170 c3        1 A32     -0.063000
     32 C8'        -4.3790    1.9430   -0.4660 c3        1 A32     -0.186000
     33 C9'        -2.9770    2.5610   -0.0120 c3        1 A32     -0.032000
     34 H11         3.3140   -2.6170    1.4730 h2        1 A32      0.147000
     35 H21         5.3460   -3.2060    2.4140 h1        1 A32      0.117000
     36 HO21        4.6240   -2.7000    4.3300 ho        1 A32      0.230000
     37 H31         6.0380   -0.4550    2.5060 h1        1 A32      0.119000
     38 HO31        7.7040   -1.1560    3.6130 ho        1 A32      0.215000
     39 H41         7.5430   -0.8200    0.8220 h1        1 A32      0.097000
     40 HO41        8.2820   -2.7450    0.6750 ho        1 A32      0.222000
     41 H51         5.5140   -0.2460   -0.0970 h1        1 A32      0.109000
     42 H61         5.6810   -1.3360   -2.2240 h1        1 A32      0.104500
     43 H62         6.6770   -2.4550   -1.5630 h1        1 A32      0.104500
     44 HO1         7.7720   -0.8440   -2.5290 ho        1 A32      0.214000
     45 H2'1        1.9250   -2.6260    2.3180 ha        1 A32      0.201000
     46 H4'1       -1.6530   -0.6710    1.7770 ha        1 A32      0.172000
     47 H6'1        1.8930    1.1780    0.7140 ha        1 A32      0.182000
     48 HN21       -2.6740    0.9020    1.1060 hn        1 A32      0.225000
     49 H2A1       -8.4190    3.1050   -4.3590 h1        1 A32      0.094000
     50 H2'2       -7.0740    2.2790   -4.8700 h1        1 A32      0.094000
     51 H3'1       -6.3360    3.9200   -3.4010 h1        1 A32      0.079750
     52 H3'2       -7.3880    3.4780   -2.2800 h1        1 A32      0.079750
     53 H5'1       -6.9460    1.2530   -1.1850 h1        1 A32      0.079750
     54 H5'2       -5.6400    0.4710   -1.7100 h1        1 A32      0.079750
     55 H6A1       -6.6090    0.0570   -3.7560 h1        1 A32      0.094000
     56 H6'2       -7.6550   -0.3810   -2.6470 h1        1 A32      0.094000
     57 H7'1       -5.7960    3.4120   -0.7750 h1        1 A32      0.074000
     58 H7'2       -4.5290    3.6240   -1.6650 h1        1 A32      0.074000
     59 H8'1       -4.9150    1.7140    0.3370 hc        1 A32      0.094000
     60 H8'2       -4.2270    1.1600   -0.9800 hc        1 A32      0.094000
     61 H9'1       -3.1320    3.3250    0.5570 h1        1 A32      0.105000
     62 H9'2       -2.4880    2.8310   -0.7790 h1        1 A32      0.105000
@<TRIPOS>BOND
     1    1    2 1   
     2    1    3 1   
     3    1   10 1   
     4    1   34 1   
     5    2   13 1   
     6    3    4 1   
     7    3    5 1   
     8    3   35 1   
     9    4   36 1   
    10    5    6 1   
    11    5    7 1   
    12    5   37 1   
    13    6   38 1   
    14    7    8 1   
    15    7    9 1   
    16    7   39 1   
    17    8   40 1   
    18    9   10 1   
    19    9   11 1   
    20    9   41 1   
    21   11   12 1   
    22   11   42 1   
    23   11   43 1   
    24   12   44 1   
    25   13   14 1   
    26   13   18 1   
    27   14   15 1   
    28   14   45 1   
    29   15   19 1   
    30   16   17 1   
    31   16   46 1   
    32   17   22 1   
    33   18   47 1   
    34   19   20 1   
    35   19   21 1   
    36   22   23 1   
    37   22   24 1   
    38   24   33 1   
    39   24   48 1   
    40   25   26 1   
    41   25   30 1   
    42   26   27 1   
    43   26   49 1   
    44   26   50 1   
    45   27   28 1   
    46   27   51 1   
    47   27   52 1   
    48   28   29 1   
    49   28   31 1   
    50   29   30 1   
    51   29   53 1   
    52   29   54 1   
    53   30   55 1   
    54   30   56 1   
    55   31   32 1   
    56   31   57 1   
    57   31   58 1   
    58   32   33 1   
    59   32   59 1   
    60   32   60 1   
    61   33   61 1   
    62   33   62 1   
@<TRIPOS>SUBSTRUCTURE
     1 A32         1 TEMP              0 ****  ****    0 ROOT
