@<TRIPOS>MOLECULE
A32
   63    65     1     0     0
SMALL
bcc


@<TRIPOS>ATOM
      1 C1         -0.1210   -0.0540    0.3070 c3        1 A32      0.302900
      2 O1         -1.0760   -0.8480    1.0270 os        1 A32     -0.333900
      3 C2          1.0920    0.1460    1.2360 c3        1 A32      0.093100
      4 O2          1.5790   -1.0820    1.7290 oh        1 A32     -0.577800
      5 C3          0.6950    0.9900    2.4580 c3        1 A32      0.115100
      6 O3          1.8420    1.3460    3.2040 oh        1 A32     -0.597800
      7 C4          0.0620    2.3080    1.9810 c3        1 A32      0.123100
      8 O4          0.9930    3.1000    1.2670 oh        1 A32     -0.596800
      9 C5         -1.1210    2.0070    1.0510 c3        1 A32      0.145100
     10 O5         -0.7700    1.1380   -0.0370 os        1 A32     -0.427600
     11 C6         -1.6310    3.2910    0.3950 c3        1 A32      0.137400
     12 O6         -2.9570    3.0410   -0.0530 oh        1 A32     -0.626800
     13 C1'        -2.1120   -1.4030    0.3200 ca        1 A32      0.145100
     14 C2'        -2.7070   -2.5290    0.9300 ca        1 A32     -0.040000
     15 C3'        -3.8200   -3.1110    0.3160 ca        1 A32     -0.150200
     16 C4'        -4.3480   -2.6050   -0.8830 ca        1 A32     -0.084000
     17 C5'        -3.7420   -1.4890   -1.4610 ca        1 A32     -0.171600
     18 C6'        -2.6170   -0.8850   -0.8780 ca        1 A32     -0.099000
     19 N1'        -4.4750   -4.3010    0.9440 no        1 A32      0.317200
     20 O1'        -5.4830   -4.7140    0.4390 o         1 A32     -0.174000
     21 O2'        -3.9770   -4.7840    1.9170 o         1 A32     -0.174000
     22 C7'        -4.2390   -0.9170   -2.7170 c         1 A32      0.578700
     23 O3'        -3.6160   -0.5610   -3.7040 o         1 A32     -0.395100
     24 N2'        -5.7430   -0.7100   -2.7920 ny        1 A32     -0.681800
     25 O1B       -11.7000    3.9950   -1.1430 os        1 A32     -0.400600
     26 C2B       -11.0220    4.4230   -2.3170 c3        1 A32      0.125900
     27 C3B        -9.5300    4.0680   -2.2630 c3        1 A32      0.133800
     28 N4'        -9.3050    2.6560   -1.9730 n3        1 A32     -0.738600
     29 C5B       -10.0880    2.1890   -0.8350 c3        1 A32      0.133800
     30 C6B       -11.5640    2.5970   -0.9300 c3        1 A32      0.125900
     31 C7B        -7.8960    2.3240   -1.8630 c3        1 A32      0.186800
     32 C8'        -7.6170    0.8930   -2.3490 c3        1 A32     -0.118400
     33 C9'        -6.1140    0.6560   -2.3030 c3        1 A32      0.106800
     34 H11         0.1610   -0.5410   -0.6680 h2        1 A32      0.091700
     35 H21         1.8780    0.6960    0.6420 h1        1 A32      0.090700
     36 HO21        2.0620   -1.5110    1.0120 ho        1 A32      0.417000
     37 H31        -0.0280    0.4110    3.0960 h1        1 A32      0.074700
     38 HO31        2.2560    0.5210    3.4950 ho        1 A32      0.436000
     39 H41        -0.3080    2.8800    2.8790 h1        1 A32      0.071700
     40 HO41        1.7620    3.2160    1.8450 ho        1 A32      0.436000
     41 H51        -1.9350    1.5080    1.6470 h1        1 A32      0.069700
     42 H61        -1.6230    4.1170    1.1550 h1        1 A32      0.061700
     43 H62        -0.9750    3.5650   -0.4730 h1        1 A32      0.061700
     44 HO1        -3.3060    3.8920   -0.3420 ho        1 A32      0.410000
     45 H2'1       -2.2900   -2.9280    1.8750 ha        1 A32      0.213000
     46 H4'1       -5.2040   -3.1210   -1.3520 ha        1 A32      0.170000
     47 H6'1       -2.1480   -0.0000   -1.3490 ha        1 A32      0.202000
     48 HN21       -6.0550   -0.8060   -3.7670 hn        1 A32      0.459800
     49 H3'1       -9.0330    4.7300   -1.4960 h1        1 A32      0.041950
     50 H3'2       -9.0750    4.2920   -3.2680 h1        1 A32      0.041950
     51 H5'1       -9.6730    2.5800    0.1400 h1        1 A32      0.041950
     52 H5'2      -10.0280    1.0650   -0.8120 h1        1 A32      0.041950
     53 H6A1      -12.0780    2.0350   -1.7540 h1        1 A32      0.064950
     54 H6'2      -12.0790    2.4090    0.0490 h1        1 A32      0.064950
     55 H7'1       -7.5150    2.4180   -0.8040 h1        1 A32      0.043200
     56 H7'2       -7.2980    3.0350   -2.5030 h1        1 A32      0.043200
     57 H8'1       -8.0060    0.7710   -3.3950 hc        1 A32      0.075200
     58 H8'2       -8.1520    0.1590   -1.6930 hc        1 A32      0.075200
     59 H9'1       -5.7340    0.7600   -1.2450 hx        1 A32      0.112200
     60 H9'2       -5.5770    1.4040   -2.9560 hx        1 A32      0.112200
     61 H2A1      -11.1500    5.5380   -2.3250 h1        1 A32      0.064950
     62 H2'2       -6.2240   -1.4150   -2.2220 hn        1 A32      0.459800
     63 H2'3      -11.5050    3.9700   -3.2220 h1        1 A32      0.064950
@<TRIPOS>BOND
     1    1    2 1   
     2    1    3 1   
     3    1   10 1   
     4    1   34 1   
     5    2   13 1   
     6    3    4 1   
     7    3    5 1   
     8    3   35 1   
     9    4   36 1   
    10    5    6 1   
    11    5    7 1   
    12    5   37 1   
    13    6   38 1   
    14    7    8 1   
    15    7    9 1   
    16    7   39 1   
    17    8   40 1   
    18    9   10 1   
    19    9   11 1   
    20    9   41 1   
    21   11   12 1   
    22   11   42 1   
    23   11   43 1   
    24   12   44 1   
    25   13   14 ar  
    26   13   18 ar  
    27   14   15 ar  
    28   14   45 1   
    29   15   16 ar  
    30   15   19 1   
    31   16   17 ar  
    32   16   46 1   
    33   17   18 ar  
    34   17   22 1   
    35   18   47 1   
    36   19   20 1   
    37   19   21 1   
    38   22   23 2   
    39   22   24 1   
    40   24   33 1   
    41   24   48 1   
    42   24   62 1   
    43   25   26 1   
    44   25   30 1   
    45   26   27 1   
    46   26   61 1   
    47   26   63 1   
    48   27   28 1   
    49   27   49 1   
    50   27   50 1   
    51   28   29 1   
    52   28   31 1   
    53   29   30 1   
    54   29   51 1   
    55   29   52 1   
    56   30   53 1   
    57   30   54 1   
    58   31   32 1   
    59   31   55 1   
    60   31   56 1   
    61   32   33 1   
    62   32   57 1   
    63   32   58 1   
    64   33   59 1   
    65   33   60 1   
@<TRIPOS>SUBSTRUCTURE
     1 A32         1 TEMP              0 ****  ****    0 ROOT
