@<TRIPOS>MOLECULE
A32
   62    64     1     0     0
SMALL
bcc


@<TRIPOS>ATOM
      1 C1         -3.9770    0.7320    0.6860 c3        1 A32      0.308900
      2 O1         -3.6420   -0.6160    0.3360 os        1 A32     -0.373900
      3 C2         -5.4910    0.7450    0.9620 c3        1 A32      0.091100
      4 O2         -5.8440   -0.1850    1.9610 oh        1 A32     -0.586800
      5 C3         -6.2810    0.4880   -0.3300 c3        1 A32      0.076100
      6 O3         -7.6650    0.7140   -0.1270 oh        1 A32     -0.602800
      7 C4         -5.8310    1.4710   -1.4230 c3        1 A32      0.127100
      8 O4         -6.1460    2.8070   -1.0740 oh        1 A32     -0.592800
      9 C5         -4.3140    1.3580   -1.6130 c3        1 A32      0.104100
     10 O5         -3.5860    1.5380   -0.3910 os        1 A32     -0.425600
     11 C6         -3.7880    2.4480   -2.5540 c3        1 A32      0.143400
     12 O6         -2.4650    2.1740   -2.9540 oh        1 A32     -0.594800
     13 C1'        -2.3220   -0.9930    0.5040 ca        1 A32      0.112100
     14 C2'        -2.1170   -2.3690    0.6980 ca        1 A32     -0.078000
     15 C3'        -0.8000   -2.8310    0.8110 ca        1 A32     -0.157200
     16 C4'         0.2960   -1.9530    0.7500 ca        1 A32     -0.077000
     17 C5'         0.0590   -0.5900    0.5700 ca        1 A32     -0.117600
     18 C6'        -1.2450   -0.1020    0.4310 ca        1 A32     -0.097000
     19 N1'        -0.5560   -4.2870    1.0040 no        1 A32      0.314200
     20 O1'         0.5760   -4.6720    1.1250 o         1 A32     -0.201000
     21 O2'        -1.4950   -5.0340    1.0380 o         1 A32     -0.201000
     22 C7'         1.1770    0.4010    0.4730 c         1 A32      0.667700
     23 O3'         1.0820    1.3900   -0.2820 o         1 A32     -0.593100
     24 N2'         2.2680    0.2140    1.2940 n         1 A32     -0.557900
     25 O1B         9.5520    0.5510   -1.2350 os        1 A32     -0.414600
     26 C2B         9.5720    1.0470    0.0980 c3        1 A32      0.126400
     27 C3B         8.2170    1.6400    0.5010 c3        1 A32      0.130800
     28 N4'         7.1120    0.7130    0.2800 n3        1 A32     -0.725600
     29 C5B         7.1460    0.1350   -1.0570 c3        1 A32      0.130800
     30 C6B         8.5270   -0.4160   -1.4290 c3        1 A32      0.126400
     31 C7B         5.8310    1.3290    0.6010 c3        1 A32      0.172800
     32 C8'         4.6660    0.3410    0.6220 c3        1 A32     -0.109400
     33 C9'         3.4420    1.0420    1.2160 c3        1 A32      0.083000
     34 H11        -3.3860    1.0970    1.5720 h2        1 A32      0.103700
     35 H21        -5.7690    1.7540    1.3830 h1        1 A32      0.117700
     36 HO21       -5.5440   -1.0570    1.6690 ho        1 A32      0.417000
     37 H31        -6.1160   -0.5710   -0.6730 h1        1 A32      0.060700
     38 HO31       -7.9020    0.2790    0.7040 ho        1 A32      0.426000
     39 H41        -6.3470    1.2060   -2.3890 h1        1 A32      0.063700
     40 HO41       -7.0920    2.8220   -0.8710 ho        1 A32      0.425000
     41 H51        -4.0750    0.3340   -2.0150 h1        1 A32      0.072700
     42 H61        -3.8650    3.4480   -2.0520 h1        1 A32      0.068200
     43 H62        -4.3910    2.4430   -3.5010 h1        1 A32      0.068200
     44 HO1        -1.9100    2.2250   -2.1640 ho        1 A32      0.414000
     45 H2'1       -2.9760   -3.0600    0.7440 ha        1 A32      0.185000
     46 H4'1        1.3200   -2.3560    0.8260 ha        1 A32      0.173000
     47 H6'1       -1.4090    0.9740    0.2370 ha        1 A32      0.189000
     48 HN21        2.3460   -0.6300    1.8110 hn        1 A32      0.312500
     49 H2'2        9.8690    0.2250    0.8010 h1        1 A32      0.054200
     50 H3'1        8.0690    2.6060   -0.0660 h1        1 A32      0.041450
     51 H3'2        8.2480    1.8830    1.5990 h1        1 A32      0.041450
     52 H5'1        6.4090   -0.7160   -1.0800 h1        1 A32      0.041450
     53 H5'2        6.8370    0.8850   -1.8420 h1        1 A32      0.041450
     54 H6A1        8.5660   -0.6490   -2.5260 h1        1 A32      0.054200
     55 H6'2        8.7610   -1.3360   -0.8310 h1        1 A32      0.054200
     56 H7'1        5.5770    2.1630   -0.1180 h1        1 A32      0.035700
     57 H7'2        5.9320    1.7860    1.6280 h1        1 A32      0.035700
     58 H8'1        4.9320   -0.5600    1.2340 hc        1 A32      0.054700
     59 H8'2        4.4400   -0.0070   -0.4190 hc        1 A32      0.054700
     60 H9'1        3.2010    1.9550    0.5980 h1        1 A32      0.066200
     61 H9'2        3.6890    1.3820    2.2630 h1        1 A32      0.066200
     62 H2A1       10.3560    1.8490    0.0870 h1        1 A32      0.054200
@<TRIPOS>BOND
     1    1    2 1   
     2    1    3 1   
     3    1   10 1   
     4    1   34 1   
     5    2   13 1   
     6    3    4 1   
     7    3    5 1   
     8    3   35 1   
     9    4   36 1   
    10    5    6 1   
    11    5    7 1   
    12    5   37 1   
    13    6   38 1   
    14    7    8 1   
    15    7    9 1   
    16    7   39 1   
    17    8   40 1   
    18    9   10 1   
    19    9   11 1   
    20    9   41 1   
    21   11   12 1   
    22   11   42 1   
    23   11   43 1   
    24   12   44 1   
    25   13   14 ar  
    26   13   18 ar  
    27   14   15 ar  
    28   14   45 1   
    29   15   16 ar  
    30   15   19 1   
    31   16   17 ar  
    32   16   46 1   
    33   17   18 ar  
    34   17   22 1   
    35   18   47 1   
    36   19   20 1   
    37   19   21 1   
    38   22   23 2   
    39   22   24 1   
    40   24   33 1   
    41   24   48 1   
    42   25   26 1   
    43   25   30 1   
    44   26   27 1   
    45   26   49 1   
    46   26   62 1   
    47   27   28 1   
    48   27   50 1   
    49   27   51 1   
    50   28   29 1   
    51   28   31 1   
    52   29   30 1   
    53   29   52 1   
    54   29   53 1   
    55   30   54 1   
    56   30   55 1   
    57   31   32 1   
    58   31   56 1   
    59   31   57 1   
    60   32   33 1   
    61   32   58 1   
    62   32   59 1   
    63   33   60 1   
    64   33   61 1   
@<TRIPOS>SUBSTRUCTURE
     1 A32         1 TEMP              0 ****  ****    0 ROOT
