@<TRIPOS>MOLECULE
A32
   62    64     1     0     0
SMALL
bcc


@<TRIPOS>ATOM
      1 C1          0.1400   -0.0080    0.1690 c3        1 A32      0.308900
      2 O1         -0.6610   -0.8580    0.9960 os        1 A32     -0.374900
      3 C2          1.5920   -0.4910    0.3270 c3        1 A32      0.091100
      4 O2          1.7260   -1.8520   -0.0140 oh        1 A32     -0.585800
      5 C3          2.0960   -0.2330    1.7540 c3        1 A32      0.076100
      6 O3          3.4890   -0.4780    1.8500 oh        1 A32     -0.602800
      7 C4          1.8840    1.2440    2.1260 c3        1 A32      0.127100
      8 O4          2.6730    2.0960    1.3150 oh        1 A32     -0.593800
      9 C5          0.4080    1.6100    1.9310 c3        1 A32      0.104100
     10 O5         -0.0740    1.3040    0.6150 os        1 A32     -0.427600
     11 C6          0.1820    3.1170    2.0970 c3        1 A32      0.142400
     12 O6         -1.1920    3.4300    2.0340 oh        1 A32     -0.595800
     13 C1'        -1.9980   -0.9730    0.6590 ca        1 A32      0.110100
     14 C2'        -2.6020   -2.1880    1.0180 ca        1 A32     -0.078000
     15 C3'        -3.9690   -2.3490    0.7570 ca        1 A32     -0.158200
     16 C4'        -4.7250   -1.3350    0.1470 ca        1 A32     -0.076000
     17 C5'        -4.0970   -0.1370   -0.1940 ca        1 A32     -0.118600
     18 C6'        -2.7340    0.0550    0.0570 ca        1 A32     -0.094000
     19 N1'        -4.6340   -3.6280    1.1310 no        1 A32      0.314200
     20 O1'        -5.8140   -3.7440    0.9390 o         1 A32     -0.201500
     21 O2'        -3.9730   -4.5060    1.6170 o         1 A32     -0.201500
     22 C7'        -4.8410    0.9750   -0.8650 c         1 A32      0.670700
     23 O3'        -4.3020    1.6450   -1.7690 o         1 A32     -0.594100
     24 N2'        -6.1100    1.2530   -0.4050 n         1 A32     -0.559900
     25 O1B       -13.0170    2.4530   -3.6220 os        1 A32     -0.414600
     26 C2B       -12.0760    3.1160   -4.4580 c3        1 A32      0.126400
     27 C3B       -10.8180    3.5220   -3.6830 c3        1 A32      0.131300
     28 N4'       -10.2180    2.4030   -2.9640 n3        1 A32     -0.725600
     29 C5B       -11.2020    1.6670   -2.1810 c3        1 A32      0.131300
     30 C6B       -12.4550    1.3100   -2.9880 c3        1 A32      0.126400
     31 C7B        -9.0690    2.8320   -2.1770 c3        1 A32      0.173800
     32 C8'        -8.2340    1.6730   -1.6330 c3        1 A32     -0.106400
     33 C9'        -6.9550    2.2430   -1.0160 c3        1 A32      0.085000
     34 H11        -0.1960   -0.0220   -0.9060 h2        1 A32      0.108700
     35 H21         2.2370    0.0660   -0.4110 h1        1 A32      0.117700
     36 HO21        1.1150   -2.3550    0.5420 ho        1 A32      0.417000
     37 H31         1.5450   -0.8950    2.4790 h1        1 A32      0.060700
     38 HO31        3.6590   -1.3130    1.3930 ho        1 A32      0.427000
     39 H41         2.1630    1.3950    3.2070 h1        1 A32      0.062700
     40 HO41        3.5830    1.7730    1.3810 ho        1 A32      0.426000
     41 H51        -0.2090    1.0280    2.6720 h1        1 A32      0.070700
     42 H61         0.5140    3.4320    3.1210 h1        1 A32      0.068700
     43 H62         0.7600    3.6730    1.3120 h1        1 A32      0.068700
     44 HO1        -1.4920    3.2120    1.1430 ho        1 A32      0.411000
     45 H2'1       -2.0100   -2.9860    1.4980 ha        1 A32      0.185000
     46 H4'1       -5.7950   -1.5040   -0.0680 ha        1 A32      0.174000
     47 H6'1       -2.2520    1.0090   -0.2210 ha        1 A32      0.186000
     48 HN21       -6.5210    0.6600    0.2760 hn        1 A32      0.313500
     49 H2'2      -11.8120    2.4540   -5.3250 h1        1 A32      0.054700
     50 H3'1      -11.0880    4.3670   -2.9840 h1        1 A32      0.040700
     51 H3'2      -10.0560    3.9060   -4.4170 h1        1 A32      0.040700
     52 H5'1      -11.5200    2.2440   -1.2640 h1        1 A32      0.040700
     53 H5'2      -10.7200    0.7090   -1.8380 h1        1 A32      0.040700
     54 H6A1      -13.2640    0.9440   -2.3030 h1        1 A32      0.054700
     55 H6'2      -12.2200    0.5310   -3.7600 h1        1 A32      0.054700
     56 H7'1       -9.3800    3.4860   -1.3090 h1        1 A32      0.035200
     57 H7'2       -8.4150    3.4540   -2.8520 h1        1 A32      0.035200
     58 H8'1       -7.9800    0.9590   -2.4590 hc        1 A32      0.054200
     59 H8'2       -8.8170    1.1080   -0.8600 hc        1 A32      0.054200
     60 H9'1       -7.2380    2.9940   -0.2210 h1        1 A32      0.066200
     61 H9'2       -6.3660    2.7840   -1.8120 h1        1 A32      0.066200
     62 H2A1      -12.6170    4.0290   -4.8200 h1        1 A32      0.054700
@<TRIPOS>BOND
     1    1    2 1   
     2    1    3 1   
     3    1   10 1   
     4    1   34 1   
     5    2   13 1   
     6    3    4 1   
     7    3    5 1   
     8    3   35 1   
     9    4   36 1   
    10    5    6 1   
    11    5    7 1   
    12    5   37 1   
    13    6   38 1   
    14    7    8 1   
    15    7    9 1   
    16    7   39 1   
    17    8   40 1   
    18    9   10 1   
    19    9   11 1   
    20    9   41 1   
    21   11   12 1   
    22   11   42 1   
    23   11   43 1   
    24   12   44 1   
    25   13   14 ar  
    26   13   18 ar  
    27   14   15 ar  
    28   14   45 1   
    29   15   16 ar  
    30   15   19 1   
    31   16   17 ar  
    32   16   46 1   
    33   17   18 ar  
    34   17   22 1   
    35   18   47 1   
    36   19   20 1   
    37   19   21 1   
    38   22   23 2   
    39   22   24 1   
    40   24   33 1   
    41   24   48 1   
    42   25   26 1   
    43   25   30 1   
    44   26   27 1   
    45   26   49 1   
    46   26   62 1   
    47   27   28 1   
    48   27   50 1   
    49   27   51 1   
    50   28   29 1   
    51   28   31 1   
    52   29   30 1   
    53   29   52 1   
    54   29   53 1   
    55   30   54 1   
    56   30   55 1   
    57   31   32 1   
    58   31   56 1   
    59   31   57 1   
    60   32   33 1   
    61   32   58 1   
    62   32   59 1   
    63   33   60 1   
    64   33   61 1   
@<TRIPOS>SUBSTRUCTURE
     1 A32         1 TEMP              0 ****  ****    0 ROOT
