@<TRIPOS>MOLECULE
A33
   19    16     1     0     0
SMALL
bcc


@<TRIPOS>ATOM
      1 C1         -0.6050    1.3970   -1.8540 c1        1 A33      0.334000
      2 C2         -0.9150    0.0860   -1.1650 c2        1 A33     -0.217000
      3 C3         -0.1390    0.0020    0.1310 c3        1 A33      0.000000
      4 C4          0.2380   -1.4380    0.4000 c3        1 A33     -0.168000
      5 C5          1.1540   -1.5020    1.6030 c2        1 A33      0.321000
      6 O92         1.2780    1.8320    0.7820 o         1 A33     -0.620000
      7 C9          1.1150    0.8410    0.0230 c1        1 A33      0.340000
      8 O91         1.9970    0.5480   -0.8270 os        1 A33     -0.642000
      9 O12         0.3190    1.4570   -2.7070 o         1 A33     -0.645500
     10 O11        -1.2720    2.4280   -1.5750 o         1 A33     -0.645500
     11 NZ         -0.9440    0.4890    1.1980 n3        1 A33     -0.323000
     12 O51         0.6680   -1.4960    2.7650 o         1 A33     -0.642500
     13 O52         2.4010   -1.5630    1.4430 o         1 A33     -0.642500
     14 H21        -1.8730    0.0360   -0.9750 ha        1 A33      0.074500
     15 H22        -0.6590   -0.6570   -1.7470 ha        1 A33      0.074500
     16 H41        -0.5700   -1.9590    0.5770 hc        1 A33      0.063500
     17 H42         0.6990   -1.8050   -0.3800 hc        1 A33      0.063500
     18 HZ1        -1.2080    1.3470    1.0150 hn        1 A33      0.137500
     19 HZ2        -1.6830   -0.0440    1.2910 hn        1 A33      0.137500
@<TRIPOS>BOND
     1    1    9 1   
     2    1   10 1   
     3    2    3 1   
     4    2   14 1   
     5    2   15 1   
     6    3    4 1   
     7    3    7 1   
     8    3   11 1   
     9    4    5 1   
    10    4   16 1   
    11    4   17 1   
    12    5   12 1   
    13    5   13 1   
    14    6    7 1   
    15   11   18 1   
    16   11   19 1   
@<TRIPOS>SUBSTRUCTURE
     1 A33         1 TEMP              0 ****  ****    0 ROOT
