@<TRIPOS>MOLECULE
A33
   19    18     1     0     0
SMALL
bcc


@<TRIPOS>ATOM
      1 C1          2.2870    1.2320    0.2750 c         1 A33      0.910100
      2 C2          0.9320    1.1030   -0.4170 c3        1 A33     -0.167900
      3 C3         -0.0240   -0.0540   -0.0340 c3        1 A33      0.107200
      4 C4         -1.4610    0.3440   -0.4670 c3        1 A33     -0.167900
      5 C5         -2.2310    1.4190    0.2930 c         1 A33      0.910100
      6 O92         0.0760   -1.2570   -2.1710 o         1 A33     -0.895300
      7 C9          0.3380   -1.3010   -0.9260 c         1 A33      0.918600
      8 O91         0.8650   -2.3410   -0.4200 o         1 A33     -0.895300
      9 O12         2.4480    1.0130    1.5190 o         1 A33     -0.910550
     10 O11         3.2710    1.6690   -0.4160 o         1 A33     -0.910550
     11 NZ          0.0100   -0.3840    1.3920 n3        1 A33     -0.881800
     12 O51        -1.8450    2.6320    0.3080 o         1 A33     -0.910550
     13 O52        -3.3560    1.1120    0.8170 o         1 A33     -0.910550
     14 H21         0.3900    2.0670   -0.2060 hc        1 A33      0.033700
     15 H22         1.1110    1.0390   -1.5210 hc        1 A33      0.033700
     16 H41        -1.3830    0.6830   -1.5340 hc        1 A33      0.033700
     17 H42        -2.0840   -0.5890   -0.4510 hc        1 A33      0.033700
     18 HZ1         0.8440   -0.9250    1.5470 hn        1 A33      0.334300
     19 HZ2         0.1250    0.4780    1.8980 hn        1 A33      0.334300
@<TRIPOS>BOND
     1    1    2 1   
     2    1    9 1   
     3    1   10 1   
     4    2    3 1   
     5    2   14 1   
     6    2   15 1   
     7    3    4 1   
     8    3    7 1   
     9    3   11 1   
    10    4    5 1   
    11    4   16 1   
    12    4   17 1   
    13    5   12 1   
    14    5   13 1   
    15    6    7 1   
    16    7    8 1   
    17   11   18 1   
    18   11   19 1   
@<TRIPOS>SUBSTRUCTURE
     1 A33         1 TEMP              0 ****  ****    0 ROOT
