@<TRIPOS>MOLECULE
A34
   37    39     1     0     0
SMALL
bcc


@<TRIPOS>ATOM
      1 P          -4.3890   -0.4700   -1.0820 p5        1 A34      1.330900
      2 O1P        -3.6740   -1.5550   -1.8350 o         1 A34     -0.929833
      3 O2P        -5.8300   -0.6750   -0.7340 o         1 A34     -0.929833
      4 O3P        -3.9650    0.9320   -1.4720 o         1 A34     -0.929833
      5 O5'        -3.5760   -0.5410    0.4650 os        1 A34     -0.553200
      6 N9          1.5190    0.6300    0.2560 na        1 A34     -0.258000
      7 C4          2.9120    0.7200    0.3420 ca        1 A34      0.428800
      8 N3          3.7330    1.6830    0.8660 nb        1 A34     -0.713000
      9 C2          5.0410    1.3730    0.7580 ca        1 A34      0.639900
     10 N1          5.6480    0.2770    0.2170 nb        1 A34     -0.798000
     11 C6          4.8380   -0.6800   -0.3310 ca        1 A34      0.701200
     12 C11         6.7070   -2.2150   -0.7540 c3        1 A34      0.196100
     13 N6          5.3630   -1.7910   -1.0030 nh        1 A34     -0.840900
     14 C5          3.4200   -0.5090   -0.2760 ca        1 A34     -0.201200
     15 N7          2.3470   -1.3050   -0.6970 nc        1 A34     -0.593100
     16 C8          1.2430   -0.6080   -0.3640 cd        1 A34      0.462700
     17 C2'        -0.1090    2.4780   -0.2750 c3        1 A34     -0.130400
     18 C5'        -2.2160   -0.4480    0.3690 c3        1 A34      0.227400
     19 C4'        -1.7360    0.9710    0.7580 c3        1 A34      0.051100
     20 O4'        -0.4760    0.8850    1.4780 os        1 A34     -0.434600
     21 C1'         0.5500    1.5870    0.7980 c3        1 A34      0.252800
     22 C3'        -1.5260    1.9110   -0.4460 c3        1 A34      0.156100
     23 O3'        -2.4450    2.9790   -0.4270 oh        1 A34     -0.671800
     24 H2          5.7420    2.1230    1.1780 h5        1 A34      0.028100
     25 H111        6.8760   -2.5290    0.3130 h1        1 A34      0.029700
     26 H112        6.9320   -3.0870   -1.4240 h1        1 A34      0.029700
     27 H113        7.4200   -1.3810   -0.9900 h1        1 A34      0.029700
     28 H6          4.7000   -2.5280   -1.1260 hn        1 A34      0.431800
     29 H8          0.1940   -0.9280   -0.5280 h5        1 A34      0.128800
     30 H2'1       -0.1540    3.5280    0.1070 hc        1 A34      0.054700
     31 H2'2        0.4440    2.4790   -1.2420 hc        1 A34      0.054700
     32 H5'1       -1.8680   -0.6960   -0.6750 h1        1 A34     -0.004800
     33 H5'2       -1.7310   -1.1670    1.0960 h1        1 A34     -0.004800
     34 H4'        -2.4590    1.4220    1.4890 h1        1 A34      0.081700
     35 H1'         1.1030    2.1900    1.5770 h2        1 A34      0.072700
     36 H3'        -1.6290    1.3450   -1.4140 h1        1 A34      0.103700
     37 HA         -3.2900    2.5960   -0.7610 ho        1 A34      0.501000
@<TRIPOS>BOND
     1    1    2 1   
     2    1    3 1   
     3    1    4 1   
     4    1    5 1   
     5    5   18 1   
     6    6    7 1   
     7    6   16 1   
     8    6   21 1   
     9    7    8 ar  
    10    7   14 ar  
    11    8    9 ar  
    12    9   10 ar  
    13    9   24 1   
    14   10   11 ar  
    15   11   13 1   
    16   11   14 ar  
    17   12   13 1   
    18   12   25 1   
    19   12   26 1   
    20   12   27 1   
    21   13   28 1   
    22   14   15 1   
    23   15   16 2   
    24   16   29 1   
    25   17   21 1   
    26   17   22 1   
    27   17   30 1   
    28   17   31 1   
    29   18   19 1   
    30   18   32 1   
    31   18   33 1   
    32   19   20 1   
    33   19   22 1   
    34   19   34 1   
    35   20   21 1   
    36   21   35 1   
    37   22   23 1   
    38   22   36 1   
    39   23   37 1   
@<TRIPOS>SUBSTRUCTURE
     1 A34         1 TEMP              0 ****  ****    0 ROOT
