@<TRIPOS>MOLECULE
A34
   37    32     1     0     0
SMALL
bcc


@<TRIPOS>ATOM
      1 P           2.4240   -0.4020    4.8050 p3        1 A34      2.523000
      2 O1P         3.5410    0.4980    4.3670 o         1 A34     -1.260500
      3 O2P         1.5580    0.3180    5.7910 os        1 A34     -1.227000
      4 O3P         2.9840   -1.6010    5.4290 o         1 A34     -1.260500
      5 O5'         1.5600   -0.8170    3.5480 os        1 A34     -0.715000
      6 N9          0.0830   -0.1870   -1.1210 n2        1 A34     -0.176000
      7 C4         -1.0020    0.5730   -0.7750 c1        1 A34      0.022000
      8 N3         -1.7490    0.6250    0.3550 n1        1 A34     -0.178000
      9 C2         -2.8040    1.5000    0.4440 c1        1 A34     -0.020000
     10 N1         -3.1060    2.3290   -0.6180 n1        1 A34     -0.285000
     11 C6         -2.3740    2.2810   -1.7300 c1        1 A34      0.181000
     12 C11        -3.0600    4.1660   -3.2430 c3        1 A34     -0.087000
     13 N6         -3.4180    3.0350   -2.4220 n3        1 A34     -0.286000
     14 C5         -1.2960    1.3870   -1.8220 c1        1 A34     -0.198000
     15 N7         -0.4000    1.1340   -2.8140 n1        1 A34     -0.178000
     16 C8          0.4540    0.1560   -2.3740 c1        1 A34      0.022000
     17 C2'         0.9940   -2.3450   -0.8620 c3        1 A34     -0.209000
     18 C5'         2.2330   -1.3740    2.4000 c3        1 A34      0.077000
     19 C4'         1.1770   -1.9340    1.3970 c3        1 A34     -0.060000
     20 O4'         0.3520   -1.0340    1.0860 os        1 A34     -0.292000
     21 C1'        -0.0120   -1.3230   -0.3820 c2        1 A34      0.162000
     22 C3'         1.8940   -2.3720    0.0390 c3        1 A34      0.045000
     23 O3'         2.4540   -3.7830    0.1740 oh        1 A34     -0.399000
     24 H2         -3.3470    1.5370    1.2700 ha        1 A34      0.164000
     25 H111       -2.1530    4.0140   -3.6380 h1        1 A34      0.083667
     26 H112       -3.0440    5.0010   -2.6770 h1        1 A34      0.083667
     27 H113       -3.7490    4.2760   -3.9960 h1        1 A34      0.083667
     28 H6         -4.2880    2.8350   -2.2840 hn        1 A34      0.196000
     29 H8          1.1520   -0.3370   -2.9500 DU        1 A34      0.258000
     30 H2'1        0.5660   -3.2410   -0.9480 hc        1 A34      0.093500
     31 H2'2        1.3600   -2.0780   -1.6760 hc        1 A34      0.093500
     32 H5'1        2.8280   -2.1040    2.6890 h1        1 A34      0.034500
     33 H5'2        2.7630   -0.6720    1.9570 h1        1 A34      0.034500
     34 H4'         0.7290   -2.6650    1.7750 h1        1 A34      0.120000
     35 H1'        -0.9440   -1.7020   -0.4400 h4        1 A34      0.112000
     36 H3'         2.6340   -1.7200   -0.1910 h1        1 A34      0.142000
     37 HA          3.0060   -3.9730   -0.5660 ho        1 A34      0.300000
@<TRIPOS>BOND
     1    1    2 1   
     2    1    4 1   
     3    1    5 1   
     4    5   18 1   
     5    6    7 1   
     6    6   16 1   
     7    7    8 1   
     8    9   10 1   
     9    9   24 1   
    10   11   13 1   
    11   11   14 1   
    12   12   13 1   
    13   12   25 1   
    14   12   26 1   
    15   12   27 1   
    16   13   28 1   
    17   15   16 1   
    18   17   21 1   
    19   17   22 1   
    20   17   30 1   
    21   17   31 1   
    22   18   19 1   
    23   18   32 1   
    24   18   33 1   
    25   19   20 1   
    26   19   22 1   
    27   19   34 1   
    28   20   21 1   
    29   21   35 1   
    30   22   23 1   
    31   22   36 1   
    32   23   37 1   
@<TRIPOS>SUBSTRUCTURE
     1 A34         1 TEMP              0 ****  ****    0 ROOT
