@<TRIPOS>MOLECULE
A35
   39    41     1     0     0
SMALL
bcc


@<TRIPOS>ATOM
      1 N1          5.2980    0.7020    0.1470 nb        1 A35     -0.826000
      2 C2          4.8920   -0.5500   -0.2960 ca        1 A35      0.853900
      3 C4          2.6600   -0.1570    0.0600 ca        1 A35      0.463800
      4 C5          2.9670    1.1740    0.5830 ca        1 A35     -0.228200
      5 C6          4.3390    1.5520    0.6190 ca        1 A35      0.722200
      6 C8          0.7990    0.9650    0.6410 cc        1 A35      0.458700
      7 N2          5.9240   -1.4780   -0.6550 nh        1 A35     -0.810900
      8 N3          3.6040   -1.0320   -0.3860 nb        1 A35     -0.762000
      9 N9          1.2660   -0.2690    0.1270 na        1 A35     -0.265000
     10 N7          1.7800    1.8370    0.9310 nd        1 A35     -0.586100
     11 N6          4.7060    2.7750    1.1840 nh        1 A35     -0.931500
     12 P          -4.8260    0.2800    0.8680 p5        1 A35      1.330900
     13 O1P        -4.2930   -1.0100    1.4580 o         1 A35     -0.930500
     14 O2P        -4.3020    1.5180    1.5370 o         1 A35     -0.930500
     15 O5'        -3.8890    0.2700   -0.6080 os        1 A35     -0.554200
     16 C5'        -2.5420    0.3490   -0.3990 c3        1 A35      0.227400
     17 C4'        -1.8790   -1.0380   -0.5740 c3        1 A35      0.052100
     18 O4'        -0.5770   -0.8880   -1.2020 os        1 A35     -0.435600
     19 C1'         0.4550   -1.3840   -0.3650 c3        1 A35      0.252800
     20 C2'        -0.1980   -2.2180    0.7570 c3        1 A35     -0.130400
     21 C3'        -1.6770   -1.8050    0.7490 c3        1 A35      0.156100
     22 O3'        -2.4700   -2.9680    0.7930 oh        1 A35     -0.671800
     23 O3P        -6.2430    0.2750    0.3870 o         1 A35     -0.930500
     24 CH2         7.1390   -0.9460   -1.2040 c3        1 A35      0.183100
     25 H8         -0.2890    1.1400    0.7590 h5        1 A35      0.126800
     26 H2          5.5610   -2.2410   -1.1950 hn        1 A35      0.398800
     27 H6N1        5.5900    3.1420    0.9190 hn        1 A35      0.409800
     28 H6N2        3.9660    3.4380    1.2370 hn        1 A35      0.409800
     29 H5'1       -2.3170    0.7530    0.6300 h1        1 A35     -0.004300
     30 H5'2       -2.0740    1.0330   -1.1690 h1        1 A35     -0.004300
     31 H4'        -2.4820   -1.6510   -1.2960 h1        1 A35      0.080700
     32 H1'         1.1320   -2.0060   -1.0220 h2        1 A35      0.072700
     33 H2'1       -0.0960   -3.3020    0.5050 hc        1 A35      0.054200
     34 H2'2        0.2640   -2.0440    1.7550 hc        1 A35      0.054200
     35 H3'        -1.9250   -1.1490    1.6300 h1        1 A35      0.101700
     36 HA         -3.3780   -2.6510    1.0110 ho        1 A35      0.501000
     37 HH21        7.6680   -0.3350   -0.4260 h1        1 A35      0.030367
     38 HH22        7.7970   -1.8090   -1.4930 h1        1 A35      0.030367
     39 HH23        6.9790   -0.3000   -2.1100 h1        1 A35      0.030367
@<TRIPOS>BOND
     1    1    2 ar  
     2    1    5 ar  
     3    2    7 1   
     4    2    8 ar  
     5    3    4 ar  
     6    3    8 ar  
     7    3    9 1   
     8    4    5 ar  
     9    4   10 1   
    10    5   11 1   
    11    6    9 1   
    12    6   10 2   
    13    6   25 1   
    14    7   24 1   
    15    7   26 1   
    16    9   19 1   
    17   11   27 1   
    18   11   28 1   
    19   12   13 1   
    20   12   14 1   
    21   12   15 1   
    22   12   23 1   
    23   15   16 1   
    24   16   17 1   
    25   16   29 1   
    26   16   30 1   
    27   17   18 1   
    28   17   21 1   
    29   17   31 1   
    30   18   19 1   
    31   19   20 1   
    32   19   32 1   
    33   20   21 1   
    34   20   33 1   
    35   20   34 1   
    36   21   22 1   
    37   21   35 1   
    38   22   36 1   
    39   24   37 1   
    40   24   38 1   
    41   24   39 1   
@<TRIPOS>SUBSTRUCTURE
     1 A35         1 TEMP              0 ****  ****    0 ROOT
