@<TRIPOS>MOLECULE
A35
   39    33     1     0     0
SMALL
bcc


@<TRIPOS>ATOM
      1 N1         -2.3460   -0.0540   -3.6800 n1        1 A35     -0.296000
      2 C2         -0.9730   -0.0960   -3.7250 c1        1 A35      0.133000
      3 C4         -0.8870    0.1050   -1.3580 c1        1 A35     -0.082500
      4 C5         -2.2430    0.1460   -1.3110 c1        1 A35     -0.082500
      5 C6         -2.9820    0.0660   -2.4900 c1        1 A35      0.199000
      6 C8         -1.4920    0.3030    0.7580 c1        1 A35      0.004000
      7 N2         -0.1240   -0.3790   -4.8650 n3        1 A35     -0.254000
      8 N3         -0.2450   -0.0160   -2.5640 n1        1 A35     -0.235000
      9 N9         -0.4190    0.2020   -0.0820 n1        1 A35     -0.171500
     10 N7         -2.6160    0.2690    0.0070 n1        1 A35     -0.171500
     11 N6         -4.4250    0.2020   -2.5980 n3        1 A35     -0.329000
     12 P           1.3200   -1.7670    5.8900 p3        1 A35      2.523000
     13 O1P         2.4570   -1.1550    6.6030 o         1 A35     -1.251500
     14 O2P         0.0750   -1.1100    6.3020 os        1 A35     -1.247000
     15 O5'         1.5190   -1.5910    4.3340 os        1 A35     -0.715000
     16 C5'         1.3360   -0.2630    3.7510 c3        1 A35      0.077000
     17 C4'         1.7210   -0.2950    2.3100 c3        1 A35     -0.059000
     18 O4'         0.7900   -0.8730    1.6120 os        1 A35     -0.292000
     19 C1'         0.8030   -0.1500    0.2640 c2        1 A35      0.163000
     20 C2'         1.6850    1.1150    0.4650 c3        1 A35     -0.209000
     21 C3'         1.8480    1.2100    1.7340 c3        1 A35      0.045000
     22 O3'         3.1750    1.7620    2.0330 oh        1 A35     -0.400000
     23 O3P         1.2470   -3.2610    6.2260 o         1 A35     -1.251500
     24 CH2        -0.6310   -0.1930   -6.2070 c3        1 A35     -0.095000
     25 H8         -1.4560    0.2580    1.7780 DU        1 A35      0.256000
     26 H2          0.7390   -0.5680   -4.7390 hn        1 A35      0.193000
     27 H6N1       -4.9350    0.2660   -1.8410 hn        1 A35      0.204500
     28 H6N2       -4.8160    0.1560   -3.3920 hn        1 A35      0.204500
     29 H5'1        0.3880    0.0060    3.8290 h1        1 A35      0.034500
     30 H5'2        1.9130    0.3990    4.2390 h1        1 A35      0.034500
     31 H4'         2.5430   -0.7560    2.2000 h1        1 A35      0.120000
     32 H1'         1.1940   -0.7250   -0.4210 h4        1 A35      0.110000
     33 H2'1        2.5630    1.0030    0.0080 hc        1 A35      0.092500
     34 H2'2        1.2480    1.8630    0.1420 hc        1 A35      0.092500
     35 H3'         1.1770    1.7590    2.1070 h1        1 A35      0.142000
     36 HA          3.0950    2.6420    2.2500 ho        1 A35      0.300000
     37 HH21       -1.4640   -0.7750   -6.3400 h1        1 A35      0.069667
     38 HH22        0.0870   -0.4660   -6.8860 h1        1 A35      0.069667
     39 HH23       -0.8670    0.7590   -6.3410 h1        1 A35      0.069667
@<TRIPOS>BOND
     1    1    5 1   
     2    2    7 1   
     3    2    8 1   
     4    3    4 1   
     5    5   11 1   
     6    6    9 1   
     7    6   10 1   
     8    7   24 1   
     9    7   26 1   
    10   11   27 1   
    11   11   28 1   
    12   12   13 1   
    13   12   15 1   
    14   12   23 1   
    15   15   16 1   
    16   16   17 1   
    17   16   29 1   
    18   16   30 1   
    19   17   18 1   
    20   17   21 1   
    21   17   31 1   
    22   18   19 1   
    23   19   20 1   
    24   19   32 1   
    25   20   21 1   
    26   20   33 1   
    27   20   34 1   
    28   21   22 1   
    29   21   35 1   
    30   22   36 1   
    31   24   37 1   
    32   24   38 1   
    33   24   39 1   
@<TRIPOS>SUBSTRUCTURE
     1 A35         1 TEMP              0 ****  ****    0 ROOT
