@<TRIPOS>MOLECULE
A36
   42    41     1     0     0
SMALL
bcc


@<TRIPOS>ATOM
      1 S          -0.5190   -0.6000   -1.2020 s4        1 A36      1.571500
      2 N1          1.8390   -0.5350   -0.4600 n8        1 A36     -0.992800
      3 O1         -0.6230    0.7260   -0.9530 o         1 A36     -0.405400
      4 C2         -2.9660   -2.8660   -1.1780 ca        1 A36     -0.057500
      5 N2          4.9510    0.7120   -2.3370 nx        1 A36     -0.690400
      6 O2         -0.1160   -1.0850   -2.4010 o         1 A36     -0.405400
      7 C3         -2.5220   -1.8210   -0.3510 ca        1 A36     -0.252300
      8 C4         -1.0630   -1.6510   -0.0800 c3        1 A36     -0.355800
      9 C6          6.6190   -1.1400   -2.7560 c3        1 A36     -0.139600
     10 C7         -3.4580   -1.0090    0.3130 ca        1 A36     -0.057500
     11 C8         -4.8170   -1.1970    0.1130 ca        1 A36     -0.160500
     12 C9         -5.2610   -2.2300   -0.7440 ca        1 A36      0.224900
     13 C10        -4.3220   -3.0670   -1.3890 ca        1 A36     -0.160500
     14 C11         2.6370    0.0420   -1.5280 c3        1 A36      0.105800
     15 C12         4.1490    0.1260   -1.2220 c3        1 A36      0.070800
     16 C13         4.8640    2.2170   -2.3420 c3        1 A36      0.111800
     17 C15         6.3910    0.2660   -2.2490 c3        1 A36      0.111800
     18 C14         5.1660    2.8280   -3.6940 c3        1 A36     -0.139600
     19 F01        -6.5750   -2.4210   -0.9400 f         1 A36     -0.080900
     20 H1          2.1690   -1.4580   -0.2290 hn        1 A36      0.404800
     21 H41C       -0.9430   -1.3210    0.9970 h1        1 A36      0.188700
     22 H42C       -0.5810   -2.6760   -0.0970 h1        1 A36      0.188700
     23 H111        2.2340    1.0780   -1.7330 h1        1 A36      0.101200
     24 H112        2.4740   -0.5880   -2.4530 h1        1 A36      0.101200
     25 H2         -2.2420   -3.5430   -1.6610 ha        1 A36      0.153500
     26 H10        -4.6780   -3.8820   -2.0410 ha        1 A36      0.191000
     27 H121        4.3270    0.7530   -0.3000 hx        1 A36      0.112700
     28 H122        4.5450   -0.9140   -1.0220 hx        1 A36      0.112700
     29 H131        5.5860    2.6040   -1.5660 hx        1 A36      0.108200
     30 H132        3.8180    2.5020   -2.0290 hx        1 A36      0.108200
     31 H151        6.7150    0.3610   -1.1730 hx        1 A36      0.108200
     32 H152        6.9980    0.9900   -2.8700 hx        1 A36      0.108200
     33 H7         -3.1220   -0.2200    1.0060 ha        1 A36      0.153500
     34 H61C        7.7210   -1.3470   -2.7020 hc        1 A36      0.086033
     35 H62C        6.0980   -1.9070   -2.1330 hc        1 A36      0.086033
     36 H63C        6.3020   -1.2580   -3.8210 hc        1 A36      0.086033
     37 H8         -5.5580   -0.5600    0.6260 ha        1 A36      0.191000
     38 H141        5.0380    3.9400   -3.6030 hc        1 A36      0.086033
     39 H142        6.2160    2.6320   -4.0220 hc        1 A36      0.086033
     40 H143        4.4650    2.4630   -4.4840 hc        1 A36      0.086033
     41 H12         1.8860    0.0410    0.3660 hn        1 A36      0.404800
     42 H21         4.5720    0.3670   -3.2310 hn        1 A36      0.449800
@<TRIPOS>BOND
     1    1    3 1   
     2    1    6 1   
     3    1    8 1   
     4    2   14 1   
     5    2   20 1   
     6    2   41 1   
     7    4    7 ar  
     8    4   13 ar  
     9    4   25 1   
    10    5   15 1   
    11    5   16 1   
    12    5   17 1   
    13    5   42 1   
    14    7    8 1   
    15    7   10 ar  
    16    8   21 1   
    17    8   22 1   
    18    9   17 1   
    19    9   34 1   
    20    9   35 1   
    21    9   36 1   
    22   10   11 ar  
    23   10   33 1   
    24   11   12 ar  
    25   11   37 1   
    26   12   13 ar  
    27   12   19 1   
    28   13   26 1   
    29   14   15 1   
    30   14   23 1   
    31   14   24 1   
    32   15   27 1   
    33   15   28 1   
    34   16   18 1   
    35   16   29 1   
    36   16   30 1   
    37   17   31 1   
    38   17   32 1   
    39   18   38 1   
    40   18   39 1   
    41   18   40 1   
@<TRIPOS>SUBSTRUCTURE
     1 A36         1 TEMP              0 ****  ****    0 ROOT
