@<TRIPOS>MOLECULE
A36
   42    41     1     0     0
SMALL
bcc


@<TRIPOS>ATOM
      1 S          -0.5180   -0.6130   -1.2180 s4        1 A36      1.571500
      2 N1          1.8330   -0.5180   -0.4580 n3        1 A36     -0.992800
      3 O1         -0.6310    0.7170   -1.0020 o         1 A36     -0.405400
      4 C2         -2.9550   -2.8910   -1.1590 ca        1 A36     -0.057500
      5 N2          4.9510    0.7180   -2.3310 n4        1 A36     -0.690400
      6 O2         -0.1020   -1.1260   -2.4010 o         1 A36     -0.405400
      7 C3         -2.5220   -1.8230   -0.3540 ca        1 A36     -0.252300
      8 C4         -1.0670   -1.6400   -0.0750 c3        1 A36     -0.355800
      9 C6          6.6370   -1.1290   -2.7010 c3        1 A36     -0.139600
     10 C7         -3.4680   -1.0000    0.2810 ca        1 A36     -0.057500
     11 C8         -4.8240   -1.2000    0.0740 ca        1 A36     -0.160500
     12 C9         -5.2560   -2.2560   -0.7600 ca        1 A36      0.224900
     13 C10        -4.3070   -3.1040   -1.3760 ca        1 A36     -0.160500
     14 C11         2.6350    0.0450   -1.5290 c3        1 A36      0.105800
     15 C12         4.1440    0.1460   -1.2120 c3        1 A36      0.070800
     16 C13         4.8520    2.2220   -2.3650 c3        1 A36      0.111800
     17 C15         6.3930    0.2840   -2.2230 c3        1 A36      0.111800
     18 C14         5.1610    2.8090   -3.7260 c3        1 A36     -0.139600
     19 F01        -6.5680   -2.4580   -0.9620 f         1 A36     -0.080900
     20 H1          2.1670   -1.4350   -0.2070 hn        1 A36      0.404300
     21 H41C       -0.9580   -1.2830    0.9950 h1        1 A36      0.188700
     22 H42C       -0.5800   -2.6630   -0.0630 h1        1 A36      0.188700
     23 H111        2.2260    1.0740   -1.7560 h1        1 A36      0.101200
     24 H112        2.4850   -0.6030   -2.4440 h1        1 A36      0.101200
     25 H2         -2.2230   -3.5760   -1.6190 ha        1 A36      0.153500
     26 H10        -4.6540   -3.9370   -2.0110 ha        1 A36      0.191000
     27 H121        4.3100    0.7910   -0.3010 hx        1 A36      0.112700
     28 H122        4.5460   -0.8870   -0.9900 hx        1 A36      0.112700
     29 H131        5.5640    2.6280   -1.5910 hx        1 A36      0.108200
     30 H132        3.8020    2.5030   -2.0670 hx        1 A36      0.108200
     31 H151        6.7070    0.4020   -1.1470 hx        1 A36      0.108200
     32 H152        7.0010    1.0010   -2.8520 hx        1 A36      0.108200
     33 H7         -3.1420   -0.1920    0.9570 ha        1 A36      0.153500
     34 H61C        7.7400   -1.3260   -2.6340 hc        1 A36      0.086033
     35 H62C        6.1160   -1.8880   -2.0690 hc        1 A36      0.086033
     36 H63C        6.3300   -1.2700   -3.7670 hc        1 A36      0.086033
     37 H8         -5.5730   -0.5540    0.5650 ha        1 A36      0.191000
     38 H141        5.0240    3.9210   -3.6570 hc        1 A36      0.086033
     39 H142        6.2160    2.6160   -4.0410 hc        1 A36      0.086033
     40 H143        4.4700    2.4240   -4.5150 hc        1 A36      0.086033
     41 H12         1.8700    0.0720    0.3590 hn        1 A36      0.404300
     42 H21         4.5830    0.3530   -3.2220 hn        1 A36      0.449800
@<TRIPOS>BOND
     1    1    3 1   
     2    1    6 1   
     3    1    8 1   
     4    2   14 1   
     5    2   20 1   
     6    2   41 1   
     7    4    7 ar  
     8    4   13 ar  
     9    4   25 1   
    10    5   15 1   
    11    5   16 1   
    12    5   17 1   
    13    5   42 1   
    14    7    8 1   
    15    7   10 ar  
    16    8   21 1   
    17    8   22 1   
    18    9   17 1   
    19    9   34 1   
    20    9   35 1   
    21    9   36 1   
    22   10   11 ar  
    23   10   33 1   
    24   11   12 ar  
    25   11   37 1   
    26   12   13 ar  
    27   12   19 1   
    28   13   26 1   
    29   14   15 1   
    30   14   23 1   
    31   14   24 1   
    32   15   27 1   
    33   15   28 1   
    34   16   18 1   
    35   16   29 1   
    36   16   30 1   
    37   17   31 1   
    38   17   32 1   
    39   18   38 1   
    40   18   39 1   
    41   18   40 1   
@<TRIPOS>SUBSTRUCTURE
     1 A36         1 TEMP              0 ****  ****    0 ROOT
