@<TRIPOS>MOLECULE
A36
   42    41     1     0     0
SMALL
bcc


@<TRIPOS>ATOM
      1 S          -0.5170   -0.6180   -1.2010 s4        1 A36      1.571500
      2 N1          1.8440   -0.5580   -0.4660 n3        1 A36     -0.992800
      3 O1         -0.6270    0.7000   -0.9180 o         1 A36     -0.405400
      4 C2         -2.9530   -2.8970   -1.2230 ca        1 A36     -0.057500
      5 N2          4.9420    0.7480   -2.3240 n4        1 A36     -0.690400
      6 O2         -0.1160   -1.0710   -2.4130 o         1 A36     -0.405400
      7 C3         -2.5100   -1.8700   -0.3720 ca        1 A36     -0.252300
      8 C4         -1.0520   -1.7000   -0.1030 c3        1 A36     -0.355800
      9 C6          6.6190   -1.0850   -2.7900 c3        1 A36     -0.139600
     10 C7         -3.4480   -1.0800    0.3150 ca        1 A36     -0.057500
     11 C8         -4.8060   -1.2700    0.1160 ca        1 A36     -0.160500
     12 C9         -5.2480   -2.2840   -0.7640 ca        1 A36      0.224900
     13 C10        -4.3080   -3.1000   -1.4330 ca        1 A36     -0.160500
     14 C11         2.6350    0.0470   -1.5230 c3        1 A36      0.105800
     15 C12         4.1470    0.1320   -1.2190 c3        1 A36      0.070800
     16 C13         4.8470    2.2530   -2.2940 c3        1 A36      0.111800
     17 C15         6.3850    0.3080   -2.2500 c3        1 A36      0.111800
     18 C14         5.1410    2.8960   -3.6320 c3        1 A36     -0.139600
     19 F01        -6.5630   -2.4770   -0.9590 f         1 A36     -0.080900
     20 H1          1.8910   -0.0020    0.3730 hn        1 A36      0.404800
     21 H41C       -0.5640   -2.7220   -0.1470 h1        1 A36      0.188700
     22 H42C       -0.9280   -1.3960    0.9820 h1        1 A36      0.188700
     23 H111        2.4720   -0.5620   -2.4620 h1        1 A36      0.101200
     24 H112        2.2260    1.0850   -1.7020 h1        1 A36      0.101200
     25 H2         -2.2270   -3.5580   -1.7260 ha        1 A36      0.153500
     26 H10        -4.6630   -3.9010   -2.1050 ha        1 A36      0.191000
     27 H121        4.5490   -0.9100   -1.0450 hx        1 A36      0.112700
     28 H122        4.3250    0.7390   -0.2840 hx        1 A36      0.112700
     29 H131        3.8000    2.5240   -1.9710 hx        1 A36      0.108200
     30 H132        5.5690    2.6260   -1.5110 hx        1 A36      0.108200
     31 H151        6.7120    0.3800   -1.1740 hx        1 A36      0.108200
     32 H152        6.9870    1.0490   -2.8560 hx        1 A36      0.108200
     33 H7         -3.1130   -0.3060    1.0260 ha        1 A36      0.153500
     34 H61C        6.1040   -1.8680   -2.1830 hc        1 A36      0.086033
     35 H62C        7.7230   -1.2860   -2.7440 hc        1 A36      0.086033
     36 H63C        6.3000   -1.1800   -3.8570 hc        1 A36      0.086033
     37 H8         -5.5480   -0.6490    0.6470 ha        1 A36      0.191000
     38 H141        4.4400    2.5460   -4.4280 hc        1 A36      0.086033
     39 H142        5.0080    4.0040   -3.5150 hc        1 A36      0.086033
     40 H143        6.1910    2.7130   -3.9680 hc        1 A36      0.086033
     41 H12         2.1790   -1.4850   -0.2570 hn        1 A36      0.404800
     42 H21         4.5630    0.4220   -3.2240 hn        1 A36      0.449800
@<TRIPOS>BOND
     1    1    3 1   
     2    1    6 1   
     3    1    8 1   
     4    2   14 1   
     5    2   20 1   
     6    2   41 1   
     7    4    7 ar  
     8    4   13 ar  
     9    4   25 1   
    10    5   15 1   
    11    5   16 1   
    12    5   17 1   
    13    5   42 1   
    14    7    8 1   
    15    7   10 ar  
    16    8   21 1   
    17    8   22 1   
    18    9   17 1   
    19    9   34 1   
    20    9   35 1   
    21    9   36 1   
    22   10   11 ar  
    23   10   33 1   
    24   11   12 ar  
    25   11   37 1   
    26   12   13 ar  
    27   12   19 1   
    28   13   26 1   
    29   14   15 1   
    30   14   23 1   
    31   14   24 1   
    32   15   27 1   
    33   15   28 1   
    34   16   18 1   
    35   16   29 1   
    36   16   30 1   
    37   17   31 1   
    38   17   32 1   
    39   18   38 1   
    40   18   39 1   
    41   18   40 1   
@<TRIPOS>SUBSTRUCTURE
     1 A36         1 TEMP              0 ****  ****    0 ROOT
