@<TRIPOS>MOLECULE
A36
   40    40     1     0     0
SMALL
bcc


@<TRIPOS>ATOM
      1 S           0.2900    0.8760    0.4080 s6        1 A36      1.447900
      2 N1         -1.1290    1.2080   -0.2830 n3        1 A36     -0.929100
      3 O1          0.8140    2.0690    0.9440 o         1 A36     -0.647300
      4 C2          2.8880   -1.1220    0.1510 ca        1 A36     -0.090000
      5 N2         -4.5180   -0.4100   -0.1140 n3        1 A36     -0.747600
      6 O2          0.1790   -0.2420    1.2600 o         1 A36     -0.647300
      7 C3          2.6410    0.0360   -0.5990 ca        1 A36     -0.086300
      8 C4          1.2520    0.4050   -0.9620 c3        1 A36     -0.246300
      9 C6         -6.1300    0.9610   -1.4380 c3        1 A36     -0.093600
     10 C7          3.7170    0.8200   -1.0310 ca        1 A36     -0.090000
     11 C8          5.0260    0.4620   -0.7220 ca        1 A36     -0.163500
     12 C9          5.2650   -0.7030    0.0300 ca        1 A36      0.131900
     13 C10         4.1880   -1.4960    0.4700 ca        1 A36     -0.163500
     14 C11        -2.1600    0.2430   -0.5340 c3        1 A36      0.219800
     15 C12        -3.4950    0.5820    0.1780 c3        1 A36      0.159800
     16 C13        -4.4320   -1.5760    0.7580 c3        1 A36      0.172800
     17 C15        -5.8600    0.1530   -0.1780 c3        1 A36      0.172800
     18 C14        -5.0220   -2.8400    0.1520 c3        1 A36     -0.093600
     19 F01         6.5360   -1.0620    0.3320 f         1 A36     -0.139900
     20 H1         -1.3850    2.1380   -0.5170 hn        1 A36      0.450800
     21 H41C        0.7870   -0.4760   -1.4850 h1        1 A36      0.110700
     22 H42C        1.2810    1.2260   -1.7270 h1        1 A36      0.110700
     23 H111       -2.3510    0.1800   -1.6450 h1        1 A36      0.058700
     24 H112       -1.7980   -0.7670   -0.1840 h1        1 A36      0.058700
     25 H2          2.0410   -1.7300    0.5110 ha        1 A36      0.149500
     26 H10         4.3830   -2.4010    1.0630 ha        1 A36      0.152000
     27 H121       -3.8420    1.5900   -0.1850 h1        1 A36      0.039200
     28 H122       -3.3040    0.6720    1.2870 h1        1 A36      0.039200
     29 H131       -3.3420   -1.7720    0.9760 h1        1 A36      0.033450
     30 H132       -4.9380   -1.3820    1.7500 h1        1 A36      0.033450
     31 H151       -6.5950   -0.7020   -0.1510 h1        1 A36      0.033450
     32 H152       -6.0750    0.8050    0.7200 h1        1 A36      0.033450
     33 H7          3.5330    1.7330   -1.6170 ha        1 A36      0.149500
     34 H61C       -7.2040    1.2670   -1.4420 hc        1 A36      0.038700
     35 H62C       -5.5010    1.8830   -1.4790 hc        1 A36      0.038700
     36 H63C       -5.9270    0.3560   -2.3540 hc        1 A36      0.038700
     37 H8          5.8720    1.0790   -1.0570 ha        1 A36      0.152000
     38 H141       -4.5660   -3.0600   -0.8420 hc        1 A36      0.038700
     39 H142       -4.8120   -3.6950    0.8400 hc        1 A36      0.038700
     40 H143       -6.1270   -2.7560    0.0220 hc        1 A36      0.038700
@<TRIPOS>BOND
     1    1    2 1   
     2    1    3 2   
     3    1    6 2   
     4    1    8 1   
     5    2   14 1   
     6    2   20 1   
     7    4    7 ar  
     8    4   13 ar  
     9    4   25 1   
    10    5   15 1   
    11    5   16 1   
    12    5   17 1   
    13    7    8 1   
    14    7   10 ar  
    15    8   21 1   
    16    8   22 1   
    17    9   17 1   
    18    9   34 1   
    19    9   35 1   
    20    9   36 1   
    21   10   11 ar  
    22   10   33 1   
    23   11   12 ar  
    24   11   37 1   
    25   12   13 ar  
    26   12   19 1   
    27   13   26 1   
    28   14   15 1   
    29   14   23 1   
    30   14   24 1   
    31   15   27 1   
    32   15   28 1   
    33   16   18 1   
    34   16   29 1   
    35   16   30 1   
    36   17   31 1   
    37   17   32 1   
    38   18   38 1   
    39   18   39 1   
    40   18   40 1   
@<TRIPOS>SUBSTRUCTURE
     1 A36         1 TEMP              0 ****  ****    0 ROOT
