@<TRIPOS>MOLECULE
A36
   40    35     1     0     0
SMALL
bcc


@<TRIPOS>ATOM
      1 S          -1.5260   -0.8170   -0.0490 ss        1 A36      2.803000
      2 N1          0.1230   -0.5840    0.0340 n2        1 A36     -0.902000
      3 O1         -2.2480    0.4190    0.2200 o         1 A36     -0.926000
      4 C2         -4.4850   -2.6430    1.0970 c1        1 A36     -0.125000
      5 N2          2.9280    1.3710   -1.1320 n3        1 A36     -0.273000
      6 O2         -1.9440   -1.0980   -1.3900 o         1 A36     -0.926000
      7 C3         -3.4310   -1.8450    1.5480 c1        1 A36     -0.079000
      8 C4         -2.0280   -2.1160    1.0720 c2        1 A36     -0.793000
      9 C6          4.9630    0.2210   -0.6020 c3        1 A36     -0.211500
     10 C7         -3.6430   -0.9370    2.5690 c1        1 A36     -0.097000
     11 C8         -4.8980   -0.8180    3.1430 c1        1 A36     -0.160000
     12 C9         -5.9430   -1.6090    2.6960 c1        1 A36      0.097000
     13 C10        -5.7330   -2.5230    1.6700 c1        1 A36     -0.125000
     14 C11         0.8080    0.1640   -1.0200 c3        1 A36     -0.018000
     15 C12         1.7140    1.2540   -0.3780 c3        1 A36     -0.077000
     16 C13         2.9150    2.6270   -1.8890 c3        1 A36     -0.064000
     17 C15         4.0390    1.3640   -0.2440 c3        1 A36     -0.064000
     18 C14         3.2210    2.3450   -3.3190 c3        1 A36     -0.211500
     19 F01        -7.1400   -1.5000    3.2520 f         1 A36     -0.105000
     20 H1          0.6060   -0.9830    0.6940 hn        1 A36      0.245000
     21 H41C       -1.9990   -2.9740    0.6120 ha        1 A36      0.150000
     22 H42C       -1.4110   -2.1360    1.8510 ha        1 A36      0.150000
     23 H111        0.1360    0.5980   -1.6080 h1        1 A36      0.098500
     24 H112        1.3610   -0.4540   -1.5530 h1        1 A36      0.098500
     25 H2         -4.3380   -3.2810    0.3810 ha        1 A36      0.144000
     26 H10        -6.4800   -3.0870    1.3500 ha        1 A36      0.144000
     27 H121        1.2530    2.0970   -0.3830 h1        1 A36      0.078000
     28 H122        1.9280    0.9980    0.5600 h1        1 A36      0.078000
     29 H131        3.5940    3.2410   -1.5210 h1        1 A36      0.072750
     30 H132        2.0200    3.0460   -1.8200 h1        1 A36      0.072750
     31 H151        3.7230    1.2520    0.6720 h1        1 A36      0.072750
     32 H152        4.5200    2.2090   -0.3210 h1        1 A36      0.072750
     33 H7         -2.9060   -0.3780    2.8850 ha        1 A36      0.160000
     34 H61C        4.4330   -0.5310   -0.9720 hc        1 A36      0.078000
     35 H62C        5.6110    0.5230   -1.2710 hc        1 A36      0.078000
     36 H63C        5.4370   -0.0780    0.1990 hc        1 A36      0.078000
     37 H8         -5.0450   -0.1790    3.8610 ha        1 A36      0.153000
     38 H141        2.9410    1.4310   -3.5380 hc        1 A36      0.078000
     39 H142        4.1790    2.4370   -3.4710 hc        1 A36      0.078000
     40 H143        2.7450    2.9710   -3.8820 hc        1 A36      0.078000
@<TRIPOS>BOND
     1    1    3 1   
     2    1    6 1   
     3    2   14 1   
     4    2   20 1   
     5    4   13 1   
     6    4   25 1   
     7    5   15 1   
     8    5   16 1   
     9    5   17 1   
    10    7    8 1   
    11    7   10 1   
    12    8   21 1   
    13    8   22 1   
    14    9   17 1   
    15    9   34 1   
    16    9   35 1   
    17    9   36 1   
    18   10   33 1   
    19   11   12 1   
    20   11   37 1   
    21   12   19 1   
    22   13   26 1   
    23   14   15 1   
    24   14   23 1   
    25   14   24 1   
    26   15   27 1   
    27   15   28 1   
    28   16   18 1   
    29   16   29 1   
    30   16   30 1   
    31   17   31 1   
    32   17   32 1   
    33   18   38 1   
    34   18   39 1   
    35   18   40 1   
@<TRIPOS>SUBSTRUCTURE
     1 A36         1 TEMP              0 ****  ****    0 ROOT
