@<TRIPOS>MOLECULE
A37
   29    31     1     0     0
SMALL
bcc


@<TRIPOS>ATOM
      1 C           0.0670   -0.0090   -0.0440 ca        1 A37     -0.145000
      2 C2          1.4330   -0.2690    0.0130 ca        1 A37     -0.049000
      3 C3          2.0530   -0.4300    1.2570 ca        1 A37     -0.011600
      4 C4          1.3060   -0.3380    2.4320 ca        1 A37      0.002000
      5 C5         -0.0760   -0.0920    2.3940 ca        1 A37     -0.369500
      6 C6         -0.6750    0.0850    1.1370 ca        1 A37      0.130400
      7 S          -0.8940   -0.0650    3.8740 sy        1 A37      1.524200
      8 O          -1.9940   -0.9340    3.8510 o         1 A37     -0.623300
      9 O9          0.0240   -0.2640    4.9090 o         1 A37     -0.623300
     10 N          -1.5270    1.4670    3.9230 nu        1 A37     -0.794100
     11 C11        -0.8070    2.6410    3.9780 cc        1 A37      0.769500
     12 N12         0.5200    2.8490    3.8960 nd        1 A37     -0.597100
     13 C13         0.6700    4.2490    4.0170 ca        1 A37      0.093400
     14 C14         1.8040    5.0640    4.0120 ca        1 A37     -0.074000
     15 C15         1.5990    6.4410    4.1530 ca        1 A37      0.010400
     16 Cl1         2.9540    7.4700    4.1510 cl        1 A37     -0.086400
     17 C17         0.3230    7.0090    4.2970 ca        1 A37     -0.117000
     18 C18        -0.8250    6.2140    4.3060 ca        1 A37     -0.096000
     19 C19        -0.6270    4.8510    4.1660 ca        1 A37      0.024100
     20 O20        -1.5880    3.8370    4.1420 os        1 A37     -0.315700
     21 Cl2         3.7190   -0.7380    1.3370 cl        1 A37     -0.064400
     22 Cl3        -2.3330    0.4320    1.0150 cl        1 A37     -0.064400
     23 H          -0.4260    0.1260   -1.0200 ha        1 A37      0.162000
     24 H2          2.0190   -0.3420   -0.9170 ha        1 A37      0.159000
     25 H4          1.8070   -0.4550    3.4150 ha        1 A37      0.190000
     26 HN         -2.5170    1.6090    3.9210 hn        1 A37      0.481800
     27 H14         2.8110    4.6370    3.9040 ha        1 A37      0.170000
     28 H17         0.2210    8.1010    4.4050 ha        1 A37      0.155000
     29 H18        -1.8270    6.6460    4.4190 ha        1 A37      0.159000
@<TRIPOS>BOND
     1    1    2 ar  
     2    1    6 ar  
     3    1   23 1   
     4    2    3 ar  
     5    2   24 1   
     6    3    4 ar  
     7    3   21 1   
     8    4    5 ar  
     9    4   25 1   
    10    5    6 ar  
    11    5    7 1   
    12    6   22 1   
    13    7    8 2   
    14    7    9 2   
    15    7   10 1   
    16   10   11 1   
    17   10   26 1   
    18   11   12 2   
    19   11   20 1   
    20   12   13 1   
    21   13   14 ar  
    22   13   19 ar  
    23   14   15 ar  
    24   14   27 1   
    25   15   16 1   
    26   15   17 ar  
    27   17   18 ar  
    28   17   28 1   
    29   18   19 ar  
    30   18   29 1   
    31   19   20 1   
@<TRIPOS>SUBSTRUCTURE
     1 A37         1 TEMP              0 ****  ****    0 ROOT
