@<TRIPOS>MOLECULE
A37
   29    31     1     0     0
SMALL
bcc


@<TRIPOS>ATOM
      1 C           2.9990   -1.1670    1.8690 ca        1 A37     -0.145000
      2 C2          2.8620   -2.4260    1.2910 ca        1 A37     -0.049000
      3 C3          2.4430   -2.5320   -0.0400 ca        1 A37     -0.011600
      4 C4          2.1710   -1.3840   -0.7850 ca        1 A37      0.002000
      5 C5          2.3190   -0.1060   -0.2240 ca        1 A37     -0.369500
      6 C6          2.7220   -0.0210    1.1180 ca        1 A37      0.130400
      7 S           2.0250    1.2170   -1.2360 sy        1 A37      1.524200
      8 O           3.1090    2.1070   -1.2200 o         1 A37     -0.623300
      9 O9          1.6310    0.7540   -2.4950 o         1 A37     -0.623300
     10 N           0.7800    2.0030   -0.4720 nh        1 A37     -0.794100
     11 C11        -0.4910    1.5110   -0.2770 cc        1 A37      0.769500
     12 N12        -0.9990    0.2910   -0.5370 nd        1 A37     -0.597100
     13 C13        -2.3500    0.3730   -0.1320 ca        1 A37      0.093400
     14 C14        -3.3840   -0.5650   -0.1570 ca        1 A37     -0.074000
     15 C15        -4.6280   -0.1540    0.3330 ca        1 A37      0.010400
     16 CL1        -5.9160   -1.2680    0.3220 cl        1 A37     -0.086400
     17 C17        -4.8610    1.1380    0.8320 ca        1 A37     -0.117000
     18 C18        -3.8430    2.0920    0.8660 ca        1 A37     -0.096000
     19 C19        -2.6090    1.6900    0.3830 ca        1 A37      0.024100
     20 O20        -1.4300    2.4350    0.2990 os        1 A37     -0.315700
     21 CL2         2.2640   -4.0620   -0.7500 cl        1 A37     -0.064400
     22 CL3         2.8770    1.4900    1.8770 cl        1 A37     -0.064400
     23 H           3.3220   -1.0780    2.9180 ha        1 A37      0.162000
     24 H2          3.0790   -3.3310    1.8820 ha        1 A37      0.159000
     25 H4          1.8280   -1.4770   -1.8360 ha        1 A37      0.190000
     26 HN          0.9090    2.9250   -0.1060 hn        1 A37      0.481800
     27 H14        -3.2220   -1.5800   -0.5470 ha        1 A37      0.170000
     28 H17        -5.8620    1.4070    1.2040 ha        1 A37      0.155000
     29 H18        -4.0120    3.1060    1.2520 ha        1 A37      0.159000
@<TRIPOS>BOND
     1    1    2 ar  
     2    1    6 ar  
     3    1   23 1   
     4    2    3 ar  
     5    2   24 1   
     6    3    4 ar  
     7    3   21 1   
     8    4    5 ar  
     9    4   25 1   
    10    5    6 ar  
    11    5    7 1   
    12    6   22 1   
    13    7    8 2   
    14    7    9 2   
    15    7   10 1   
    16   10   11 1   
    17   10   26 1   
    18   11   12 2   
    19   11   20 1   
    20   12   13 1   
    21   13   14 ar  
    22   13   19 ar  
    23   14   15 ar  
    24   14   27 1   
    25   15   16 1   
    26   15   17 ar  
    27   17   18 ar  
    28   17   28 1   
    29   18   19 ar  
    30   18   29 1   
    31   19   20 1   
@<TRIPOS>SUBSTRUCTURE
     1 A37         1 TEMP              0 ****  ****    0 ROOT
