@<TRIPOS>MOLECULE
A37
   30    31     1     0     0
SMALL
bcc


@<TRIPOS>ATOM
      1 C           0.1740   -0.1120    0.0130 ca        1 A37     -0.147000
      2 C2          1.5220    0.2120    0.1390 ca        1 A37      0.028000
      3 C3          2.0850    0.3530    1.4190 ca        1 A37     -0.018600
      4 C4          1.2980    0.1570    2.5460 ca        1 A37      0.033000
      5 C5         -0.0770   -0.2040    2.4530 ca        1 A37     -0.563500
      6 C6         -0.6200   -0.3060    1.1440 ca        1 A37      0.161400
      7 S          -0.8210   -0.4690    3.8190 s4        1 A37      1.666300
      8 O          -1.9900   -1.1540    3.8250 o         1 A37     -0.412400
      9 O9         -0.1080   -0.2990    4.9590 o         1 A37     -0.412400
     10 N          -2.0700    1.5880    4.0940 nh        1 A37     -0.913800
     11 C11        -1.1800    2.6930    4.0400 cc        1 A37      0.596500
     12 N12         0.1340    2.6850    3.7880 nd        1 A37     -0.544100
     13 C13         0.5300    4.0370    3.8760 ca        1 A37      0.051400
     14 C14         1.7750    4.6570    3.7210 ca        1 A37     -0.055000
     15 C15         1.8170    6.0440    3.8820 ca        1 A37      0.009400
     16 CL1         3.3020    6.8420    3.7020 cl        1 A37     -0.042400
     17 C17         0.6720    6.8080    4.1900 ca        1 A37     -0.077000
     18 C18        -0.5770    6.2140    4.3510 ca        1 A37     -0.094000
     19 C19        -0.6230    4.8350    4.1910 ca        1 A37      0.054100
     20 O20        -1.7260    3.9870    4.2980 os        1 A37     -0.293700
     21 CL2         3.7140    0.7610    1.5850 cl        1 A37     -0.002400
     22 CL3        -2.2540   -0.6540    0.9100 cl        1 A37      0.001600
     23 H          -0.2700   -0.2130   -0.9950 ha        1 A37      0.193000
     24 H2          2.1430    0.3620   -0.7640 ha        1 A37      0.191000
     25 H4          1.7510    0.2890    3.5520 ha        1 A37      0.198000
     26 HN         -2.7960    1.7060    3.4000 hn        1 A37      0.433800
     27 H14         2.6790    4.0760    3.4880 ha        1 A37      0.173000
     28 H17         0.7670    7.9020    4.3070 ha        1 A37      0.176000
     29 H18        -1.4740    6.8010    4.5940 ha        1 A37      0.178000
     30 HN3        -2.5020    1.5590    5.0100 hn        1 A37      0.433800
@<TRIPOS>BOND
     1    1    2 ar  
     2    1    6 ar  
     3    1   23 1   
     4    2    3 ar  
     5    2   24 1   
     6    3    4 ar  
     7    3   21 1   
     8    4    5 ar  
     9    4   25 1   
    10    5    6 ar  
    11    5    7 1   
    12    6   22 1   
    13    7    8 1   
    14    7    9 1   
    15   10   11 1   
    16   10   26 1   
    17   10   30 1   
    18   11   12 2   
    19   11   20 1   
    20   12   13 1   
    21   13   14 ar  
    22   13   19 ar  
    23   14   15 ar  
    24   14   27 1   
    25   15   16 1   
    26   15   17 ar  
    27   17   18 ar  
    28   17   28 1   
    29   18   19 ar  
    30   18   29 1   
    31   19   20 1   
@<TRIPOS>SUBSTRUCTURE
     1 A37         1 TEMP              0 ****  ****    0 ROOT
