@<TRIPOS>MOLECULE
A37
   29    23     1     0     0
SMALL
bcc


@<TRIPOS>ATOM
      1 C          -1.3340   -4.4000   -2.5380 c1        1 A37     -0.096500
      2 C2         -2.4590   -4.7760   -1.8220 c1        1 A37     -0.096500
      3 C3         -2.7760   -4.1280   -0.6390 c1        1 A37     -0.026000
      4 C4         -1.9670   -3.1030   -0.1720 c1        1 A37     -0.014000
      5 C5         -0.8420   -2.7270   -0.8880 c1        1 A37     -0.815000
      6 C6         -0.5250   -3.3760   -2.0710 c1        1 A37     -0.026000
      7 S           0.2380   -1.4790   -0.2470 s4        1 A37      2.086800
      8 O           0.7350   -1.8370    1.0530 o         1 A37     -0.509400
      9 O9          1.4580   -1.4080   -1.0020 o         1 A37     -0.509400
     10 N          -0.5270   -0.0270   -0.2130 n2        1 A37     -0.781000
     11 C11         0.1510    1.1220    0.2690 c2        1 A37      0.198000
     12 N12         1.0220    1.9100   -0.4200 n2        1 A37     -0.162000
     13 C13         1.3740    2.9540    0.3850 c1        1 A37     -0.052000
     14 C14         2.2310    4.0520    0.1840 c1        1 A37     -0.075000
     15 C15         2.4090    4.9860    1.1920 c1        1 A37     -0.069000
     16 CL1         3.4780    6.3530    1.0100 cl        1 A37     -0.010000
     17 C17         1.7430    4.8400    2.3990 c2        1 A37     -0.116000
     18 C18         0.8980    3.7580    2.5980 c1        1 A37     -0.092000
     19 C19         0.7170    2.8090    1.5740 c1        1 A37     -0.012000
     20 O20        -0.0380    1.6780    1.5020 o         1 A37     -0.144000
     21 CL2        -4.1610   -4.6360    0.2890 cl        1 A37      0.022500
     22 CL3         0.9060   -2.9220   -2.9580 cl        1 A37      0.022500
     23 H          -1.1110   -4.8570   -3.3710 ha        1 A37      0.163000
     24 H2         -3.0280   -5.4970   -2.1510 ha        1 A37      0.163000
     25 H4         -2.1910   -2.6470    0.6610 ha        1 A37      0.189000
     26 HN         -1.3880    0.0420   -0.5080 hn        1 A37      0.275000
     27 H14         2.6890    4.1630   -0.6710 ha        1 A37      0.168000
     28 H17         1.8680    5.4980    3.1090 ha        1 A37      0.155000
     29 H18         0.4290    3.6550    3.4470 ha        1 A37      0.163000
@<TRIPOS>BOND
     1    1    6 1   
     2    1   23 1   
     3    2    3 1   
     4    2   24 1   
     5    3   21 1   
     6    4    5 1   
     7    4   25 1   
     8    5    7 1   
     9    6   22 1   
    10    7    8 1   
    11    7    9 1   
    12   10   11 1   
    13   10   26 1   
    14   11   12 1   
    15   11   20 1   
    16   12   13 1   
    17   13   19 1   
    18   14   15 1   
    19   14   27 1   
    20   15   17 1   
    21   17   18 1   
    22   17   28 1   
    23   18   29 1   
@<TRIPOS>SUBSTRUCTURE
     1 A37         1 TEMP              0 ****  ****    0 ROOT
