@<TRIPOS>MOLECULE
A38
   35    35     1     0     0
SMALL
bcc


@<TRIPOS>ATOM
      1 O3P        -1.9000    4.9750    0.7360 o         1 A38     -0.928500
      2 P          -1.3980    4.8140    2.1490 p5        1 A38      1.562500
      3 O1P        -2.5160    4.3080    3.0260 o         1 A38     -0.928500
      4 O2P        -0.9190    6.1430    2.6660 o         1 A38     -0.928500
      5 O5'        -0.2250    3.7970    2.1680 os        1 A38     -0.728000
      6 C5'        -0.3940    2.5720    1.5080 c3        1 A38      0.063000
      7 C4'         0.5300    1.5330    2.1290 c3        1 A38     -0.052000
      8 O4'        -0.0950    0.0850    1.9860 os        1 A38     -0.272000
      9 C3'         1.6320    1.4860    1.4890 c3        1 A38      0.043000
     10 O3'         2.7270    1.1220    2.3980 oh        1 A38     -0.413000
     11 C2'         1.4470    0.3360    0.3480 c3        1 A38     -0.205000
     12 C1'         0.7400   -0.6150    0.9000 c3        1 A38      0.186000
     13 N9         -0.1320   -1.2340   -0.0900 n         1 A38     -0.256000
     14 C8         -1.5420   -1.2290   -0.0700 c2        1 A38      0.375000
     15 N7         -1.9950   -2.0430   -1.1260 n         1 A38     -0.271000
     16 C5         -0.8280   -2.5720   -1.8200 c2        1 A38     -0.163000
     17 C6         -0.7040   -3.4180   -2.8920 c2        1 A38      0.093000
     18 N6         -1.4690   -3.9670   -3.9120 n3        1 A38     -0.304000
     19 N1          0.5270   -3.7710   -3.3390 n1        1 A38     -0.245000
     20 C2          1.6460   -3.2840   -2.7230 c1        1 A38     -0.016000
     21 N3          1.5260   -2.4350   -1.6490 n1        1 A38     -0.193000
     22 C4          0.2970   -2.0810   -1.1990 c1        1 A38      0.142000
     23 O          -2.2420   -0.6430    0.7290 o         1 A38     -0.272000
     24 H5'1       -0.1750    2.6780    0.5640 h1        1 A38      0.053500
     25 H5'2       -1.3200    2.2800    1.5970 h1        1 A38      0.053500
     26 H4'         0.6930    1.7430    3.0730 h1        1 A38      0.117000
     27 H3'         1.8170    2.3530    1.0690 h1        1 A38      0.134000
     28 HA          3.4280    1.6530    2.2460 ho        1 A38      0.310000
     29 H2'1        2.3170   -0.0090    0.0750 hc        1 A38      0.094000
     30 H2'2        0.9710    0.7040   -0.4280 hc        1 A38      0.094000
     31 H1'         1.3250   -1.2820    1.3010 h2        1 A38      0.091000
     32 H7         -2.8680   -2.2120   -1.3380 hn        1 A38      0.226000
     33 H6N1       -2.2450   -3.5740   -4.1540 hn        1 A38      0.181500
     34 H6N2       -1.1930   -4.7190   -4.3300 hn        1 A38      0.181500
     35 H2          2.5360   -3.4930   -3.0860 ha        1 A38      0.174000
@<TRIPOS>BOND
     1    1    2 1   
     2    2    3 1   
     3    2    4 1   
     4    2    5 1   
     5    5    6 1   
     6    6    7 1   
     7    6   24 1   
     8    6   25 1   
     9    7    8 1   
    10    7    9 1   
    11    7   26 1   
    12    8   12 1   
    13    9   10 1   
    14    9   11 1   
    15    9   27 1   
    16   10   28 1   
    17   11   12 1   
    18   11   29 1   
    19   11   30 1   
    20   12   13 1   
    21   12   31 1   
    22   13   14 1   
    23   13   22 1   
    24   14   15 1   
    25   14   23 1   
    26   15   16 1   
    27   15   32 1   
    28   16   17 1   
    29   16   22 1   
    30   17   18 1   
    31   17   19 1   
    32   18   33 1   
    33   18   34 1   
    34   20   21 1   
    35   20   35 1   
@<TRIPOS>SUBSTRUCTURE
     1 A38         1 TEMP              0 ****  ****    0 ROOT
