@<TRIPOS>MOLECULE
A38
   35    37     1     0     0
SMALL
bcc


@<TRIPOS>ATOM
      1 O3P         7.6340    2.3160   -6.0240 o         1 A38     -0.914833
      2 P           7.9870    3.1240   -4.7840 p5        1 A38      1.334900
      3 O1P         8.9450    2.4860   -3.8130 o         1 A38     -0.914833
      4 O2P         8.0760    4.6060   -4.9470 o         1 A38     -0.914833
      5 O5'         6.4910    2.8300   -3.9930 os        1 A38     -0.584200
      6 C5'         6.3670    3.3470   -2.7290 c3        1 A38      0.221400
      7 C4'         6.3290    2.2660   -1.6360 c3        1 A38      0.068100
      8 O4'         5.0570    1.5810   -1.6200 os        1 A38     -0.432600
      9 C3'         7.4090    1.1790   -1.8170 c3        1 A38      0.112100
     10 O3'         8.5700    1.4590   -1.0710 oh        1 A38     -0.644800
     11 C2'         6.7050   -0.0950   -1.3340 c3        1 A38     -0.129400
     12 C1'         5.2490    0.1630   -1.7910 c3        1 A38      0.283500
     13 N9          4.9380   -0.2970   -3.1540 n         1 A38     -0.416300
     14 C8          6.0810   -0.5450   -4.0700 c         1 A38      0.745500
     15 N7          5.9550    0.1990   -5.2930 n         1 A38     -0.385100
     16 C5          4.7410    0.9060   -5.1620 ca        1 A38     -0.237000
     17 C6          4.1550    1.8940   -6.0090 ca        1 A38      0.684200
     18 N6          4.8440    2.3330   -7.1420 nh        1 A38     -0.922500
     19 N1          2.8850    2.3390   -5.7010 nb        1 A38     -0.785000
     20 C2          2.3240    1.8570   -4.5670 ca        1 A38      0.615900
     21 N3          2.8300    1.0200   -3.6210 nb        1 A38     -0.716000
     22 C4          4.0770    0.5700   -3.9230 ca        1 A38      0.470200
     23 O           6.9060   -1.4540   -3.8790 o         1 A38     -0.636500
     24 H5'1        7.2360    4.0260   -2.4920 h1        1 A38      0.004200
     25 H5'2        5.4040    3.9320   -2.6520 h1        1 A38      0.004200
     26 H4'         6.4170    2.7520   -0.6260 h1        1 A38      0.023700
     27 H3'         7.6750    1.1130   -2.9210 h1        1 A38      0.137700
     28 HA          9.1530    1.9190   -1.7090 ho        1 A38      0.467000
     29 H2'1        7.1610   -1.0180   -1.7560 hc        1 A38      0.059200
     30 H2'2        6.7260   -0.1620   -0.2190 hc        1 A38      0.059200
     31 H1'         4.4790   -0.3190   -1.1250 h2        1 A38      0.061700
     32 H7          6.7770    0.7830   -5.5780 hn        1 A38      0.414500
     33 H6N1        5.8550    2.2630   -7.0330 hn        1 A38      0.428800
     34 H6N2        4.5630    3.2380   -7.4550 hn        1 A38      0.428800
     35 H2          1.3010    2.2300   -4.3590 h5        1 A38      0.009100
@<TRIPOS>BOND
     1    1    2 1   
     2    2    3 1   
     3    2    4 1   
     4    2    5 1   
     5    5    6 1   
     6    6    7 1   
     7    6   24 1   
     8    6   25 1   
     9    7    8 1   
    10    7    9 1   
    11    7   26 1   
    12    8   12 1   
    13    9   10 1   
    14    9   11 1   
    15    9   27 1   
    16   10   28 1   
    17   11   12 1   
    18   11   29 1   
    19   11   30 1   
    20   12   13 1   
    21   12   31 1   
    22   13   14 1   
    23   13   22 1   
    24   14   15 1   
    25   14   23 2   
    26   15   16 1   
    27   15   32 1   
    28   16   17 ar  
    29   16   22 ar  
    30   17   18 1   
    31   17   19 ar  
    32   18   33 1   
    33   18   34 1   
    34   19   20 ar  
    35   20   21 ar  
    36   20   35 1   
    37   21   22 ar  
@<TRIPOS>SUBSTRUCTURE
     1 A38         1 TEMP              0 ****  ****    0 ROOT
