@<TRIPOS>MOLECULE
A39
   38    35     1     0     0
SMALL
bcc


@<TRIPOS>ATOM
      1 P          -0.3790    1.2330    5.4420 p4        1 A39      1.693200
      2 O1P         1.1780    1.0070    5.5520 os        1 A39     -1.236000
      3 O2P        -1.0730    0.5750    6.6310 o         1 A39     -0.924500
      4 O3P        -0.6640    2.6770    5.4410 o         1 A39     -0.973300
      5 O5'        -0.9290    0.5770    4.0710 os        1 A39     -0.580200
      6 C5'        -0.1280    0.6420    2.9320 c3        1 A39      0.200400
      7 C4'        -0.9180    0.1600    1.7190 c3        1 A39      0.067100
      8 O4'        -0.6360    0.8910    0.6910 os        1 A39     -0.431600
      9 C3'        -0.4770   -1.3810    1.3260 c3        1 A39      0.099100
     10 O3'        -1.2210   -2.3310    2.1350 oh        1 A39     -0.654800
     11 C2'        -0.7660   -1.5260    0.1320 c3        1 A39      0.104100
     12 O2'        -2.1500   -2.0860   -0.0030 os        1 A39     -0.423600
     13 C1'        -0.7060   -0.0500   -0.4880 c3        1 A39      0.253800
     14 N9          0.3490    0.0810   -1.2300 n3        1 A39     -0.114400
     15 C8          1.4970   -0.6550   -1.2550 c1        1 A39      0.239400
     16 N7          2.3120   -0.1240   -2.1950 ne        1 A39     -0.443400
     17 C5          1.6760    0.9380   -2.7560 cg        1 A39     -0.152000
     18 C6          2.0350    1.7910   -3.8150 c1        1 A39      0.545600
     19 N6          3.2810    1.7870   -4.5860 n3        1 A39     -0.790400
     20 N1          1.1770    2.7360   -4.2420 n1        1 A39     -0.603800
     21 C2         -0.0570    2.8710   -3.6410 c1        1 A39      0.353300
     22 N3         -0.4140    2.0320   -2.5970 n1        1 A39     -0.513800
     23 C4          0.4620    1.0670   -2.1610 c1        1 A39     -0.018300
     24 CH3        -2.2110   -3.3170   -0.6800 c3        1 A39      0.124700
     25 H5'1        0.6120    0.1050    3.0470 h1        1 A39      0.017200
     26 H5'2        0.1670    1.5920    2.7840 h1        1 A39      0.017200
     27 H4'        -1.9100    0.1960    1.9120 h1        1 A39      0.046700
     28 H3'         0.4950   -1.5050    1.4580 h1        1 A39      0.158700
     29 HA         -0.6560   -2.7810    2.6590 ho        1 A39      0.484000
     30 H2'        -0.1540   -2.0730   -0.2820 h1        1 A39      0.052700
     31 H1'        -1.5360    0.1340   -1.0280 h2        1 A39      0.094700
     32 H8          1.7320   -1.3320   -0.6420 DU        1 A39      0.312000
     33 H6N1        3.2600    1.9440   -5.5060 hn        1 A39      0.404800
     34 H6N2        4.1010    1.5450   -4.1640 hn        1 A39      0.404800
     35 H2         -0.6820    3.4070   -4.1160 ha        1 A39      0.102500
     36 HH31       -1.3340   -3.8180   -0.5560 h1        1 A39      0.027700
     37 HH32       -2.9600   -3.8590   -0.3090 h1        1 A39      0.027700
     38 HH33       -2.3730   -3.1500   -1.6820 h1        1 A39      0.027700
@<TRIPOS>BOND
     1    1    3 1   
     2    1    4 2   
     3    1    5 1   
     4    5    6 1   
     5    6    7 1   
     6    6   25 1   
     7    6   26 1   
     8    7    8 1   
     9    7    9 1   
    10    7   27 1   
    11    8   13 1   
    12    9   10 1   
    13    9   11 1   
    14    9   28 1   
    15   10   29 1   
    16   11   12 1   
    17   11   13 1   
    18   11   30 1   
    19   12   24 1   
    20   13   14 1   
    21   13   31 1   
    22   14   15 2   
    23   14   23 1   
    24   15   16 2   
    25   16   17 1   
    26   17   23 3   
    27   18   19 1   
    28   18   20 3   
    29   19   33 1   
    30   19   34 1   
    31   21   22 3   
    32   21   35 1   
    33   24   36 1   
    34   24   37 1   
    35   24   38 1   
@<TRIPOS>SUBSTRUCTURE
     1 A39         1 TEMP              0 ****  ****    0 ROOT
