@<TRIPOS>MOLECULE
A39
   38    40     1     0     0
SMALL
bcc


@<TRIPOS>ATOM
      1 P          -4.0740   -7.5110   10.3830 p5        1 A39      1.430800
      2 O1P        -4.6400   -7.1030   11.6900 o         1 A39     -0.842000
      3 O2P        -4.6530   -8.4700    9.4240 o         1 A39     -0.842000
      4 O3P        -3.8270   -6.0630    9.6590 oh        1 A39     -0.787400
      5 O5'        -2.5010   -7.9280   10.6530 os        1 A39     -0.577200
      6 C5'        -1.7910   -7.1680   11.5820 c3        1 A39      0.185400
      7 C4'        -1.3330   -8.0510   12.7530 c3        1 A39      0.084100
      8 O4'        -0.0140   -7.6480   13.1570 os        1 A39     -0.432600
      9 C3'        -2.2640   -7.9630   13.9790 c3        1 A39      0.103100
     10 O3'        -2.4690   -9.2350   14.5630 oh        1 A39     -0.590800
     11 C2'        -1.5240   -6.9950   14.9250 c3        1 A39      0.077100
     12 O2'        -1.6720   -7.4440   16.2660 os        1 A39     -0.426600
     13 C1'        -0.0230   -7.1200   14.5050 c3        1 A39      0.248800
     14 N9          0.7140   -5.9000   14.6210 nh        1 A39     -0.261200
     15 C8          0.1900   -4.6230   15.0020 c1        1 A39      0.055400
     16 N7          1.1700   -3.7000   15.0770 ne        1 A39     -0.674800
     17 C5          2.3660   -4.3410   14.7510 ca        1 A39     -0.130200
     18 C6          3.7140   -3.9100   14.6550 ca        1 A39      0.578200
     19 N6          4.0560   -2.5770   15.0050 nh        1 A39     -0.899500
     20 N1          4.6950   -4.7970   14.2830 nb        1 A39     -0.783000
     21 C2          4.3130   -6.0790   14.0600 ca        1 A39      0.578900
     22 N3          3.0810   -6.6490   14.1230 nb        1 A39     -0.710000
     23 C4          2.1020   -5.7690   14.4560 ca        1 A39      0.391800
     24 CH3        -1.6850   -6.3760   17.2040 c3        1 A39      0.111700
     25 H5'1       -2.4210   -6.3150   11.9560 h1        1 A39      0.036200
     26 H5'2       -0.8690   -6.7600   11.0760 h1        1 A39      0.036200
     27 H4'        -1.2350   -9.1150   12.4050 h1        1 A39      0.072700
     28 H3'        -3.2940   -7.6010   13.7020 h1        1 A39      0.145700
     29 HA         -1.6390   -9.4860   14.9860 ho        1 A39      0.390000
     30 H2'        -1.8980   -5.9450   14.7920 h1        1 A39      0.115700
     31 H1'         0.4880   -7.9140   15.1330 h2        1 A39      0.046700
     32 H8         -3.8930   -5.3460   10.2800 ho        1 A39      0.422000
     33 H6N1        4.7950   -2.2100   14.4400 hn        1 A39      0.367300
     34 H6N2        3.2480   -1.9880   14.9650 hn        1 A39      0.367300
     35 H2          5.1330   -6.7660   13.7750 h5        1 A39      0.007100
     36 HH31       -1.4410   -6.8560   18.1840 h1        1 A39      0.035700
     37 HH32       -2.7090   -5.9270   17.2380 h1        1 A39      0.035700
     38 HH33       -0.9310   -5.5890   16.9400 h1        1 A39      0.035700
@<TRIPOS>BOND
     1    1    2 1   
     2    1    3 1   
     3    1    4 1   
     4    1    5 1   
     5    4   32 1   
     6    5    6 1   
     7    6    7 1   
     8    6   25 1   
     9    6   26 1   
    10    7    8 1   
    11    7    9 1   
    12    7   27 1   
    13    8   13 1   
    14    9   10 1   
    15    9   11 1   
    16    9   28 1   
    17   10   29 1   
    18   11   12 1   
    19   11   13 1   
    20   11   30 1   
    21   12   24 1   
    22   13   14 1   
    23   13   31 1   
    24   14   15 2   
    25   14   23 1   
    26   15   16 2   
    27   16   17 1   
    28   17   18 ar  
    29   17   23 ar  
    30   18   19 1   
    31   18   20 ar  
    32   19   33 1   
    33   19   34 1   
    34   20   21 ar  
    35   21   22 ar  
    36   21   35 1   
    37   22   23 ar  
    38   24   36 1   
    39   24   37 1   
    40   24   38 1   
@<TRIPOS>SUBSTRUCTURE
     1 A39         1 TEMP              0 ****  ****    0 ROOT
