@<TRIPOS>MOLECULE
A3A
   34    36     1     0     0
SMALL
bcc


@<TRIPOS>ATOM
      1 C8A        -1.4690   -1.0210   -2.2030 cc        1 A3A      0.453700
      2 N9A        -1.2790   -1.5220   -0.8950 na        1 A3A     -0.257000
      3 C4A        -2.5570   -1.7580   -0.3820 ca        1 A3A      0.437800
      4 C5A        -3.4850   -1.3360   -1.4400 ca        1 A3A     -0.204200
      5 N7A        -2.7620   -0.8860   -2.5530 nd        1 A3A     -0.604100
      6 N3A        -2.9810   -2.2470    0.8240 nb        1 A3A     -0.708000
      7 C2A        -4.3250   -2.3170    0.9220 ca        1 A3A      0.640900
      8 N1A        -5.2950   -1.9770    0.0250 nb        1 A3A     -0.802000
      9 C6A        -4.8820   -1.4570   -1.1730 ca        1 A3A      0.690200
     10 N6A        -5.8110   -0.9850   -2.1060 nh        1 A3A     -0.926500
     11 P           4.9030   -2.2690   -2.8730 p5        1 A3A      1.329900
     12 OP1         5.8760   -2.8300   -3.8610 o         1 A3A     -0.928167
     13 OP2         5.2780   -2.2770   -1.4160 o         1 A3A     -0.928167
     14 O6'         3.5840   -3.4100   -2.9100 os        1 A3A     -0.562200
     15 C5'         2.8110   -3.4810   -1.7860 c3        1 A3A      0.223400
     16 C4'         1.5600   -2.5760   -1.9160 c3        1 A3A      0.050100
     17 O5'         0.5690   -3.0030   -0.9450 os        1 A3A     -0.426600
     18 C3'         1.8940   -1.0970   -1.6190 c3        1 A3A      0.116100
     19 O3'         1.5260   -0.2750   -2.7090 oh        1 A3A     -0.691800
     20 C2'         1.0390   -0.7270   -0.4040 c3        1 A3A     -0.121400
     21 C1'         0.0090   -1.8760   -0.2900 c3        1 A3A      0.243800
     22 O1          4.1340   -1.0240   -3.2690 o         1 A3A     -0.928167
     23 H8A        -0.5820   -0.7700   -2.8240 h5        1 A3A      0.133800
     24 H2A        -4.7100   -2.7210    1.8810 h5        1 A3A      0.029100
     25 HN61       -6.7240   -1.3740   -2.0460 hn        1 A3A      0.403800
     26 HN62       -5.4500   -0.9130   -3.0310 hn        1 A3A      0.403800
     27 H5'         2.4370   -4.5380   -1.6530 h1        1 A3A      0.008700
     28 H5''        3.3930   -3.1750   -0.8690 h1        1 A3A      0.008700
     29 H4'         1.0980   -2.6860   -2.9310 h1        1 A3A      0.053700
     30 H3'         3.0150   -1.0020   -1.4450 h1        1 A3A      0.161700
     31 H1          2.3120   -0.2760   -3.3020 ho        1 A3A      0.498000
     32 H2'         1.6670   -0.7300    0.5190 hc        1 A3A      0.058200
     33 H2''        0.5710    0.2760   -0.5240 hc        1 A3A      0.058200
     34 H1'        -0.2010   -2.1930    0.7700 h2        1 A3A      0.083700
@<TRIPOS>BOND
     1    1    2 1   
     2    1    5 2   
     3    1   23 1   
     4    2    3 1   
     5    2   21 1   
     6    3    4 ar  
     7    3    6 ar  
     8    4    5 1   
     9    4    9 ar  
    10    6    7 ar  
    11    7    8 ar  
    12    7   24 1   
    13    8    9 ar  
    14    9   10 1   
    15   10   25 1   
    16   10   26 1   
    17   11   12 1   
    18   11   13 1   
    19   11   14 1   
    20   11   22 1   
    21   14   15 1   
    22   15   16 1   
    23   15   27 1   
    24   15   28 1   
    25   16   17 1   
    26   16   18 1   
    27   16   29 1   
    28   17   21 1   
    29   18   19 1   
    30   18   20 1   
    31   18   30 1   
    32   19   31 1   
    33   20   21 1   
    34   20   32 1   
    35   20   33 1   
    36   21   34 1   
@<TRIPOS>SUBSTRUCTURE
     1 A3A         1 TEMP              0 ****  ****    0 ROOT
