@<TRIPOS>MOLECULE
A3A
   34    29     1     0     0
SMALL
bcc


@<TRIPOS>ATOM
      1 C8A        -1.5140    0.3610    0.9920 c1        1 A3A      0.022000
      2 N9A        -0.1920    0.0900    1.0650 n2        1 A3A     -0.174000
      3 C4A         0.1390   -0.0390    2.3780 c1        1 A3A      0.022000
      4 C5A        -0.9770    0.1520    3.1090 c1        1 A3A     -0.213000
      5 N7A        -2.0030    0.4000    2.2520 n1        1 A3A     -0.179500
      6 N3A         1.3240   -0.3010    3.0000 n1        1 A3A     -0.179500
      7 C2A         1.3800   -0.3700    4.3600 c1        1 A3A     -0.022000
      8 N1A         0.2500   -0.1770    5.1020 n1        1 A3A     -0.276000
      9 C6A        -0.9180    0.0820    4.4920 c1        1 A3A      0.169000
     10 N6A        -1.8390    0.1740    5.5670 n3        1 A3A     -0.324000
     11 P          -1.4930   -1.2330   -5.1760 p3        1 A3A      2.522000
     12 OP1        -0.7490   -2.5440   -5.2640 o         1 A3A     -1.238000
     13 OP2        -0.9950   -0.2990   -6.2530 os        1 A3A     -1.267000
     14 O6'        -1.2470   -0.5800   -3.7570 os        1 A3A     -0.724000
     15 C5'         0.0810   -0.3520   -3.3440 c3        1 A3A      0.073000
     16 C4'         0.0830    0.2040   -1.9340 c3        1 A3A     -0.061000
     17 O5'        -0.2170   -0.7040   -1.1080 os        1 A3A     -0.283000
     18 C3'         1.5890    0.7120   -1.5310 c3        1 A3A      0.005000
     19 O3'         1.8180    2.0990   -2.0470 oh        1 A3A     -0.419000
     20 C2'         1.6330    0.7060   -0.3150 c3        1 A3A     -0.200000
     21 C1'         0.5870   -0.3830    0.1270 c2        1 A3A      0.152000
     22 O1         -2.9710   -1.4790   -5.3680 o         1 A3A     -1.238000
     23 H8A        -2.0230    0.5190    0.1740 DU        1 A3A      0.263000
     24 H2A         2.2290   -0.5580    4.8050 ha        1 A3A      0.166000
     25 HN61       -1.5590    0.0160    6.4230 hn        1 A3A      0.199000
     26 HN62       -2.7110    0.3940    5.4040 hn        1 A3A      0.199000
     27 H5'         0.5780   -1.1960   -3.3620 h1        1 A3A      0.048000
     28 H5''        0.5050    0.2900   -3.9490 h1        1 A3A      0.048000
     29 H4'        -0.5510    0.9460   -1.8640 h1        1 A3A      0.093000
     30 H3'         2.2600    0.1010   -1.8960 h1        1 A3A      0.201000
     31 H1          2.5450    2.1090   -2.5590 ho        1 A3A      0.297000
     32 H2'         2.5310    0.4600   -0.0070 hc        1 A3A      0.097500
     33 H2''        1.3800    1.5850    0.0390 hc        1 A3A      0.097500
     34 H1'         1.0490   -1.1840    0.4450 h4        1 A3A      0.123000
@<TRIPOS>BOND
     1    1    2 1   
     2    1    5 1   
     3    2    3 1   
     4    3    6 1   
     5    4    9 1   
     6    7    8 1   
     7    7   24 1   
     8    9   10 1   
     9   10   25 1   
    10   10   26 1   
    11   11   12 1   
    12   11   14 1   
    13   11   22 1   
    14   14   15 1   
    15   15   16 1   
    16   15   27 1   
    17   15   28 1   
    18   16   17 1   
    19   16   18 1   
    20   16   29 1   
    21   17   21 1   
    22   18   19 1   
    23   18   20 1   
    24   18   30 1   
    25   19   31 1   
    26   20   21 1   
    27   20   32 1   
    28   20   33 1   
    29   21   34 1   
@<TRIPOS>SUBSTRUCTURE
     1 A3A         1 TEMP              0 ****  ****    0 ROOT
