@<TRIPOS>MOLECULE
A3B
   14    13     1     0     0
SMALL
bcc


@<TRIPOS>ATOM
      1 CAA        -0.0590    0.0850   -0.1860 c2        1 A3B     -0.257000
      2 CAE         1.2400   -0.1090    0.0220 c2        1 A3B     -0.146200
      3 CAG         1.9600   -0.0180    1.3140 c3        1 A3B     -0.060300
      4 CAF         3.1780   -1.0910    1.3600 c         1 A3B      0.945600
      5 OAD         3.8740   -1.1350    0.3370 o         1 A3B     -0.748800
      6 OAC         3.2670   -1.7150    2.4480 o         1 A3B     -0.748800
      7 NAB         1.1010   -0.2210    2.5190 n4        1 A3B     -0.832600
      8 HAA1       -0.7840    0.3500    0.5940 ha        1 A3B      0.110500
      9 HAA2       -0.4980   -0.0060   -1.1900 ha        1 A3B      0.110500
     10 HAE         1.9350   -0.3640   -0.8070 ha        1 A3B      0.191000
     11 HAG         2.4540    0.9920    1.4040 hx        1 A3B      0.101700
     12 HAB1        0.2650   -0.7480    2.2710 hn        1 A3B      0.445133
     13 HAB2        0.8370    0.6590    2.9480 hn        1 A3B      0.445133
     14 HAB3        1.6760   -0.7940    3.1830 hn        1 A3B      0.445133
@<TRIPOS>BOND
     1    1    2 2   
     2    1    8 1   
     3    1    9 1   
     4    2    3 1   
     5    2   10 1   
     6    3    4 1   
     7    3    7 1   
     8    3   11 1   
     9    4    5 1   
    10    4    6 1   
    11    7   12 1   
    12    7   13 1   
    13    7   14 1   
@<TRIPOS>SUBSTRUCTURE
     1 A3B         1 TEMP              0 ****  ****    0 ROOT
