@<TRIPOS>MOLECULE
A3B
   14    13     1     0     0
SMALL
bcc


@<TRIPOS>ATOM
      1 CAA         2.5580    0.6780    0.2030 c2        1 A3B     -0.257000
      2 CAE         1.2580    0.8740   -0.0010 c2        1 A3B     -0.146200
      3 CAG         0.2770   -0.1120   -0.5130 c3        1 A3B     -0.060300
      4 CAF        -1.1770    0.1350    0.1670 c         1 A3B      0.945600
      5 OAD        -1.5440    1.3170    0.2020 o         1 A3B     -0.748800
      6 OAC        -1.7510   -0.9210    0.5390 o         1 A3B     -0.748800
      7 NAB         0.6640   -1.5390   -0.3030 n4        1 A3B     -0.832600
      8 HAA1        3.0860   -0.2640    0.0080 ha        1 A3B      0.110500
      9 HAA2        3.2050    1.4800    0.5860 ha        1 A3B      0.110500
     10 HAE         0.7750    1.8530    0.2010 ha        1 A3B      0.191000
     11 HAG         0.1170    0.0480   -1.6170 hx        1 A3B      0.101700
     12 HAB1       -0.2200   -2.0360   -0.0350 hn        1 A3B      0.445133
     13 HAB2        1.3290   -1.6140    0.4660 hn        1 A3B      0.445133
     14 HAB3        1.0610   -1.9510   -1.1410 hn        1 A3B      0.445133
@<TRIPOS>BOND
     1    1    2 2   
     2    1    8 1   
     3    1    9 1   
     4    2    3 1   
     5    2   10 1   
     6    3    4 1   
     7    3    7 1   
     8    3   11 1   
     9    4    5 1   
    10    4    6 1   
    11    7   12 1   
    12    7   13 1   
    13    7   14 1   
@<TRIPOS>SUBSTRUCTURE
     1 A3B         1 TEMP              0 ****  ****    0 ROOT
