@<TRIPOS>MOLECULE
A3B
   14    13     1     0     0
SMALL
bcc


@<TRIPOS>ATOM
      1 CAA        -0.0200    0.1150   -0.2200 c2        1 A3B     -0.257000
      2 CAE         1.2760   -0.0530    0.0260 c2        1 A3B     -0.146200
      3 CAG         1.9460   -0.0120    1.3480 c3        1 A3B     -0.060300
      4 CAF         3.1930   -1.0510    1.3810 c         1 A3B      0.945600
      5 OAD         3.9270   -1.0180    0.3840 o         1 A3B     -0.748800
      6 OAC         3.2630   -1.7310    2.4370 o         1 A3B     -0.748800
      7 NAB         1.0500   -0.3070    2.5060 n4        1 A3B     -0.832600
      8 HAA1       -0.7810    0.3150    0.5450 ha        1 A3B      0.110500
      9 HAA2       -0.4190    0.0670   -1.2430 ha        1 A3B      0.110500
     10 HAE         2.0070   -0.2420   -0.7880 ha        1 A3B      0.191000
     11 HAG         2.4050    1.0040    1.5110 hx        1 A3B      0.101700
     12 HAB1        1.6180   -0.8980    3.1600 hn        1 A3B      0.445133
     13 HAB2        0.7420    0.5400    2.9720 hn        1 A3B      0.445133
     14 HAB3        0.2410   -0.8440    2.1980 hn        1 A3B      0.445133
@<TRIPOS>BOND
     1    1    2 2   
     2    1    8 1   
     3    1    9 1   
     4    2    3 1   
     5    2   10 1   
     6    3    4 1   
     7    3    7 1   
     8    3   11 1   
     9    4    5 1   
    10    4    6 1   
    11    7   12 1   
    12    7   13 1   
    13    7   14 1   
@<TRIPOS>SUBSTRUCTURE
     1 A3B         1 TEMP              0 ****  ****    0 ROOT
