@<TRIPOS>MOLECULE
A3B
   14    11     1     0     0
SMALL
bcc


@<TRIPOS>ATOM
      1 CAA        -1.9450   -0.1840   -0.9230 c1        1 A3B     -0.124000
      2 CAE        -0.6050   -0.0470   -0.8950 c1        1 A3B     -0.124000
      3 CAG         0.1300   -0.0740    0.4240 c2        1 A3B     -0.113000
      4 CAF         0.5220    1.3330    0.8110 c         1 A3B      0.892600
      5 OAD         0.4140    1.7110    2.0070 o         1 A3B     -0.749800
      6 OAC         0.9570    2.1280   -0.0640 o         1 A3B     -0.749800
      7 NAB         1.3000   -0.8760    0.3000 n4        1 A3B     -0.758400
      8 HAA1       -2.4420   -0.3010   -0.0890 DU        1 A3B      0.119000
      9 HAA2       -2.4210   -0.1670   -1.7780 ha        1 A3B      0.074500
     10 HAE        -0.1090    0.0690   -1.7280 ha        1 A3B      0.074500
     11 HAG        -0.4520   -0.4500    1.1140 hx        1 A3B      0.130000
     12 HAB1        1.8440   -0.5240   -0.3500 hn        1 A3B      0.443133
     13 HAB2        1.7490   -0.8880    1.1010 hn        1 A3B      0.443133
     14 HAB3        1.0610   -1.7320    0.0700 hn        1 A3B      0.443133
@<TRIPOS>BOND
     1    1    2 3   
     2    1    9 1   
     3    2   10 1   
     4    3    4 2   
     5    3    7 1   
     6    3   11 1   
     7    4    5 1   
     8    4    6 1   
     9    7   12 1   
    10    7   13 1   
    11    7   14 1   
@<TRIPOS>SUBSTRUCTURE
     1 A3B         1 TEMP              0 ****  ****    0 ROOT
