@<TRIPOS>MOLECULE
A3B
   14    13     1     0     0
SMALL
bcc


@<TRIPOS>ATOM
      1 CAA        -0.0430    0.0840   -0.2040 c2        1 A3B     -0.257000
      2 CAE         1.2570   -0.0760    0.0240 c2        1 A3B     -0.146200
      3 CAG         1.9480   -0.0080    1.3340 c3        1 A3B     -0.060300
      4 CAF         3.1980   -1.0430    1.3680 c         1 A3B      0.945600
      5 OAD         3.9160   -1.0280    0.3590 o         1 A3B     -0.748800
      6 OAC         3.2860   -1.7020    2.4360 o         1 A3B     -0.748800
      7 NAB         1.0720   -0.2800    2.5130 nz        1 A3B     -0.832600
      8 HAA1       -0.7920    0.2980    0.5690 ha        1 A3B      0.110500
      9 HAA2       -0.4590    0.0150   -1.2190 ha        1 A3B      0.110500
     10 HAE         1.9760   -0.2800   -0.7970 ha        1 A3B      0.191000
     11 HAG         2.4070    1.0130    1.4690 hx        1 A3B      0.101700
     12 HAB1        0.2590   -0.8250    2.2290 hn        1 A3B      0.445133
     13 HAB2        0.7710    0.5750    2.9670 hn        1 A3B      0.445133
     14 HAB3        1.6520   -0.8580    3.1690 hn        1 A3B      0.445133
@<TRIPOS>BOND
     1    1    2 2   
     2    1    8 1   
     3    1    9 1   
     4    2    3 1   
     5    2   10 1   
     6    3    4 1   
     7    3    7 1   
     8    3   11 1   
     9    4    5 1   
    10    4    6 1   
    11    7   12 1   
    12    7   13 1   
    13    7   14 1   
@<TRIPOS>SUBSTRUCTURE
     1 A3B         1 TEMP              0 ****  ****    0 ROOT
