@<TRIPOS>MOLECULE
A3C
   63    64     1     0     0
SMALL
bcc


@<TRIPOS>ATOM
      1 C01         2.2920   -1.9820   -0.1990 c3        1 A3C      0.201400
      2 O01         1.6070   -2.5220   -1.2710 os        1 A3C     -0.587200
      3 C02         1.3780   -1.7130    1.0110 c3        1 A3C      0.097800
      4 P02         1.7600   -1.6760   -2.7290 p5        1 A3C      1.581800
      5 N03         0.5840   -2.8240    1.5320 n3        1 A3C     -0.737600
      6 O03         0.8560   -0.4160   -2.4390 os        1 A3C     -0.822800
      7 P04        -0.0870    0.9460   -1.9650 p5        1 A3C      1.483900
      8 O05        -0.0770    0.8220   -0.4560 o         1 A3C     -0.956500
      9 O06         1.2090   -2.6110   -3.7440 o         1 A3C     -0.915500
     10 O07         3.2150   -1.3590   -2.7760 o         1 A3C     -0.915500
     11 O08         0.5910    2.1530   -2.5380 o         1 A3C     -0.956500
     12 O09        -1.4870    0.7010   -2.4840 o         1 A3C     -0.956500
     13 C11        -0.7590   -2.8610    0.9450 c3        1 A3C      0.165800
     14 C12        -1.7060   -1.8080    1.5410 c3        1 A3C     -0.049400
     15 C13         1.2520   -4.1000    1.3940 c3        1 A3C      0.167100
     16 C21        -2.3950   -0.9980    0.4580 c3        1 A3C     -0.087500
     17 C22        -3.3350   -1.7980   -0.3910 c2        1 A3C      0.001600
     18 C23        -3.8770   -1.0380   -1.5540 c3        1 A3C     -0.096200
     19 C24        -4.5500    0.2420   -1.0910 c3        1 A3C     -0.028400
     20 C25        -3.5650    1.0470   -0.2590 c3        1 A3C     -0.118700
     21 C26        -4.0060    2.5040   -0.0690 c3        1 A3C     -0.023000
     22 C27        -2.9800    3.2280    0.8060 c3        1 A3C     -0.068400
     23 C28        -2.6950    2.4970    2.0970 c3        1 A3C     -0.050400
     24 C29        -2.1750    1.1050    1.8220 c3        1 A3C     -0.113400
     25 C30        -3.1450    0.2570    0.9990 c3        1 A3C      0.004000
     26 C31        -3.6870   -3.0720   -0.1770 c2        1 A3C     -0.342000
     27 C32        -5.4010    2.6810    0.5140 c3        1 A3C     -0.084600
     28 C33        -3.9890    3.1850   -1.4430 c3        1 A3C     -0.084600
     29 C34        -4.3070   -0.1860    1.8760 c3        1 A3C     -0.082100
     30 H01         3.1070   -2.7040    0.1220 h1        1 A3C     -0.005300
     31 H01A        2.7820   -1.0100   -0.4900 h1        1 A3C     -0.005300
     32 H02         2.0400   -1.3840    1.8630 h1        1 A3C      0.069700
     33 H02A        0.6910   -0.8510    0.7310 h1        1 A3C      0.069700
     34 H11        -0.7040   -2.7280   -0.1760 h1        1 A3C      0.039700
     35 H11A       -1.1990   -3.8810    1.1440 h1        1 A3C      0.039700
     36 H12        -2.4600   -2.3190    2.1960 hc        1 A3C      0.017200
     37 H12A       -1.1240   -1.1060    2.1950 hc        1 A3C      0.017200
     38 H13         2.2670   -4.0270    1.8670 h1        1 A3C      0.007367
     39 H13A        0.6650   -4.8860    1.9420 h1        1 A3C      0.007367
     40 H13B        1.3800   -4.4220    0.3240 h1        1 A3C      0.007367
     41 H21        -1.5550   -0.5710   -0.2270 hc        1 A3C      0.209700
     42 H23        -2.9990   -0.7440   -2.2250 hc        1 A3C      0.087700
     43 H23A       -4.5990   -1.6580   -2.1440 hc        1 A3C      0.087700
     44 H24        -4.8560    0.8310   -1.9940 hc        1 A3C     -0.004300
     45 H24A       -5.4830    0.0090   -0.5120 hc        1 A3C     -0.004300
     46 H25        -2.5870    1.1040   -0.8980 hc        1 A3C      0.207700
     47 H27        -2.0210    3.3060    0.2230 hc        1 A3C      0.037700
     48 H27A       -3.3460    4.2650    1.0280 hc        1 A3C      0.037700
     49 H28        -1.9240    3.0690    2.6800 hc        1 A3C     -0.007800
     50 H28A       -3.6180    2.4560    2.7350 hc        1 A3C     -0.007800
     51 H29        -1.2000    1.1650    1.2380 hc        1 A3C      0.087700
     52 H29A       -1.9750    0.6070    2.8070 hc        1 A3C      0.087700
     53 H31        -3.2940   -3.6740    0.6480 ha        1 A3C      0.078000
     54 H31A       -4.3620   -3.6080   -0.8550 ha        1 A3C      0.078000
     55 H32        -5.4150    2.4840    1.6110 hc        1 A3C      0.019367
     56 H32A       -5.7530    3.7310    0.3550 hc        1 A3C      0.019367
     57 H32B       -6.1240    1.9910    0.0170 hc        1 A3C      0.019367
     58 H33        -4.9190    2.9450   -2.0130 hc        1 A3C      0.019367
     59 H33A       -3.9360    4.2950   -1.3250 hc        1 A3C      0.019367
     60 H33B       -3.1040    2.8300   -2.0340 hc        1 A3C      0.019367
     61 H34        -4.9390    0.6790    2.1830 hc        1 A3C      0.006367
     62 H34A       -4.9500   -0.9240    1.3380 hc        1 A3C      0.006367
     63 H34B       -3.9180   -0.6780    2.8020 hc        1 A3C      0.006367
@<TRIPOS>BOND
     1    1    2 1   
     2    1    3 1   
     3    1   30 1   
     4    1   31 1   
     5    2    4 1   
     6    3    5 1   
     7    3   32 1   
     8    3   33 1   
     9    4    6 1   
    10    4    9 1   
    11    4   10 1   
    12    5   13 1   
    13    5   15 1   
    14    6    7 1   
    15    7    8 1   
    16    7   11 1   
    17    7   12 1   
    18   13   14 1   
    19   13   34 1   
    20   13   35 1   
    21   14   16 1   
    22   14   36 1   
    23   14   37 1   
    24   15   38 1   
    25   15   39 1   
    26   15   40 1   
    27   16   17 1   
    28   16   25 1   
    29   16   41 1   
    30   17   18 1   
    31   17   26 2   
    32   18   19 1   
    33   18   42 1   
    34   18   43 1   
    35   19   20 1   
    36   19   44 1   
    37   19   45 1   
    38   20   21 1   
    39   20   25 1   
    40   20   46 1   
    41   21   22 1   
    42   21   27 1   
    43   21   28 1   
    44   22   23 1   
    45   22   47 1   
    46   22   48 1   
    47   23   24 1   
    48   23   49 1   
    49   23   50 1   
    50   24   25 1   
    51   24   51 1   
    52   24   52 1   
    53   25   29 1   
    54   26   53 1   
    55   26   54 1   
    56   27   55 1   
    57   27   56 1   
    58   27   57 1   
    59   28   58 1   
    60   28   59 1   
    61   28   60 1   
    62   29   61 1   
    63   29   62 1   
    64   29   63 1   
@<TRIPOS>SUBSTRUCTURE
     1 A3C         1 TEMP              0 ****  ****    0 ROOT
