@<TRIPOS>MOLECULE
A3F
   46    48     1     0     0
SMALL
bcc


@<TRIPOS>ATOM
      1 CAA         4.1030    2.4640   -2.1210 c3        1 A3F      0.110700
      2 CAB         2.3080   -3.3720    1.6430 c3        1 A3F      0.110700
      3 CAC         5.9750   -1.2300    0.5760 c3        1 A3F      0.114700
      4 CAF        -4.7280   -1.5780   -1.9150 ca        1 A3F     -0.095000
      5 CAG        -5.8930   -1.6060   -1.1540 ca        1 A3F     -0.157000
      6 CAH        -3.6190   -0.8440   -1.4970 ca        1 A3F     -0.159000
      7 CAI        -2.6500    1.9060    0.7670 ca        1 A3F      0.457200
      8 CAJ        -4.8240   -0.1360    0.4800 ca        1 A3F     -0.211000
      9 CAK         2.1980    1.1630   -0.5270 ca        1 A3F     -0.220500
     10 CAL         1.5870   -0.8260    0.7250 ca        1 A3F     -0.220500
     11 CAM        -1.1940    0.1770   -0.0420 ca        1 A3F     -0.030000
     12 NAN        -1.6400    2.6660    1.1980 nb        1 A3F     -0.729000
     13 OAO         4.4960    1.3160   -1.3750 os        1 A3F     -0.312900
     14 CAR        -5.9300   -0.8780    0.0470 ca        1 A3F      0.126100
     15 CAS        -0.3550    2.2090    1.0040 ca        1 A3F      0.661200
     16 CAT        -3.6580   -0.1180   -0.2980 cp        1 A3F      0.019000
     17 CAU        -2.5000    0.6490    0.1380 cp        1 A3F     -0.214300
     18 CAV         1.2520    0.4250    0.1920 cp        1 A3F      0.022000
     19 CAW         3.4880    0.6480   -0.7130 ca        1 A3F      0.135100
     20 CAX         2.8740   -1.3420    0.5350 ca        1 A3F      0.135100
     21 CAY        -0.1040    0.9390    0.3810 cp        1 A3F     -0.225300
     22 CAZ         3.8370   -0.6190   -0.2000 ca        1 A3F      0.044100
     23 HAA         5.0410    2.7540   -2.6580 h1        1 A3F      0.046867
     24 HAAA        3.2930    2.2120   -2.8470 h1        1 A3F      0.046867
     25 HAAB        3.7740    3.2820   -1.4340 h1        1 A3F      0.046867
     26 HAB         2.8670   -4.3090    1.8980 h1        1 A3F      0.046867
     27 HABA        1.9020   -2.8920    2.5660 h1        1 A3F      0.046867
     28 HABB        1.4870   -3.5870    0.9170 h1        1 A3F      0.046867
     29 HAC         6.8850   -1.7050    0.1330 h1        1 A3F      0.041700
     30 HACA        6.2050   -0.2030    0.9500 h1        1 A3F      0.041700
     31 HACB        5.5510   -1.8610    1.3940 h1        1 A3F      0.041700
     32 HNAD        0.5040    3.7840    1.9920 hn        1 A3F      0.419800
     33 HNAA        1.5710    2.5670    1.5240 hn        1 A3F      0.419800
     34 HOAE       -6.9960   -0.4020    1.5620 ho        1 A3F      0.419000
     35 HAF        -4.6850   -2.1410   -2.8590 ha        1 A3F      0.136000
     36 HAG        -6.7740   -2.1790   -1.4710 ha        1 A3F      0.151000
     37 HAH        -2.7100   -0.8260   -2.1150 ha        1 A3F      0.137000
     38 HAI        -3.6580    2.3320    0.9330 h4        1 A3F      0.024100
     39 HAJ        -4.8680    0.4210    1.4270 ha        1 A3F      0.135000
     40 HAK         1.9170    2.1350   -0.9570 ha        1 A3F      0.150000
     41 HAL         0.8310   -1.3910    1.2870 ha        1 A3F      0.150000
     42 HAM        -1.0200   -0.8020   -0.5170 ha        1 A3F      0.147000
     43 NAD         0.7050    3.0330    1.3730 nh        1 A3F     -0.938500
     44 OAP         3.3070   -2.5470    1.0510 os        1 A3F     -0.312900
     45 OAQ         5.0640   -1.1650   -0.5240 os        1 A3F     -0.308900
     46 OAE        -7.1040   -0.9400    0.7640 oh        1 A3F     -0.498100
@<TRIPOS>BOND
     1    1   13 1   
     2    1   23 1   
     3    1   24 1   
     4    1   25 1   
     5    2   26 1   
     6    2   27 1   
     7    2   28 1   
     8    2   44 1   
     9    3   29 1   
    10    3   30 1   
    11    3   31 1   
    12    3   45 1   
    13    4    5 ar  
    14    4    6 ar  
    15    4   35 1   
    16    5   14 ar  
    17    5   36 1   
    18    6   16 ar  
    19    6   37 1   
    20    7   12 ar  
    21    7   17 ar  
    22    7   38 1   
    23    8   14 ar  
    24    8   16 ar  
    25    8   39 1   
    26    9   18 ar  
    27    9   19 ar  
    28    9   40 1   
    29   10   18 ar  
    30   10   20 ar  
    31   10   41 1   
    32   11   17 ar  
    33   11   21 ar  
    34   11   42 1   
    35   12   15 ar  
    36   13   19 1   
    37   14   46 1   
    38   15   21 ar  
    39   15   43 1   
    40   16   17 1   
    41   18   21 1   
    42   19   22 ar  
    43   20   22 ar  
    44   20   44 1   
    45   22   45 1   
    46   32   43 1   
    47   33   43 1   
    48   34   46 1   
@<TRIPOS>SUBSTRUCTURE
     1 A3F         1 TEMP              0 ****  ****    0 ROOT
