@<TRIPOS>MOLECULE
A3F
   46    39     1     0     0
SMALL
bcc


@<TRIPOS>ATOM
      1 CAA         0.0900   -1.8070   -4.7400 c3        1 A3F     -0.078000
      2 CAB         4.9370   -0.1910   -1.3960 c3        1 A3F     -0.074000
      3 CAC         2.8350    1.7130   -4.4070 c3        1 A3F     -0.076000
      4 NAD         0.4880   -3.1590    0.3100 n3        1 A3F     -0.343000
      5 OAE        -2.1940    2.9270    5.9720 oh        1 A3F     -0.252000
      6 CAF        -4.6550    1.7130    3.4110 c1        1 A3F     -0.152000
      7 CAG        -4.0890    2.4360    4.5420 c1        1 A3F     -0.152000
      8 CAH        -3.8820    0.8810    2.6870 c1        1 A3F     -0.105000
      9 CAI        -1.7290   -1.6040    2.7720 c1        1 A3F     -0.105000
     10 CAJ        -1.9750    1.4190    4.1330 c1        1 A3F     -0.154000
     11 CAK        -0.1080   -0.6280   -1.8430 c1        1 A3F     -0.105000
     12 CAL         1.8400   -0.0860   -0.4430 c1        1 A3F     -0.132000
     13 CAM        -0.9470    0.0380    1.1900 c1        1 A3F     -0.025000
     14 NAN        -1.0280   -2.5160    2.1470 n1        1 A3F     -0.206000
     15 OAO         0.1260   -0.4390   -4.2610 os        1 A3F     -0.226000
     16 OAP         3.9260    0.7770   -1.4840 os        1 A3F     -0.221000
     17 OAQ         2.8860    0.4070   -3.9690 os        1 A3F     -0.230000
     18 CAR        -2.7700    2.2700    4.8720 c1        1 A3F      0.081000
     19 CAS        -0.2520   -2.1630    1.0020 c2        1 A3F      0.151000
     20 CAT        -2.5260    0.7110    3.0260 c1        1 A3F     -0.047333
     21 CAU        -1.7180   -0.3140    2.3300 c1        1 A3F     -0.047333
     22 CAV         0.4800   -0.5170   -0.5690 c1        1 A3F     -0.047333
     23 CAW         0.6740   -0.3030   -3.0430 c1        1 A3F      0.046000
     24 CAX         2.6060    0.2330   -1.6150 c2        1 A3F      0.064000
     25 CAY        -0.2400   -0.8850    0.5600 c1        1 A3F     -0.168000
     26 CAZ         2.0090    0.1200   -2.9150 c2        1 A3F     -0.005000
     27 HAA        -0.5990   -1.8820   -5.5210 h1        1 A3F      0.085667
     28 HAAA       -0.1680   -2.3840   -4.0320 h1        1 A3F      0.085667
     29 HAAB        0.9740   -2.0650   -5.0600 h1        1 A3F      0.085667
     30 HAB         5.7770    0.1900   -1.6880 h1        1 A3F      0.086333
     31 HABA        4.6940   -0.9930   -1.9980 h1        1 A3F      0.086333
     32 HABB        5.0220   -0.4900   -0.4680 h1        1 A3F      0.086333
     33 HAC         3.8140    2.0600   -4.5780 h1        1 A3F      0.087333
     34 HACA        2.3600    2.3270   -3.6570 h1        1 A3F      0.087333
     35 HACB        2.2730    1.7620   -5.3210 h1        1 A3F      0.087333
     36 HNAD        0.2780   -4.1580    0.4710 hn        1 A3F      0.219500
     37 HNAA        1.0800   -2.9020   -0.4140 hn        1 A3F      0.219500
     38 HOAE       -2.7630    2.9770    6.6030 ho        1 A3F      0.218000
     39 HAF        -5.5840    1.8290    3.1780 ha        1 A3F      0.134000
     40 HAG        -4.5970    2.9840    5.0180 ha        1 A3F      0.134000
     41 HAH        -4.3140    0.3260    1.8200 ha        1 A3F      0.150667
     42 HAI        -2.2810   -1.8570    3.5890 ha        1 A3F      0.150667
     43 HAJ        -0.9660    1.2920    4.3890 ha        1 A3F      0.152000
     44 HAK        -1.0920   -0.9350   -1.9320 ha        1 A3F      0.150667
     45 HAL         2.2470   -0.0140    0.4380 ha        1 A3F      0.159000
     46 HAM        -0.9380    0.9010    0.8920 ha        1 A3F      0.147000
@<TRIPOS>BOND
     1    1   15 1   
     2    1   27 1   
     3    1   28 1   
     4    1   29 1   
     5    2   16 1   
     6    2   30 1   
     7    2   31 1   
     8    2   32 1   
     9    3   17 1   
    10    3   33 1   
    11    3   34 1   
    12    3   35 1   
    13    4   19 1   
    14    4   36 1   
    15    4   37 1   
    16    5   18 1   
    17    5   38 1   
    18    6    7 1   
    19    6   39 1   
    20    7   40 1   
    21    8   20 1   
    22    8   41 1   
    23    9   21 1   
    24    9   42 1   
    25   10   18 1   
    26   10   43 1   
    27   11   22 1   
    28   11   44 1   
    29   12   24 1   
    30   12   45 1   
    31   13   25 1   
    32   13   46 1   
    33   14   19 1   
    34   15   23 1   
    35   16   24 1   
    36   17   26 1   
    37   19   25 1   
    38   23   26 1   
    39   24   26 1   
@<TRIPOS>SUBSTRUCTURE
     1 A3F         1 TEMP              0 ****  ****    0 ROOT
