@<TRIPOS>MOLECULE
A3F
   46    48     1     0     0
SMALL
bcc


@<TRIPOS>ATOM
      1 CAA         0.1730   -0.4790   -0.1780 c3        1 A3F      0.110700
      2 CAB         5.9830    0.4380    3.9290 c3        1 A3F      0.110700
      3 CAC         4.8170    1.2050   -0.2200 c3        1 A3F      0.114700
      4 CAF         1.3500   -4.1060    8.7520 ca        1 A3F     -0.089000
      5 CAG         1.2180   -3.7530   10.0940 ca        1 A3F     -0.214000
      6 CAH         1.1110   -3.1740    7.7470 ca        1 A3F     -0.160000
      7 CAI        -0.5570    0.0650    7.1330 ca        1 A3F      0.460200
      8 CAJ         0.5970   -1.4910    9.4120 ca        1 A3F     -0.155000
      9 CAK         1.2210   -0.0180    2.3810 ca        1 A3F     -0.220500
     10 CAL         3.1920    0.2670    3.7690 ca        1 A3F     -0.220500
     11 CAM         1.2530   -0.8510    5.8480 ca        1 A3F     -0.030000
     12 NAN        -0.8480    0.9880    6.2140 nb        1 A3F     -0.728000
     13 OAO         1.5390   -0.0950   -0.0510 os        1 A3F     -0.312900
     14 CAR         0.8400   -2.4420   10.4150 ca        1 A3F      0.126100
     15 CAS        -0.1010    1.0110    5.0560 ca        1 A3F      0.661200
     16 CAT         0.7330   -1.8600    8.0700 cp        1 A3F      0.014000
     17 CAU         0.4820   -0.8880    7.0150 cp        1 A3F     -0.214300
     18 CAV         1.8050    0.1190    3.6440 cp        1 A3F      0.023000
     19 CAW         2.0260   -0.0040    1.2350 ca        1 A3F      0.135100
     20 CAX         3.9980    0.2760    2.6250 ca        1 A3F      0.135100
     21 CAY         0.9810    0.0890    4.8520 cp        1 A3F     -0.226300
     22 CAZ         3.4270    0.1250    1.3430 ca        1 A3F      0.043100
     23 HAA        -0.4960    0.3280    0.2070 h1        1 A3F      0.046700
     24 HAAA        0.0440   -0.6050   -1.2830 h1        1 A3F      0.046700
     25 HAAB       -0.0230   -1.4410    0.3550 h1        1 A3F      0.046700
     26 HAB         5.7560   -0.5110    4.4720 h1        1 A3F      0.046700
     27 HABA        7.0750    0.5070    3.6910 h1        1 A3F      0.046700
     28 HABB        5.6540    1.3220    4.5290 h1        1 A3F      0.046700
     29 HAC         4.0360    1.9520   -0.4980 h1        1 A3F      0.041700
     30 HACA        5.4840    1.6110    0.5790 h1        1 A3F      0.041700
     31 HACB        5.4100    0.8960   -1.1170 h1        1 A3F      0.041700
     32 HNAD        0.2700    2.1320    3.4090 hn        1 A3F      0.419300
     33 HNAA       -1.0440    2.6710    4.3160 hn        1 A3F      0.419300
     34 HOAE        0.8820   -2.7570   12.2990 ho        1 A3F      0.419000
     35 HAF         1.6430   -5.1330    8.4870 ha        1 A3F      0.134000
     36 HAG         1.4050   -4.4890   10.8870 ha        1 A3F      0.134000
     37 HAH         1.2090   -3.4680    6.6910 ha        1 A3F      0.137000
     38 HAI        -1.1990    0.0830    8.0350 h4        1 A3F      0.028100
     39 HAJ         0.3120   -0.4680    9.6970 ha        1 A3F      0.152000
     40 HAK         0.1330   -0.1510    2.2970 ha        1 A3F      0.150500
     41 HAL         3.6340    0.3720    4.7700 ha        1 A3F      0.150500
     42 HAM         2.0830   -1.5620    5.7100 ha        1 A3F      0.146000
     43 NAD        -0.4540    1.9140    4.0560 nh        1 A3F     -0.937500
     44 OAP         5.3670    0.4490    2.6450 os        1 A3F     -0.312900
     45 OAQ         4.2080   -0.0130    0.2120 os        1 A3F     -0.309900
     46 OAE         0.6880   -2.0110   11.7130 oh        1 A3F     -0.498100
@<TRIPOS>BOND
     1    1   13 1   
     2    1   23 1   
     3    1   24 1   
     4    1   25 1   
     5    2   26 1   
     6    2   27 1   
     7    2   28 1   
     8    2   44 1   
     9    3   29 1   
    10    3   30 1   
    11    3   31 1   
    12    3   45 1   
    13    4    5 ar  
    14    4    6 ar  
    15    4   35 1   
    16    5   14 ar  
    17    5   36 1   
    18    6   16 ar  
    19    6   37 1   
    20    7   12 ar  
    21    7   17 ar  
    22    7   38 1   
    23    8   14 ar  
    24    8   16 ar  
    25    8   39 1   
    26    9   18 ar  
    27    9   19 ar  
    28    9   40 1   
    29   10   18 ar  
    30   10   20 ar  
    31   10   41 1   
    32   11   17 ar  
    33   11   21 ar  
    34   11   42 1   
    35   12   15 ar  
    36   13   19 1   
    37   14   46 1   
    38   15   21 ar  
    39   15   43 1   
    40   16   17 1   
    41   18   21 1   
    42   19   22 ar  
    43   20   22 ar  
    44   20   44 1   
    45   22   45 1   
    46   32   43 1   
    47   33   43 1   
    48   34   46 1   
@<TRIPOS>SUBSTRUCTURE
     1 A3F         1 TEMP              0 ****  ****    0 ROOT
