@<TRIPOS>MOLECULE
A3G
   40    34     1     0     0
SMALL
bcc


@<TRIPOS>ATOM
      1 C           0.8860   -0.6910   -3.6370 c1        1 A3G      0.307000
      2 N           1.0760   -0.2800   -6.0220 n3        1 A3G     -0.359000
      3 O           2.1090   -0.6310   -3.6290 o         1 A3G     -0.372000
      4 N1         -2.6820    2.7320    4.2210 n1        1 A3G     -0.270000
      5 C2         -3.1200    2.5090    2.9720 c1        1 A3G      0.027000
      6 N3         -2.3290    1.8320    2.0760 n1        1 A3G     -0.206000
      7 C4         -1.1040    1.3890    2.4520 c1        1 A3G     -0.082000
      8 C5         -0.6680    1.6130    3.7020 c1        1 A3G     -0.082000
      9 C6         -1.4660    2.2930    4.5990 c1        1 A3G      0.244000
     10 N6         -1.3250    2.8420    5.8700 n3        1 A3G     -0.360000
     11 N7          0.5770    1.0710    3.8190 n1        1 A3G     -0.157000
     12 C8          0.9070    0.5090    2.6280 c1        1 A3G     -0.058000
     13 N8          0.1670   -0.7750   -2.4070 n2        1 A3G     -0.360000
     14 N9         -0.1220    0.6990    1.7790 n1        1 A3G     -0.157000
     15 CA          0.1350   -0.5810   -4.9440 c3        1 A3G     -0.100000
     16 C1'        -0.3210   -0.0400    0.5910 c2        1 A3G      0.159000
     17 C2'         0.4330    0.4490   -0.3820 c3        1 A3G     -0.015000
     18 O2'        -0.3410    1.4150   -1.1940 oh        1 A3G     -0.308000
     19 C3'         0.8310   -0.7870   -1.2450 c3        1 A3G     -0.027000
     20 C4'         0.4230   -2.0490   -0.3960 c3        1 A3G      0.004000
     21 O4'         0.1540   -1.5860    0.8020 os        1 A3G     -0.260000
     22 C5'         1.5720   -3.0360   -0.3370 c3        1 A3G     -0.035000
     23 O5'         1.1980   -4.1410    0.4080 oh        1 A3G     -0.328000
     24 HN          0.8250    0.4920   -6.4380 hn        1 A3G      0.158500
     25 HNA         1.0750   -0.9690   -6.6300 hn        1 A3G      0.158500
     26 H2         -4.0110    2.8310    2.6980 ha        1 A3G      0.190000
     27 HN6        -0.6240    2.6120    6.3860 hn        1 A3G      0.245000
     28 HN6A       -1.9470    3.4140    6.1840 hn        1 A3G      0.245000
     29 H8          1.7200   -0.0300    2.4450 DU        1 A3G      0.200000
     30 HN8        -0.7500   -0.8890   -2.4150 hn        1 A3G      0.248000
     31 HA         -0.3270   -1.4480   -5.1360 h1        1 A3G      0.103500
     32 HAA        -0.5430    0.1510   -4.8790 h1        1 A3G      0.103500
     33 H1'        -1.2630   -0.0120    0.3310 h4        1 A3G      0.184000
     34 H2'         1.2150    0.8690   -0.0210 h1        1 A3G      0.108000
     35 HO2'        0.1850    2.1090   -1.4200 ho        1 A3G      0.217000
     36 H3'         1.7710   -0.7880   -1.4030 h1        1 A3G      0.138000
     37 H4'        -0.3560   -2.4670   -0.7740 h1        1 A3G      0.131000
     38 H5'         2.3270   -2.6210    0.0700 h1        1 A3G      0.077500
     39 H5'A        1.8030   -3.3170   -1.2360 h1        1 A3G      0.077500
     40 HO5'        1.9100   -4.6920    0.5100 ho        1 A3G      0.208000
@<TRIPOS>BOND
     1    1    3 1   
     2    1   15 1   
     3    2   15 1   
     4    2   24 1   
     5    2   25 1   
     6    4    9 1   
     7    5    6 1   
     8    5   26 1   
     9    7    8 1   
    10    9   10 1   
    11   10   27 1   
    12   10   28 1   
    13   11   12 1   
    14   12   14 1   
    15   13   19 1   
    16   13   30 1   
    17   15   31 1   
    18   15   32 1   
    19   16   17 1   
    20   16   21 1   
    21   16   33 1   
    22   17   18 1   
    23   17   19 1   
    24   17   34 1   
    25   18   35 1   
    26   19   20 1   
    27   19   36 1   
    28   20   21 1   
    29   20   22 1   
    30   20   37 1   
    31   22   23 1   
    32   22   38 1   
    33   22   39 1   
    34   23   40 1   
@<TRIPOS>SUBSTRUCTURE
     1 A3G         1 TEMP              0 ****  ****    0 ROOT
