@<TRIPOS>MOLECULE
A3G
   42    44     1     0     0
SMALL
bcc


@<TRIPOS>ATOM
      1 C          -0.1440    0.5310   -0.1340 c         1 A3G      0.520100
      2 N           1.6370   -0.6000   -1.4590 n4        1 A3G     -0.833600
      3 O           0.4330    1.6090   -0.1640 o         1 A3G     -0.371100
      4 N1         -4.2320    1.8130    8.0290 nb        1 A3G     -0.764000
      5 C2         -4.3710    1.8230    6.6890 ca        1 A3G      0.722900
      6 N3         -3.6510    1.1710    5.7280 nb        1 A3G     -0.830000
      7 C4         -2.6590    0.4080    6.2640 ca        1 A3G      0.460800
      8 C5         -2.3820    0.2860    7.6820 ca        1 A3G     -0.232200
      9 C6         -3.2210    1.0370    8.5790 ca        1 A3G      0.789200
     10 N6         -3.0260    0.9900    9.9210 nh        1 A3G     -0.919500
     11 N7         -1.3050   -0.5960    7.8910 nc        1 A3G     -0.488100
     12 C8         -0.9290   -1.0040    6.6810 cd        1 A3G      0.420700
     13 N8         -1.2790    0.3550    0.8090 n4        1 A3G     -0.641800
     14 N9         -1.6820   -0.3930    5.6250 na        1 A3G     -0.329000
     15 CA          0.2190   -0.6580   -1.0170 c3        1 A3G      0.035800
     16 C1'        -1.7960   -0.8090    4.2650 c3        1 A3G      0.257800
     17 C2'        -1.9600    0.3950    3.2710 c3        1 A3G      0.112100
     18 O2'        -3.1970    0.3120    2.6020 oh        1 A3G     -0.648800
     19 C3'        -0.8100    0.1990    2.2350 c3        1 A3G      0.073500
     20 C4'        -0.2310   -1.2040    2.5430 c3        1 A3G      0.111100
     21 O4'        -0.5900   -1.5210    3.8800 os        1 A3G     -0.381600
     22 C5'         1.2990   -1.2740    2.4510 c3        1 A3G      0.116400
     23 O5'         1.6360   -1.7860    1.1670 oh        1 A3G     -0.705800
     24 HN          1.7890   -1.2900   -2.2100 hn        1 A3G      0.496133
     25 HNA         2.2600   -0.8300   -0.6620 hn        1 A3G      0.496133
     26 HN6        -2.3100    0.4100   10.2900 hn        1 A3G      0.468800
     27 HN6A       -3.6110    1.5000   10.5410 hn        1 A3G      0.468800
     28 HN8        -1.8900    1.1980    0.7900 hn        1 A3G      0.497800
     29 HA         -0.4590   -0.6430   -1.9290 hx        1 A3G      0.168200
     30 HAA         0.0740   -1.6360   -0.4550 hx        1 A3G      0.168200
     31 H1'        -2.6590   -1.5320    4.1250 h2        1 A3G      0.108700
     32 H2'        -1.8420    1.3950    3.7740 h1        1 A3G      0.133700
     33 HO2'       -3.8930    0.5790    3.2310 ho        1 A3G      0.503000
     34 H3'        -0.0320    1.0020    2.4120 hx        1 A3G      0.138700
     35 H4'        -0.6890   -1.9890    1.8730 h1        1 A3G      0.063700
     36 H5'         1.7720   -0.2600    2.5300 h1        1 A3G      0.102200
     37 H5'A        1.6940   -1.9270    3.2770 h1        1 A3G      0.102200
     38 HO5'        1.9980   -2.6750    1.2910 ho        1 A3G      0.463000
     39 H2         -5.2030    2.4590    6.3100 h5        1 A3G      0.068100
     40 HN3         1.8790    0.3390   -1.8110 hn        1 A3G      0.496133
     41 H82        -1.8660   -0.4540    0.5610 hn        1 A3G      0.497800
     42 H8         -0.1220   -1.7100    6.4530 h5        1 A3G      0.086800
@<TRIPOS>BOND
     1    1    3 2   
     2    1   13 1   
     3    1   15 1   
     4    2   15 1   
     5    2   24 1   
     6    2   25 1   
     7    2   40 1   
     8    4    5 ar  
     9    4    9 ar  
    10    5    6 ar  
    11    5   39 1   
    12    6    7 ar  
    13    7    8 ar  
    14    7   14 1   
    15    8    9 ar  
    16    8   11 1   
    17    9   10 1   
    18   10   26 1   
    19   10   27 1   
    20   11   12 2   
    21   12   14 1   
    22   12   42 1   
    23   13   19 1   
    24   13   28 1   
    25   13   41 1   
    26   14   16 1   
    27   15   29 1   
    28   15   30 1   
    29   16   17 1   
    30   16   21 1   
    31   16   31 1   
    32   17   18 1   
    33   17   19 1   
    34   17   32 1   
    35   18   33 1   
    36   19   20 1   
    37   19   34 1   
    38   20   21 1   
    39   20   22 1   
    40   20   35 1   
    41   22   23 1   
    42   22   36 1   
    43   22   37 1   
    44   23   38 1   
@<TRIPOS>SUBSTRUCTURE
     1 A3G         1 TEMP              0 ****  ****    0 ROOT
