@<TRIPOS>MOLECULE
A3G
   43    45     1     0     0
SMALL
bcc


@<TRIPOS>ATOM
      1 C          -0.1450    0.4780    0.0130 c         1 A3G      0.524100
      2 N           1.4070    0.7830   -1.9330 n4        1 A3G     -0.832600
      3 O          -0.0660    1.6610    0.3060 o         1 A3G     -0.371100
      4 N1         -4.3700    1.9810    7.9480 nb        1 A3G     -0.651000
      5 C2         -4.5550    1.8420    6.6040 ca        1 A3G      0.703900
      6 N3         -3.8040    1.1310    5.7170 nb        1 A3G     -0.678000
      7 C4         -2.7520    0.4950    6.2830 ca        1 A3G      0.449800
      8 C5         -2.4300    0.5670    7.7210 ca        1 A3G     -0.125200
      9 C6         -3.3090    1.3420    8.5030 ca        1 A3G      0.559200
     10 N6         -3.0820    1.4500    9.9550 n4        1 A3G     -0.821300
     11 N7         -1.2830   -0.1950    7.9940 nc        1 A3G     -0.538100
     12 C8         -0.9140   -0.7170    6.8190 cd        1 A3G      0.525700
     13 N8         -1.0310   -0.4150    0.8180 n4        1 A3G     -0.640800
     14 N9         -1.7390   -0.3150    5.7270 na        1 A3G     -0.301000
     15 CA          0.6180   -0.1870   -1.1290 c3        1 A3G      0.020800
     16 C1'        -1.8230   -0.9260    4.4260 c3        1 A3G      0.236800
     17 C2'        -1.8770    0.0890    3.2220 c3        1 A3G      0.109100
     18 O2'        -3.0940   -0.0610    2.5310 oh        1 A3G     -0.625800
     19 C3'        -0.7180   -0.3860    2.2910 c3        1 A3G      0.083500
     20 C4'        -0.3720   -1.8040    2.8330 c3        1 A3G      0.117100
     21 O4'        -0.6410   -1.7430    4.2310 os        1 A3G     -0.375600
     22 C5'         1.0950   -2.1650    2.6060 c3        1 A3G      0.124400
     23 O5'         1.2590   -2.2110    1.1910 oh        1 A3G     -0.696800
     24 HN          0.7920    1.4700   -2.3970 hn        1 A3G      0.498133
     25 HNA         1.9360    0.2700   -2.6600 hn        1 A3G      0.498133
     26 HN6        -3.4030    0.5820   10.4080 hn        1 A3G      0.492800
     27 HN6A       -2.0740    1.5710   10.1310 hn        1 A3G      0.492800
     28 HN8        -0.9340   -1.3900    0.4890 hn        1 A3G      0.500300
     29 HA          1.3270   -0.9610   -0.6800 hx        1 A3G      0.178200
     30 HAA        -0.1040   -0.7220   -1.8240 hx        1 A3G      0.178200
     31 H1'        -2.7300   -1.6080    4.3770 h2        1 A3G      0.126700
     32 H2'        -1.7140    1.1530    3.5420 h1        1 A3G      0.115700
     33 HO2'       -3.7870    0.4160    3.0190 ho        1 A3G      0.490000
     34 H3'         0.1610    0.3070    2.4500 hx        1 A3G      0.135700
     35 H4'        -1.0440   -2.5890    2.3790 h1        1 A3G      0.094700
     36 H5'         1.7820   -1.3770    3.0140 h1        1 A3G      0.101200
     37 H5'A        1.3250   -3.1500    3.0920 h1        1 A3G      0.101200
     38 HO5'        1.7330   -3.0290    0.9810 ho        1 A3G      0.468000
     39 H2         -5.4440    2.3800    6.1890 h5        1 A3G      0.117100
     40 HN3         2.0750    1.2990   -1.3400 hn        1 A3G      0.498133
     41 H63        -3.6010    2.2490   10.3560 hn        1 A3G      0.492800
     42 H82        -2.0210   -0.1130    0.6930 hn        1 A3G      0.500300
     43 H8         -0.0530   -1.3920    6.6590 h5        1 A3G      0.123800
@<TRIPOS>BOND
     1    1    3 2   
     2    1   13 1   
     3    1   15 1   
     4    2   15 1   
     5    2   24 1   
     6    2   25 1   
     7    2   40 1   
     8    4    5 ar  
     9    4    9 ar  
    10    5    6 ar  
    11    5   39 1   
    12    6    7 ar  
    13    7    8 ar  
    14    7   14 1   
    15    8    9 ar  
    16    8   11 1   
    17    9   10 1   
    18   10   26 1   
    19   10   27 1   
    20   10   41 1   
    21   11   12 2   
    22   12   14 1   
    23   12   43 1   
    24   13   19 1   
    25   13   28 1   
    26   13   42 1   
    27   14   16 1   
    28   15   29 1   
    29   15   30 1   
    30   16   17 1   
    31   16   21 1   
    32   16   31 1   
    33   17   18 1   
    34   17   19 1   
    35   17   32 1   
    36   18   33 1   
    37   19   20 1   
    38   19   34 1   
    39   20   21 1   
    40   20   22 1   
    41   20   35 1   
    42   22   23 1   
    43   22   36 1   
    44   22   37 1   
    45   23   38 1   
@<TRIPOS>SUBSTRUCTURE
     1 A3G         1 TEMP              0 ****  ****    0 ROOT
