@<TRIPOS>MOLECULE
A3G
   40    42     1     0     0
SMALL
bcc


@<TRIPOS>ATOM
      1 C          -4.2900    1.0560   -0.3150 c         1 A3G      0.608100
      2 N          -6.5150    2.1960   -0.5740 n3        1 A3G     -0.885800
      3 O          -4.4000    0.5540   -1.4520 o         1 A3G     -0.618100
      4 N1          4.8090    1.2100   -0.9010 nb        1 A3G     -0.795000
      5 C2          3.7440    1.9800   -0.5530 ca        1 A3G      0.689900
      6 N3          2.5420    1.6280   -0.0390 nb        1 A3G     -0.763000
      7 C4          2.4290    0.2770    0.1440 ca        1 A3G      0.447800
      8 C5          3.4770   -0.6810   -0.1860 ca        1 A3G     -0.227200
      9 C6          4.6960   -0.1510   -0.7300 ca        1 A3G      0.763200
     10 N6          5.7130   -0.9940   -1.0930 nh        1 A3G     -0.956500
     11 N7          3.0490   -1.9830    0.1160 nc        1 A3G     -0.553100
     12 C8          1.8090   -1.8430    0.6050 cd        1 A3G      0.425700
     13 N8         -3.2120    0.7600    0.5050 n         1 A3G     -0.538900
     14 N9          1.3720   -0.4950    0.6450 na        1 A3G     -0.296000
     15 CA         -5.3740    1.9790    0.2660 c3        1 A3G      0.092800
     16 C1'         0.1360    0.0330    1.1770 c3        1 A3G      0.218800
     17 C2'        -0.6990    0.8480    0.1320 c3        1 A3G      0.096100
     18 O2'        -0.8920    2.1590    0.6140 oh        1 A3G     -0.596800
     19 C3'        -2.0520    0.0790    0.0010 c3        1 A3G      0.074700
     20 C4'        -1.7760   -1.2600    0.7510 c3        1 A3G      0.118100
     21 O4'        -0.6930   -1.0250    1.6560 os        1 A3G     -0.384600
     22 C5'        -1.4290   -2.3570   -0.2570 c3        1 A3G      0.101400
     23 O5'        -1.0490   -3.5050    0.4820 oh        1 A3G     -0.593800
     24 HN         -6.2440    2.6130   -1.4440 hn        1 A3G      0.361300
     25 HNA        -6.9860    1.3330   -0.7680 hn        1 A3G      0.361300
     26 HN6         6.5790   -0.6320   -1.4040 hn        1 A3G      0.449300
     27 HN6A        5.6310   -1.9560   -0.8780 hn        1 A3G      0.449300
     28 H8          1.1400   -2.6500    0.9500 h5        1 A3G      0.103800
     29 HN8        -3.0670    1.3240    1.3120 hn        1 A3G      0.322500
     30 HA         -5.7290    1.5360    1.2400 h1        1 A3G      0.077200
     31 HAA        -4.8960    2.9770    0.4830 h1        1 A3G      0.077200
     32 H1'         0.3750    0.6700    2.0830 h2        1 A3G      0.106700
     33 H2'        -0.1980    0.8750   -0.8740 h1        1 A3G      0.076700
     34 HO2'       -0.0500    2.6220    0.4950 ho        1 A3G      0.437000
     35 H3'        -2.2230   -0.1410   -1.0960 h1        1 A3G      0.104700
     36 H4'        -2.6190   -1.5990    1.4120 h1        1 A3G      0.109700
     37 H5'        -2.3290   -2.5730   -0.8920 h1        1 A3G      0.039700
     38 H5'A       -0.5750   -2.0350   -0.9130 h1        1 A3G      0.039700
     39 HO5'       -0.9960   -4.2330   -0.1490 ho        1 A3G      0.407000
     40 H2          3.8910    3.0700   -0.7160 h5        1 A3G      0.051100
@<TRIPOS>BOND
     1    1    3 2   
     2    1   13 1   
     3    1   15 1   
     4    2   15 1   
     5    2   24 1   
     6    2   25 1   
     7    4    5 ar  
     8    4    9 ar  
     9    5    6 ar  
    10    5   40 1   
    11    6    7 ar  
    12    7    8 ar  
    13    7   14 1   
    14    8    9 ar  
    15    8   11 1   
    16    9   10 1   
    17   10   26 1   
    18   10   27 1   
    19   11   12 2   
    20   12   14 1   
    21   12   28 1   
    22   13   19 1   
    23   13   29 1   
    24   14   16 1   
    25   15   30 1   
    26   15   31 1   
    27   16   17 1   
    28   16   21 1   
    29   16   32 1   
    30   17   18 1   
    31   17   19 1   
    32   17   33 1   
    33   18   34 1   
    34   19   20 1   
    35   19   35 1   
    36   20   21 1   
    37   20   22 1   
    38   20   36 1   
    39   22   23 1   
    40   22   37 1   
    41   22   38 1   
    42   23   39 1   
@<TRIPOS>SUBSTRUCTURE
     1 A3G         1 TEMP              0 ****  ****    0 ROOT
