@<TRIPOS>MOLECULE
A3G
   42    44     1     0     0
SMALL
bcc


@<TRIPOS>ATOM
      1 C          -0.0730    0.5210   -0.1170 c         1 A3G      0.520100
      2 N           1.6830   -0.6670   -1.4260 nz        1 A3G     -0.833600
      3 O           0.5440    1.5770   -0.1320 o         1 A3G     -0.371100
      4 N1         -4.2190    1.8990    8.0010 nb        1 A3G     -0.764000
      5 C2         -4.3400    1.9230    6.6590 ca        1 A3G      0.722900
      6 N3         -3.6320    1.2500    5.7030 nb        1 A3G     -0.830000
      7 C4         -2.6760    0.4480    6.2460 ca        1 A3G      0.460800
      8 C5         -2.4230    0.3060    7.6670 ca        1 A3G     -0.232200
      9 C6         -3.2450    1.0810    8.5590 ca        1 A3G      0.789200
     10 N6         -3.0700    1.0190    9.9020 nv        1 A3G     -0.919500
     11 N7         -1.3820   -0.6160    7.8840 nc        1 A3G     -0.488100
     12 C8         -1.0060   -1.0300    6.6760 cd        1 A3G      0.420700
     13 N8         -1.2260    0.3810    0.8100 ny        1 A3G     -0.641800
     14 N9         -1.7210   -0.3850    5.6150 na        1 A3G     -0.329000
     15 CA          0.2580   -0.6750   -1.0040 c3        1 A3G      0.035800
     16 C1'        -1.8320   -0.7870    4.2500 c3        1 A3G      0.257800
     17 C2'        -1.9380    0.4280    3.2620 c3        1 A3G      0.112100
     18 O2'        -3.1690    0.3960    2.5770 oh        1 A3G     -0.648800
     19 C3'        -0.7820    0.1980    2.2400 c3        1 A3G      0.073500
     20 C4'        -0.2590   -1.2290    2.5470 c3        1 A3G      0.111100
     21 O4'        -0.6480   -1.5410    3.8760 os        1 A3G     -0.381600
     22 C5'         1.2680   -1.3540    2.4740 c3        1 A3G      0.116400
     23 O5'         1.6030   -1.8690    1.1900 oh        1 A3G     -0.705800
     24 HN          1.8200   -1.3570   -2.1800 hn        1 A3G      0.496133
     25 HNA         1.9640    0.2650   -1.7680 hn        1 A3G      0.496133
     26 HN6        -2.3810    0.4110   10.2770 hn        1 A3G      0.468800
     27 HN6A       -3.6440    1.5460   10.5190 hn        1 A3G      0.468800
     28 HN8        -1.8050    1.2450    0.7890 hn        1 A3G      0.497800
     29 HA         -0.4060   -0.6290   -1.9240 hx        1 A3G      0.168200
     30 HAA         0.0700   -1.6510   -0.4510 hx        1 A3G      0.168200
     31 H1'        -2.7190   -1.4770    4.0930 h2        1 A3G      0.108700
     32 H2'        -1.7900    1.4200    3.7750 h1        1 A3G      0.133700
     33 HO2'       -3.8630    0.6840    3.1990 ho        1 A3G      0.503000
     34 H3'         0.0220    0.9700    2.4340 hx        1 A3G      0.138700
     35 H4'        -0.7370   -1.9920    1.8640 h1        1 A3G      0.063700
     36 H5'         1.6280   -2.0260    3.3010 h1        1 A3G      0.102200
     37 H5'A        1.7770   -0.3580    2.5670 h1        1 A3G      0.102200
     38 HO5'        1.9300   -2.7720    1.3130 ho        1 A3G      0.463000
     39 H2         -5.1430    2.5920    6.2740 h5        1 A3G      0.068100
     40 HN3         2.2870   -0.9240   -0.6230 hn        1 A3G      0.496133
     41 H82        -1.8390   -0.4050    0.5480 hn        1 A3G      0.497800
     42 H8         -0.2220   -1.7650    6.4530 h5        1 A3G      0.086800
@<TRIPOS>BOND
     1    1    3 2   
     2    1   13 1   
     3    1   15 1   
     4    2   15 1   
     5    2   24 1   
     6    2   25 1   
     7    2   40 1   
     8    4    5 ar  
     9    4    9 ar  
    10    5    6 ar  
    11    5   39 1   
    12    6    7 ar  
    13    7    8 ar  
    14    7   14 1   
    15    8    9 ar  
    16    8   11 1   
    17    9   10 1   
    18   10   26 1   
    19   10   27 1   
    20   11   12 2   
    21   12   14 1   
    22   12   42 1   
    23   13   19 1   
    24   13   28 1   
    25   13   41 1   
    26   14   16 1   
    27   15   29 1   
    28   15   30 1   
    29   16   17 1   
    30   16   21 1   
    31   16   31 1   
    32   17   18 1   
    33   17   19 1   
    34   17   32 1   
    35   18   33 1   
    36   19   20 1   
    37   19   34 1   
    38   20   21 1   
    39   20   22 1   
    40   20   35 1   
    41   22   23 1   
    42   22   36 1   
    43   22   37 1   
    44   23   38 1   
@<TRIPOS>SUBSTRUCTURE
     1 A3G         1 TEMP              0 ****  ****    0 ROOT
