@<TRIPOS>MOLECULE
A3M
   30    30     1     0     0
SMALL
bcc


@<TRIPOS>ATOM
      1 C1         -0.1210    0.2080   -3.5920 c3        1 A3M     -0.090400
      2 C2          0.7600    0.5480   -2.3810 c3        1 A3M      0.090500
      3 N3          0.0610    0.0970   -1.1880 n         1 A3M     -0.469800
      4 C4         -1.2010   -0.5340   -1.5160 c3        1 A3M      0.090500
      5 C5         -1.3940   -0.4240   -3.0380 c3        1 A3M     -0.090400
      6 C14         0.7250   -0.0440    0.0130 c         1 A3M      0.662100
      7 C15        -0.0490   -0.5800    1.2380 c3        1 A3M      0.110500
      8 C16        -0.6210    0.6460    1.9910 c3        1 A3M     -0.098700
      9 C17        -1.7380    0.2190    2.9190 c3        1 A3M     -0.097600
     10 O18         1.9120    0.3290    0.1190 o         1 A3M     -0.616100
     11 N19         0.7830   -1.4800    2.0110 n3        1 A3M     -0.896800
     12 C26         0.4510    1.3930    2.7530 c3        1 A3M     -0.097600
     13 HC11       -0.3520    1.1320   -4.1750 hc        1 A3M      0.052950
     14 HC12        0.4130   -0.5010   -4.2710 hc        1 A3M      0.052950
     15 HC21        0.9310    1.6570   -2.3030 h1        1 A3M      0.050450
     16 HC22        1.7670    0.0510   -2.4520 h1        1 A3M      0.050450
     17 HC41       -1.2030   -1.6160   -1.2020 h1        1 A3M      0.050450
     18 HC42       -2.0320   -0.0100   -0.9680 h1        1 A3M      0.050450
     19 HC51       -2.2860    0.2090   -3.2680 hc        1 A3M      0.052950
     20 HC52       -1.5670   -1.4350   -3.4790 hc        1 A3M      0.052950
     21 H15        -0.9300   -1.2020    0.8960 h1        1 A3M      0.067700
     22 H16        -1.0560    1.3370    1.2140 hc        1 A3M      0.059700
     23 H171       -2.1740    1.1140    3.4260 hc        1 A3M      0.040367
     24 H172       -2.5490   -0.2960    2.3490 hc        1 A3M      0.040367
     25 H173       -1.3630   -0.4780    3.7070 hc        1 A3M      0.040367
     26 H191        1.7330   -1.1570    2.0300 hn        1 A3M      0.360300
     27 H192        0.4400   -1.5340    2.9510 hn        1 A3M      0.360300
     28 H261        0.7820    0.8150    3.6500 hc        1 A3M      0.040367
     29 H262        1.3390    1.5720    2.0970 hc        1 A3M      0.040367
     30 H263        0.0570    2.3780    3.1010 hc        1 A3M      0.040367
@<TRIPOS>BOND
     1    1    2 1   
     2    1    5 1   
     3    1   13 1   
     4    1   14 1   
     5    2    3 1   
     6    2   15 1   
     7    2   16 1   
     8    3    4 1   
     9    3    6 1   
    10    4    5 1   
    11    4   17 1   
    12    4   18 1   
    13    5   19 1   
    14    5   20 1   
    15    6    7 1   
    16    6   10 2   
    17    7    8 1   
    18    7   11 1   
    19    7   21 1   
    20    8    9 1   
    21    8   12 1   
    22    8   22 1   
    23    9   23 1   
    24    9   24 1   
    25    9   25 1   
    26   11   26 1   
    27   11   27 1   
    28   12   28 1   
    29   12   29 1   
    30   12   30 1   
@<TRIPOS>SUBSTRUCTURE
     1 A3M         1 TEMP              0 ****  ****    0 ROOT
