@<TRIPOS>MOLECULE
A3M
   31    31     1     0     0
SMALL
bcc


@<TRIPOS>ATOM
      1 C1         -0.0070    0.1920   -0.0010 c3        1 A3M     -0.089900
      2 C2          1.5230    0.0660    0.0160 c3        1 A3M      0.084500
      3 N3          1.9350    0.0330    1.4180 n         1 A3M     -0.432800
      4 C4          0.8020    0.1160    2.3220 c3        1 A3M      0.084500
      5 C5         -0.4640    0.2280    1.4550 c3        1 A3M     -0.089900
      6 C14         3.2410   -0.0370    1.7710 c         1 A3M      0.641100
      7 C15         3.6190   -0.0070    3.2780 c3        1 A3M      0.040500
      8 C16         3.7330    1.4530    3.7570 c3        1 A3M     -0.084700
      9 C17         3.7800    1.5220    5.2680 c3        1 A3M     -0.121600
     10 O18         4.1730   -0.1350    0.9400 o         1 A3M     -0.616100
     11 N19         4.9130   -0.7480    3.4560 nz        1 A3M     -0.833600
     12 C26         4.9150    2.1700    3.1410 c3        1 A3M     -0.121600
     13 HC11       -0.4580   -0.6780   -0.5390 hc        1 A3M      0.073950
     14 HC12       -0.3110    1.1240   -0.5380 hc        1 A3M      0.073950
     15 HC21        1.8670   -0.8760   -0.4920 h1        1 A3M      0.061700
     16 HC22        2.0170    0.9380   -0.4960 h1        1 A3M      0.061700
     17 HC41        0.9040    1.0130    2.9930 h1        1 A3M      0.061700
     18 HC42        0.7590   -0.8060    2.9660 h1        1 A3M      0.061700
     19 HC51       -1.0010    1.1820    1.6820 hc        1 A3M      0.073950
     20 HC52       -1.1580   -0.6190    1.6790 hc        1 A3M      0.073950
     21 H15         2.8410   -0.5440    3.8980 hx        1 A3M      0.116700
     22 H16         2.7870    1.9630    3.4080 hc        1 A3M      0.103700
     23 H171        2.9180    0.9740    5.7230 hc        1 A3M      0.061200
     24 H172        3.7210    2.5910    5.5920 hc        1 A3M      0.061200
     25 H173        4.7310    1.0990    5.6740 hc        1 A3M      0.061200
     26 H191        5.3310   -0.5030    4.3570 hn        1 A3M      0.469467
     27 H192        4.7540   -1.7560    3.4000 hn        1 A3M      0.469467
     28 H261        4.7960    3.2740    3.2810 hc        1 A3M      0.061200
     29 H262        4.9810    1.9630    2.0430 hc        1 A3M      0.061200
     30 H263        5.8760    1.8720    3.6270 hc        1 A3M      0.061200
     31 H193        5.5510   -0.4700    2.6890 hn        1 A3M      0.469467
@<TRIPOS>BOND
     1    1    2 1   
     2    1    5 1   
     3    1   13 1   
     4    1   14 1   
     5    2    3 1   
     6    2   15 1   
     7    2   16 1   
     8    3    4 1   
     9    3    6 1   
    10    4    5 1   
    11    4   17 1   
    12    4   18 1   
    13    5   19 1   
    14    5   20 1   
    15    6    7 1   
    16    6   10 2   
    17    7    8 1   
    18    7   11 1   
    19    7   21 1   
    20    8    9 1   
    21    8   12 1   
    22    8   22 1   
    23    9   23 1   
    24    9   24 1   
    25    9   25 1   
    26   11   26 1   
    27   11   27 1   
    28   11   31 1   
    29   12   28 1   
    30   12   29 1   
    31   12   30 1   
@<TRIPOS>SUBSTRUCTURE
     1 A3M         1 TEMP              0 ****  ****    0 ROOT
