@<TRIPOS>MOLECULE
A3M
   30    30     1     0     0
SMALL
bcc


@<TRIPOS>ATOM
      1 C1         -2.6520   -0.3570   -2.4910 c3        1 A3M     -0.091400
      2 C2         -1.0760   -0.5000   -2.5020 c3        1 A3M      0.082500
      3 N3         -0.7250   -0.4410   -1.2640 n         1 A3M     -0.469800
      4 C4         -1.9740   -0.9700   -0.4170 c3        1 A3M      0.082500
      5 C5         -3.0640   -0.5170   -1.0340 c3        1 A3M     -0.091400
      6 C14         0.5590    0.0190   -0.7350 c         1 A3M      0.605100
      7 C15         0.8460   -0.0770    0.7550 c3        1 A3M      0.120500
      8 C16         1.6670    1.1120    1.1830 c3        1 A3M     -0.050700
      9 C17         1.1330    1.6630    2.5220 c3        1 A3M     -0.093600
     10 O18         1.4100    0.3920   -1.4790 o         1 A3M     -0.598100
     11 N19         1.5700   -1.2770    1.0240 n3        1 A3M     -0.902800
     12 C26         3.1170    0.6920    1.3550 c3        1 A3M     -0.093600
     13 HC11       -2.9140    0.5180   -2.8200 hc        1 A3M      0.052950
     14 HC12       -3.0650   -1.0710   -3.0440 hc        1 A3M      0.052950
     15 HC21       -0.6800    0.2230   -2.9950 h1        1 A3M      0.050200
     16 HC22       -0.8140   -1.3590   -2.8900 h1        1 A3M      0.050200
     17 HC41       -1.9790   -1.9380   -0.4020 h1        1 A3M      0.050200
     18 HC42       -1.9340   -0.6170    0.5000 h1        1 A3M      0.050200
     19 HC51       -3.7910   -1.1590   -0.9540 hc        1 A3M      0.052950
     20 HC52       -3.3240    0.3260   -0.6700 hc        1 A3M      0.052950
     21 H15        -0.0200   -0.0870    1.2620 h1        1 A3M      0.066700
     22 H16         1.6090    1.8030    0.5050 hc        1 A3M      0.063700
     23 H171        1.0890    0.9280    3.1940 hc        1 A3M      0.039533
     24 H172        1.7460    2.3810    2.8540 hc        1 A3M      0.039533
     25 H173        0.2300    2.0390    2.3850 hc        1 A3M      0.039533
     26 H191        1.5410   -1.8290    0.2820 hn        1 A3M      0.359800
     27 H192        1.2080   -1.6910    1.7110 hn        1 A3M      0.359800
     28 H261        3.6710    1.4840    1.4670 hc        1 A3M      0.039533
     29 H262        3.2020    0.1200    2.1470 hc        1 A3M      0.039533
     30 H263        3.4140    0.1900    0.5510 hc        1 A3M      0.039533
@<TRIPOS>BOND
     1    1    2 1   
     2    1    5 1   
     3    1   13 1   
     4    1   14 1   
     5    2    3 1   
     6    2   15 1   
     7    2   16 1   
     8    3    4 1   
     9    3    6 1   
    10    4    5 1   
    11    4   17 1   
    12    4   18 1   
    13    5   19 1   
    14    5   20 1   
    15    6    7 1   
    16    6   10 2   
    17    7    8 1   
    18    7   11 1   
    19    7   21 1   
    20    8    9 1   
    21    8   12 1   
    22    8   22 1   
    23    9   23 1   
    24    9   24 1   
    25    9   25 1   
    26   11   26 1   
    27   11   27 1   
    28   12   28 1   
    29   12   29 1   
    30   12   30 1   
@<TRIPOS>SUBSTRUCTURE
     1 A3M         1 TEMP              0 ****  ****    0 ROOT
