@<TRIPOS>MOLECULE
A3M
   31    31     1     0     0
SMALL
bcc


@<TRIPOS>ATOM
      1 C1         -0.0040    0.1740   -0.0010 c3        1 A3M     -0.089900
      2 C2          1.5260    0.0520    0.0170 c3        1 A3M      0.084500
      3 N3          1.9380    0.0260    1.4200 n         1 A3M     -0.432800
      4 C4          0.8030    0.1100    2.3230 c3        1 A3M      0.084500
      5 C5         -0.4620    0.2160    1.4540 c3        1 A3M     -0.089900
      6 C14         3.2430   -0.0390    1.7740 c         1 A3M      0.641100
      7 C15         3.6200   -0.0010    3.2810 c3        1 A3M      0.040500
      8 C16         3.7300    1.4620    3.7540 c3        1 A3M     -0.084700
      9 C17         3.7750    1.5360    5.2650 c3        1 A3M     -0.121600
     10 O18         4.1760   -0.1370    0.9440 o         1 A3M     -0.616100
     11 N19         4.9160   -0.7380    3.4630 n4        1 A3M     -0.833600
     12 C26         4.9110    2.1790    3.1350 c3        1 A3M     -0.121600
     13 HC11       -0.3090    1.1040   -0.5420 hc        1 A3M      0.073950
     14 HC12       -0.4540   -0.6980   -0.5370 hc        1 A3M      0.073950
     15 HC21        1.8720   -0.8920   -0.4860 h1        1 A3M      0.061700
     16 HC22        2.0180    0.9220   -0.4990 h1        1 A3M      0.061700
     17 HC41        0.7620   -0.8090    2.9710 h1        1 A3M      0.061700
     18 HC42        0.9030    1.0100    2.9900 h1        1 A3M      0.061700
     19 HC51       -1.0020    1.1690    1.6770 hc        1 A3M      0.073950
     20 HC52       -1.1540   -0.6320    1.6810 hc        1 A3M      0.073950
     21 H15         2.8430   -0.5380    3.9030 hx        1 A3M      0.116700
     22 H16         2.7820    1.9670    3.4020 hc        1 A3M      0.103700
     23 H171        3.7130    2.6080    5.5840 hc        1 A3M      0.061200
     24 H172        2.9150    0.9890    5.7210 hc        1 A3M      0.061200
     25 H173        4.7270    1.1190    5.6730 hc        1 A3M      0.061200
     26 H191        5.5540   -0.4620    2.6950 hn        1 A3M      0.469467
     27 H192        5.3320   -0.4880    4.3640 hn        1 A3M      0.469467
     28 H261        4.7880    3.2830    3.2710 hc        1 A3M      0.061200
     29 H262        4.9770    1.9670    2.0390 hc        1 A3M      0.061200
     30 H263        5.8710    1.8850    3.6240 hc        1 A3M      0.061200
     31 H193        4.7600   -1.7470    3.4120 hn        1 A3M      0.469467
@<TRIPOS>BOND
     1    1    2 1   
     2    1    5 1   
     3    1   13 1   
     4    1   14 1   
     5    2    3 1   
     6    2   15 1   
     7    2   16 1   
     8    3    4 1   
     9    3    6 1   
    10    4    5 1   
    11    4   17 1   
    12    4   18 1   
    13    5   19 1   
    14    5   20 1   
    15    6    7 1   
    16    6   10 2   
    17    7    8 1   
    18    7   11 1   
    19    7   21 1   
    20    8    9 1   
    21    8   12 1   
    22    8   22 1   
    23    9   23 1   
    24    9   24 1   
    25    9   25 1   
    26   11   26 1   
    27   11   27 1   
    28   11   31 1   
    29   12   28 1   
    30   12   29 1   
    31   12   30 1   
@<TRIPOS>SUBSTRUCTURE
     1 A3M         1 TEMP              0 ****  ****    0 ROOT
