@<TRIPOS>MOLECULE
A3N
   39    41     1     0     0
SMALL
bcc


@<TRIPOS>ATOM
      1 C13        -0.7130    2.7800   -0.4090 c1        1 A3N      0.029500
      2 C12         0.0120    2.3680    0.4500 c1        1 A3N     -0.278100
      3 C11         0.8350    1.9210    1.5350 c3        1 A3N      0.229900
      4 N5          1.9500    1.0360    1.0610 ny        1 A3N     -0.751000
      5 C10         2.7070    0.4500    2.2010 c3        1 A3N      0.093800
      6 C9          3.8950   -0.4060    1.7330 c3        1 A3N      0.085100
      7 O1          4.4980    0.1670    0.5730 os        1 A3N     -0.430600
      8 C8          4.9540   -0.5300    2.8480 c3        1 A3N      0.102100
      9 O2          5.1380   -1.8680    3.2320 oh        1 A3N     -0.569800
     10 C7          6.2360    0.0990    2.2600 c3        1 A3N      0.073100
     11 O3          7.2400   -0.8840    2.1150 oh        1 A3N     -0.587800
     12 C6          5.8720    0.5380    0.8050 c3        1 A3N      0.267800
     13 N3          6.0870    1.9270    0.5200 na        1 A3N     -0.304000
     14 C5          7.2530    2.4260   -0.1410 cc        1 A3N      0.423700
     15 N4          7.2880    3.7580   -0.2200 nd        1 A3N     -0.510100
     16 C2          6.1090    4.1990    0.4040 ca        1 A3N     -0.233200
     17 C3          5.3330    3.0590    0.8750 ca        1 A3N      0.474800
     18 N2          4.1230    3.1810    1.4980 nb        1 A3N     -0.850000
     19 C4          3.7500    4.4800    1.6620 ca        1 A3N      0.697900
     20 N1          4.3660    5.6220    1.2950 nb        1 A3N     -0.776000
     21 C1          5.5820    5.5140    0.6390 ca        1 A3N      0.784200
     22 N6          6.2550    6.6200    0.2240 nv        1 A3N     -0.927500
     23 H1         -1.3590    3.1470   -1.1750 ha        1 A3N      0.198500
     24 H2          1.3070    2.8060    2.0640 hx        1 A3N      0.117200
     25 H3          0.2170    1.3360    2.2810 hx        1 A3N      0.117200
     26 H4          1.5720    0.2820    0.4770 hn        1 A3N      0.466800
     27 H6          3.0650    1.2990    2.8520 hx        1 A3N      0.115200
     28 H7          2.0110   -0.2010    2.8040 hx        1 A3N      0.115200
     29 H8          3.5310   -1.4250    1.4130 h1        1 A3N      0.100700
     30 H9          4.6340   -0.0060    3.7910 h1        1 A3N      0.105700
     31 H10         5.6140   -2.3300    2.5250 ho        1 A3N      0.432000
     32 H11         6.5930    0.9520    2.8940 h1        1 A3N      0.092700
     33 H12         7.6100   -1.0510    2.9940 ho        1 A3N      0.440000
     34 H13         6.4760   -0.0670    0.0560 h2        1 A3N      0.126700
     35 H14         8.0180    1.7410   -0.5300 h5        1 A3N      0.091800
     36 H15         2.7820    4.6350    2.1880 h5        1 A3N      0.042100
     37 H16         5.8980    7.5300    0.3940 hn        1 A3N      0.464800
     38 H17         7.1290    6.5130   -0.2330 hn        1 A3N      0.464800
     39 H52         2.6070    1.5810    0.4790 hn        1 A3N      0.466800
@<TRIPOS>BOND
     1    1    2 3   
     2    1   23 1   
     3    2    3 1   
     4    3    4 1   
     5    3   24 1   
     6    3   25 1   
     7    4    5 1   
     8    4   26 1   
     9    4   39 1   
    10    5    6 1   
    11    5   27 1   
    12    5   28 1   
    13    6    7 1   
    14    6    8 1   
    15    6   29 1   
    16    7   12 1   
    17    8    9 1   
    18    8   10 1   
    19    8   30 1   
    20    9   31 1   
    21   10   11 1   
    22   10   12 1   
    23   10   32 1   
    24   11   33 1   
    25   12   13 1   
    26   12   34 1   
    27   13   14 1   
    28   13   17 1   
    29   14   15 2   
    30   14   35 1   
    31   15   16 1   
    32   16   17 ar  
    33   16   21 ar  
    34   17   18 ar  
    35   18   19 ar  
    36   19   20 ar  
    37   19   36 1   
    38   20   21 ar  
    39   21   22 1   
    40   22   37 1   
    41   22   38 1   
@<TRIPOS>SUBSTRUCTURE
     1 A3N         1 TEMP              0 ****  ****    0 ROOT
