@<TRIPOS>MOLECULE
A3N
   38    40     1     0     0
SMALL
bcc


@<TRIPOS>ATOM
      1 C13        -5.1460   -3.5990    0.5090 c1        1 A3N     -0.133500
      2 C12        -4.7150   -2.6590   -0.0910 c1        1 A3N     -0.156100
      3 C11        -4.2060   -1.5390   -0.8460 c3        1 A3N      0.243900
      4 N5         -3.7920   -0.4130   -0.0220 n3        1 A3N     -0.819200
      5 C10        -2.9120    0.4990   -0.7220 c3        1 A3N      0.149800
      6 C9         -2.3260    1.5730    0.2050 c3        1 A3N      0.090100
      7 O1         -1.4660    0.9550    1.1770 os        1 A3N     -0.413600
      8 C8         -1.5040    2.6080   -0.5900 c3        1 A3N      0.130100
      9 O2         -1.9950    3.9120   -0.4110 oh        1 A3N     -0.572800
     10 C7         -0.0440    2.4220   -0.1170 c3        1 A3N      0.082100
     11 O3          0.3620    3.5960    0.5510 oh        1 A3N     -0.592800
     12 C6         -0.0930    1.2470    0.9140 c3        1 A3N      0.226800
     13 N3          0.6000    0.0580    0.4680 na        1 A3N     -0.292000
     14 C5          0.1190   -1.2720    0.3940 cc        1 A3N      0.421700
     15 N4          1.0550   -2.1590    0.0280 nd        1 A3N     -0.546100
     16 C2          2.2270   -1.4070   -0.1450 ca        1 A3N     -0.229200
     17 C3          1.9620   -0.0010    0.1350 ca        1 A3N      0.451800
     18 N2          2.9080    0.9840    0.0610 nb        1 A3N     -0.760000
     19 C4          4.1230    0.5070   -0.2990 ca        1 A3N      0.691900
     20 N1          4.5170   -0.7610   -0.5880 nb        1 A3N     -0.795000
     21 C1          3.5680   -1.7560   -0.5220 ca        1 A3N      0.766200
     22 N6          3.8830   -3.0520   -0.8250 nh        1 A3N     -0.957500
     23 H1         -5.5300   -4.4350    1.0370 ha        1 A3N      0.166500
     24 H2         -3.3620   -1.9200   -1.5060 h1        1 A3N      0.052200
     25 H3         -5.0200   -1.1590   -1.5340 h1        1 A3N      0.052200
     26 H4         -3.3750   -0.7190    0.8380 hn        1 A3N      0.373800
     27 H6         -2.0540   -0.0330   -1.2310 h1        1 A3N      0.041700
     28 H7         -3.5200    1.0160   -1.5170 h1        1 A3N      0.041700
     29 H8         -3.1350    2.0740    0.8070 h1        1 A3N      0.105700
     30 H9         -1.5830    2.4280   -1.6970 h1        1 A3N      0.094700
     31 H10        -1.7450    4.2130    0.4740 ho        1 A3N      0.425000
     32 H11         0.6290    2.2040   -0.9870 h1        1 A3N      0.085700
     33 H12         1.3280    3.5710    0.5970 ho        1 A3N      0.434000
     34 H13         0.3470    1.5680    1.9070 h2        1 A3N      0.104700
     35 H14        -0.9300   -1.4970    0.6290 h5        1 A3N      0.082800
     36 H15         4.9310    1.2680   -0.3690 h5        1 A3N      0.052100
     37 H16         3.1930   -3.7520   -0.7090 hn        1 A3N      0.450300
     38 H17         4.8150   -3.3100   -1.0390 hn        1 A3N      0.450300
@<TRIPOS>BOND
     1    1    2 3   
     2    1   23 1   
     3    2    3 1   
     4    3    4 1   
     5    3   24 1   
     6    3   25 1   
     7    4    5 1   
     8    4   26 1   
     9    5    6 1   
    10    5   27 1   
    11    5   28 1   
    12    6    7 1   
    13    6    8 1   
    14    6   29 1   
    15    7   12 1   
    16    8    9 1   
    17    8   10 1   
    18    8   30 1   
    19    9   31 1   
    20   10   11 1   
    21   10   12 1   
    22   10   32 1   
    23   11   33 1   
    24   12   13 1   
    25   12   34 1   
    26   13   14 1   
    27   13   17 1   
    28   14   15 2   
    29   14   35 1   
    30   15   16 1   
    31   16   17 ar  
    32   16   21 ar  
    33   17   18 ar  
    34   18   19 ar  
    35   19   20 ar  
    36   19   36 1   
    37   20   21 ar  
    38   21   22 1   
    39   22   37 1   
    40   22   38 1   
@<TRIPOS>SUBSTRUCTURE
     1 A3N         1 TEMP              0 ****  ****    0 ROOT
