@<TRIPOS>MOLECULE
A3N
   39    41     1     0     0
SMALL
bcc


@<TRIPOS>ATOM
      1 C13        -0.7090    2.7970   -0.4140 c1        1 A3N      0.029500
      2 C12         0.0140    2.3910    0.4490 c1        1 A3N     -0.278100
      3 C11         0.8360    1.9530    1.5380 c3        1 A3N      0.229900
      4 N5          1.9450    1.0550    1.0740 n4        1 A3N     -0.751000
      5 C10         2.7010    0.4780    2.2200 c3        1 A3N      0.093800
      6 C9          3.8840   -0.3890    1.7600 c3        1 A3N      0.085100
      7 O1          4.4880    0.1660    0.5930 os        1 A3N     -0.430600
      8 C8          4.9440   -0.5050    2.8760 c3        1 A3N      0.102100
      9 O2          5.1210   -1.8390    3.2760 oh        1 A3N     -0.569800
     10 C7          6.2280    0.1110    2.2780 c3        1 A3N      0.073100
     11 O3          7.2270   -0.8780    2.1440 oh        1 A3N     -0.587800
     12 C6          5.8640    0.5330    0.8180 c3        1 A3N      0.267800
     13 N3          6.0850    1.9180    0.5150 na        1 A3N     -0.304000
     14 C5          7.2510    2.4020   -0.1550 cc        1 A3N      0.423700
     15 N4          7.2930    3.7330   -0.2500 nd        1 A3N     -0.510100
     16 C2          6.1190    4.1870    0.3710 ca        1 A3N     -0.233200
     17 C3          5.3380    3.0580    0.8580 ca        1 A3N      0.474800
     18 N2          4.1310    3.1930    1.4830 nb        1 A3N     -0.850000
     19 C4          3.7650    4.4960    1.6330 ca        1 A3N      0.697900
     20 N1          4.3860    5.6300    1.2500 nb        1 A3N     -0.776000
     21 C1          5.5990    5.5090    0.5920 ca        1 A3N      0.784200
     22 N6          6.2770    6.6050    0.1620 nh        1 A3N     -0.927500
     23 H1         -1.3540    3.1580   -1.1830 ha        1 A3N      0.198500
     24 H2          1.3140    2.8400    2.0560 hx        1 A3N      0.117200
     25 H3          0.2150    1.3800    2.2920 hx        1 A3N      0.117200
     26 H4          2.6050    1.5890    0.4840 hn        1 A3N      0.466800
     27 H6          3.0640    1.3330    2.8600 hx        1 A3N      0.115200
     28 H7          2.0020   -0.1620    2.8310 hx        1 A3N      0.115200
     29 H8          3.5140   -1.4100    1.4540 h1        1 A3N      0.100700
     30 H9          4.6280    0.0320    3.8120 h1        1 A3N      0.105700
     31 H10         5.5950   -2.3120    2.5730 ho        1 A3N      0.432000
     32 H11         6.5900    0.9700    2.9000 h1        1 A3N      0.092700
     33 H12         7.5970   -1.0360    3.0240 ho        1 A3N      0.440000
     34 H13         6.4630   -0.0840    0.0760 h2        1 A3N      0.126700
     35 H14         8.0120    1.7080   -0.5380 h5        1 A3N      0.091800
     36 H15         2.8000    4.6620    2.1600 h5        1 A3N      0.042100
     37 H16         7.1490    6.4890   -0.2960 hn        1 A3N      0.464800
     38 H17         5.9250    7.5190    0.3220 hn        1 A3N      0.464800
     39 H52         1.5630    0.2960    0.5000 hn        1 A3N      0.466800
@<TRIPOS>BOND
     1    1    2 3   
     2    1   23 1   
     3    2    3 1   
     4    3    4 1   
     5    3   24 1   
     6    3   25 1   
     7    4    5 1   
     8    4   26 1   
     9    4   39 1   
    10    5    6 1   
    11    5   27 1   
    12    5   28 1   
    13    6    7 1   
    14    6    8 1   
    15    6   29 1   
    16    7   12 1   
    17    8    9 1   
    18    8   10 1   
    19    8   30 1   
    20    9   31 1   
    21   10   11 1   
    22   10   12 1   
    23   10   32 1   
    24   11   33 1   
    25   12   13 1   
    26   12   34 1   
    27   13   14 1   
    28   13   17 1   
    29   14   15 2   
    30   14   35 1   
    31   15   16 1   
    32   16   17 ar  
    33   16   21 ar  
    34   17   18 ar  
    35   18   19 ar  
    36   19   20 ar  
    37   19   36 1   
    38   20   21 ar  
    39   21   22 1   
    40   22   37 1   
    41   22   38 1   
@<TRIPOS>SUBSTRUCTURE
     1 A3N         1 TEMP              0 ****  ****    0 ROOT
