@<TRIPOS>MOLECULE
A3N
   38    33     1     0     0
SMALL
bcc


@<TRIPOS>ATOM
      1 C13        -2.8790    3.3740    3.3290 c1        1 A3N     -0.206000
      2 C12        -2.7700    3.4900    2.1590 c1        1 A3N     -0.206000
      3 C11        -2.6320    3.6440    0.6740 c2        1 A3N      0.026000
      4 N5         -1.2220    3.4140    0.2810 n3        1 A3N     -0.285000
      5 C10        -1.1770    2.5710   -0.8740 c3        1 A3N     -0.083000
      6 C9          0.2090    1.8210   -0.9170 c3        1 A3N     -0.057000
      7 O1          0.1620    0.7440   -0.2030 os        1 A3N     -0.267000
      8 C8          0.5180    1.3450   -2.3290 c3        1 A3N     -0.025000
      9 O2          1.5260    2.0550   -2.8470 oh        1 A3N     -0.314000
     10 C7          0.9360   -0.1490   -2.1840 c3        1 A3N     -0.036000
     11 O3          2.2570   -0.4030   -2.9410 oh        1 A3N     -0.314000
     12 C6          1.1050   -0.3250   -0.9450 c3        1 A3N      0.161000
     13 N3          0.7060   -1.6890   -0.5710 n3        1 A3N     -0.202000
     14 C5          0.7970   -2.7930   -1.3320 c1        1 A3N     -0.055000
     15 N4          0.8470   -3.8730   -0.5030 n2        1 A3N     -0.107000
     16 C2          0.7860   -3.4190    0.7820 c1        1 A3N     -0.246000
     17 C3          0.7000   -2.0780    0.7420 c1        1 A3N      0.086000
     18 N2          0.5920   -1.3560    1.9150 n1        1 A3N     -0.206000
     19 C4          0.5730   -2.0060    3.1280 c1        1 A3N      0.027000
     20 N1          0.6590   -3.3590    3.1750 n1        1 A3N     -0.268000
     21 C1          0.7670   -4.0800    2.0120 c1        1 A3N      0.242000
     22 N6          0.9270   -5.4330    2.3760 n2        1 A3N     -0.355000
     23 H1         -2.9720    3.2760    4.3420 DU        1 A3N      0.210000
     24 H2         -3.2100    2.9930    0.2210 h4        1 A3N      0.110500
     25 H3         -2.8870    4.5120    0.4280 h4        1 A3N      0.110500
     26 H4         -0.8130    4.2410    0.0830 hn        1 A3N      0.180000
     27 H6         -1.9380    1.8860   -0.8280 h1        1 A3N      0.096000
     28 H7         -1.2810    3.1320   -1.7010 h1        1 A3N      0.096000
     29 H8          0.9330    2.4180   -0.5910 h1        1 A3N      0.135000
     30 H9         -0.2660    1.4190   -2.8850 h1        1 A3N      0.134000
     31 H10         1.3360    2.2650   -3.7410 ho        1 A3N      0.219000
     32 H11         0.2630   -0.7100   -2.5050 h1        1 A3N      0.108000
     33 H12         2.0880   -0.7520   -3.7000 ho        1 A3N      0.223000
     34 H13         2.0970   -0.1630   -0.6960 h2        1 A3N      0.182000
     35 H14         0.7910   -2.8170   -2.2730 DU        1 A3N      0.210000
     36 H15         0.4900   -1.4580    4.0060 ha        1 A3N      0.190000
     37 H16         1.0840   -6.0770    1.7180 hn        1 A3N      0.243500
     38 H17         0.8980   -5.6600    3.1950 hn        1 A3N      0.243500
@<TRIPOS>BOND
     1    1    2 1   
     2    3    4 1   
     3    3   24 1   
     4    3   25 1   
     5    4    5 1   
     6    4   26 1   
     7    5    6 1   
     8    5   27 1   
     9    5   28 1   
    10    6    7 1   
    11    6    8 1   
    12    6   29 1   
    13    7   12 1   
    14    8    9 1   
    15    8   10 1   
    16    8   30 1   
    17    9   31 1   
    18   10   11 1   
    19   10   12 1   
    20   10   32 1   
    21   11   33 1   
    22   12   13 1   
    23   12   34 1   
    24   13   14 1   
    25   13   17 1   
    26   14   15 1   
    27   15   16 1   
    28   16   21 1   
    29   17   18 1   
    30   19   20 1   
    31   19   36 1   
    32   22   37 1   
    33   22   38 1   
@<TRIPOS>SUBSTRUCTURE
     1 A3N         1 TEMP              0 ****  ****    0 ROOT
