@<TRIPOS>MOLECULE
A3N
   40    42     1     0     0
SMALL
bcc


@<TRIPOS>ATOM
      1 C13        -0.0640   -0.1720   -3.1540 c1        1 A3N      0.070500
      2 C12         0.1830    0.0110   -1.9960 c1        1 A3N     -0.309100
      3 C11         0.3670    0.2420   -0.5960 c3        1 A3N      0.235900
      4 N5          1.8100    0.0650   -0.1930 n4        1 A3N     -0.768000
      5 C10         1.9990    0.2590    1.2720 c3        1 A3N      0.103800
      6 C9          3.4560    0.0650    1.6960 c3        1 A3N      0.072100
      7 O1          4.2390    1.1150    1.1210 os        1 A3N     -0.447600
      8 C8          3.6200    0.1300    3.2320 c3        1 A3N      0.106100
      9 O2          3.6320   -1.1470    3.8010 oh        1 A3N     -0.557800
     10 C7          4.9380    0.9120    3.4380 c3        1 A3N      0.081100
     11 O3          5.9750    0.0210    3.7830 oh        1 A3N     -0.580800
     12 C6          5.3200    1.4660    2.0240 c3        1 A3N      0.249800
     13 N3          5.5430    2.8890    1.9790 na        1 A3N     -0.272000
     14 C5          4.7680    3.9340    2.5410 cc        1 A3N      0.493700
     15 N4          5.2720    5.1620    2.3390 nd        1 A3N     -0.555100
     16 C2          6.4440    4.9570    1.5990 ca        1 A3N     -0.143200
     17 C3          6.6330    3.5140    1.3410 ca        1 A3N      0.469800
     18 N2          7.6810    3.0170    0.6400 nb        1 A3N     -0.621000
     19 C4          8.5510    3.9640    0.2000 ca        1 A3N      0.691900
     20 N1          8.4960    5.3170    0.3800 nb        1 A3N     -0.664000
     21 C1          7.4440    5.8030    1.0830 ca        1 A3N      0.542200
     22 N6          7.3490    7.2550    1.3260 n4        1 A3N     -0.819300
     23 H1         -0.2820   -0.3380   -4.1870 ha        1 A3N      0.208500
     24 H2          0.0620    1.2970   -0.3210 hx        1 A3N      0.120700
     25 H3         -0.2510   -0.4890    0.0110 hx        1 A3N      0.120700
     26 H4          2.3970    0.7390   -0.7010 hn        1 A3N      0.461300
     27 H6          1.3640   -0.4950    1.8250 hx        1 A3N      0.121200
     28 H7          1.6510    1.2990    1.5320 hx        1 A3N      0.121200
     29 H8          3.8620   -0.9160    1.3140 h1        1 A3N      0.094700
     30 H9          2.7520    0.6570    3.7170 h1        1 A3N      0.105700
     31 H10         4.4880   -1.5690    3.6140 ho        1 A3N      0.440000
     32 H11         4.8120    1.7180    4.2060 h1        1 A3N      0.086700
     33 H12         6.0010   -0.0470    4.7500 ho        1 A3N      0.452000
     34 H13         6.2510    0.9420    1.6380 h2        1 A3N      0.152700
     35 H14         3.8420    3.7280    3.1000 h5        1 A3N      0.099800
     36 H15         9.4310    3.5950   -0.3830 h5        1 A3N      0.114100
     37 H16         7.5620    7.4380    2.3160 hn        1 A3N      0.485467
     38 H17         6.3890    7.5640    1.1240 hn        1 A3N      0.485467
     39 H52         2.1200   -0.8790   -0.4590 hn        1 A3N      0.461300
     40 H63         8.0130    7.7760    0.7340 hn        1 A3N      0.485467
@<TRIPOS>BOND
     1    1    2 3   
     2    1   23 1   
     3    2    3 1   
     4    3    4 1   
     5    3   24 1   
     6    3   25 1   
     7    4    5 1   
     8    4   26 1   
     9    4   39 1   
    10    5    6 1   
    11    5   27 1   
    12    5   28 1   
    13    6    7 1   
    14    6    8 1   
    15    6   29 1   
    16    7   12 1   
    17    8    9 1   
    18    8   10 1   
    19    8   30 1   
    20    9   31 1   
    21   10   11 1   
    22   10   12 1   
    23   10   32 1   
    24   11   33 1   
    25   12   13 1   
    26   12   34 1   
    27   13   14 1   
    28   13   17 1   
    29   14   15 2   
    30   14   35 1   
    31   15   16 1   
    32   16   17 ar  
    33   16   21 ar  
    34   17   18 ar  
    35   18   19 ar  
    36   19   20 ar  
    37   19   36 1   
    38   20   21 ar  
    39   21   22 1   
    40   22   37 1   
    41   22   38 1   
    42   22   40 1   
@<TRIPOS>SUBSTRUCTURE
     1 A3N         1 TEMP              0 ****  ****    0 ROOT
