@<TRIPOS>MOLECULE
A3P
   38    34     1     0     0
SMALL
bcc


@<TRIPOS>ATOM
      1 P1          2.3170   -1.3450    3.5290 p3        1 A3P      2.515000
      2 O1P         3.4420   -2.4280    3.3760 o         1 A3P     -1.246500
      3 O2P         2.4460   -0.6660    4.8870 os        1 A3P     -1.253500
      4 O3P         0.9600   -2.0110    3.4220 o         1 A3P     -1.246500
      5 P2          3.1090   -2.1770   -2.9370 p3        1 A3P      2.513000
      6 O4P         2.1150   -3.2950   -2.8400 o         1 A3P     -1.260500
      7 O5P         4.4540   -2.6390   -2.3630 os        1 A3P     -1.253500
      8 O6P         3.2910   -1.7810   -4.3950 o         1 A3P     -1.260500
      9 O5'         2.5850   -0.9350   -2.1190 os        1 A3P     -0.747000
     10 C5'         2.0200   -1.1630   -0.8280 c3        1 A3P      0.041000
     11 C4'         2.1120   -0.0260   -0.0840 c3        1 A3P     -0.025000
     12 O4'         1.3500    1.1080   -0.7430 os        1 A3P     -0.258000
     13 C3'         1.4260   -0.2350    1.3470 c3        1 A3P      0.070000
     14 O3'         2.4660   -0.2880    2.4110 os        1 A3P     -0.731000
     15 C2'         0.6900    0.7730    1.5020 c3        1 A3P     -0.011000
     16 O2'         1.4310    1.8410    2.2180 oh        1 A3P     -0.397000
     17 C1'         0.2920    1.2770   -0.0050 c3        1 A3P      0.126000
     18 N9         -0.7880    0.4950   -0.5150 n3        1 A3P     -0.144000
     19 C8         -0.7690    0.5410   -1.8670 c1        1 A3P      0.038000
     20 N7         -2.0380    0.7540   -2.2970 n2        1 A3P     -0.211000
     21 C5         -2.8440    0.8390   -1.1990 c1        1 A3P     -0.192000
     22 C6         -4.2200    1.0540   -1.0520 c1        1 A3P      0.100000
     23 N6         -5.2420    1.4890   -2.0100 n3        1 A3P     -0.305000
     24 N1         -4.7630    1.1000    0.1800 n1        1 A3P     -0.285000
     25 C2         -3.9700    0.9370    1.2850 c1        1 A3P     -0.070000
     26 N3         -2.6250    0.7270    1.1390 n1        1 A3P     -0.144000
     27 C4         -2.0700    0.6800   -0.1030 c1        1 A3P      0.031000
     28 H5'1        1.0900   -1.4140   -0.9210 h1        1 A3P      0.045000
     29 H5'2        2.5230   -1.9040   -0.3700 h1        1 A3P      0.045000
     30 H4'         3.0170    0.2140    0.0240 h1        1 A3P      0.116000
     31 H3'         0.9020   -1.0320    1.3520 h1        1 A3P      0.121000
     32 H2'        -0.1470    0.5240    2.0160 h1        1 A3P      0.068000
     33 HO2'        0.8890    2.2390    2.7960 ho        1 A3P      0.295000
     34 H1'         0.0490    2.2080    0.0150 h2        1 A3P      0.118000
     35 H8         -0.0130    0.3620   -2.4190 DU        1 A3P      0.324000
     36 HN61       -6.0980    1.5700   -1.7500 hn        1 A3P      0.167000
     37 HN62       -5.0170    1.6350   -2.8760 hn        1 A3P      0.167000
     38 H2         -4.3700    0.9720    2.1940 ha        1 A3P      0.143000
@<TRIPOS>BOND
     1    1    2 1   
     2    1    4 1   
     3    1   14 1   
     4    5    6 1   
     5    5    8 1   
     6    5    9 1   
     7    9   10 1   
     8   10   11 1   
     9   10   28 1   
    10   10   29 1   
    11   11   12 1   
    12   11   13 1   
    13   11   30 1   
    14   12   17 1   
    15   13   14 1   
    16   13   15 1   
    17   13   31 1   
    18   15   16 1   
    19   15   17 1   
    20   15   32 1   
    21   16   33 1   
    22   17   18 1   
    23   17   34 1   
    24   18   19 1   
    25   18   27 1   
    26   19   20 1   
    27   20   21 1   
    28   21   27 1   
    29   22   23 1   
    30   22   24 1   
    31   23   36 1   
    32   23   37 1   
    33   25   26 1   
    34   25   38 1   
@<TRIPOS>SUBSTRUCTURE
     1 A3P         1 TEMP              0 ****  ****    0 ROOT
