@<TRIPOS>MOLECULE
A3P
   38    40     1     0     0
SMALL
bcc


@<TRIPOS>ATOM
      1 P1          3.8990   -0.0350   -2.2820 p5        1 A3P      1.319900
      2 O1P         3.2990   -1.1540   -3.0890 o         1 A3P     -0.931833
      3 O2P         4.4380    1.1290   -3.0690 o         1 A3P     -0.931833
      4 O3P         4.7560   -0.4720   -1.1150 o         1 A3P     -0.931833
      5 P2         -3.2780    0.5920   -2.6800 p5        1 A3P      1.445800
      6 O4P        -3.5480    0.8640   -1.0950 oh        1 A3P     -0.806400
      7 O5P        -3.9450    1.6670   -3.4560 o         1 A3P     -0.867500
      8 O6P        -3.5570   -0.8330   -2.9750 o         1 A3P     -0.867500
      9 O5'        -1.6640    0.8690   -2.6630 os        1 A3P     -0.606200
     10 C5'        -0.8100   -0.1060   -2.1220 c3        1 A3P      0.178400
     11 C4'         0.1780    0.5350   -1.1380 c3        1 A3P      0.096100
     12 O4'        -0.4460    0.5760    0.1610 os        1 A3P     -0.463600
     13 C3'         1.5430   -0.2110   -1.0330 c3        1 A3P      0.177100
     14 O3'         2.5710    0.6270   -1.3870 os        1 A3P     -0.567200
     15 C2'         1.6180   -0.6270    0.4710 c3        1 A3P      0.104100
     16 O2'         2.8510   -0.3640    1.0930 oh        1 A3P     -0.665800
     17 C1'         0.5210    0.2270    1.1780 c3        1 A3P      0.249800
     18 N9         -0.1280   -0.4020    2.3090 nh        1 A3P     -0.222200
     19 C8         -0.4440   -1.7740    2.4900 c1        1 A3P      0.135400
     20 N7         -0.9700   -2.0080    3.7310 ne        1 A3P     -0.725800
     21 C5         -1.0120   -0.7950    4.3910 ca        1 A3P     -0.100200
     22 C6         -1.4140   -0.3990    5.6900 ca        1 A3P      0.483200
     23 N6         -1.9770   -1.3590    6.5990 nh        1 A3P     -0.883500
     24 N1         -1.2920    0.9120    6.0860 nb        1 A3P     -0.766000
     25 C2         -0.7980    1.7760    5.1720 ca        1 A3P      0.536900
     26 N3         -0.3770    1.5650    3.8910 nb        1 A3P     -0.702000
     27 C4         -0.4770    0.2790    3.4910 ca        1 A3P      0.390800
     28 H5'1       -0.2100   -0.5550   -2.9640 h1        1 A3P      0.039200
     29 H5'2       -1.4210   -0.9040   -1.6190 h1        1 A3P      0.039200
     30 H4'         0.3600    1.6040   -1.4380 h1        1 A3P      0.066700
     31 H3'         1.5550   -1.1330   -1.6820 h1        1 A3P      0.070700
     32 H2'         1.3940   -1.7220    0.5820 h1        1 A3P      0.051700
     33 HO2'        3.5130   -0.2000    0.3760 ho        1 A3P      0.483000
     34 H1'         0.9790    1.1980    1.5350 h2        1 A3P      0.057700
     35 H8         -2.7790    0.7610   -0.5400 ho        1 A3P      0.454000
     36 HN61       -1.3450   -1.4940    7.3680 hn        1 A3P      0.336300
     37 HN62       -2.0690   -2.2330    6.1140 hn        1 A3P      0.336300
     38 H2         -0.7180    2.8250    5.5150 h5        1 A3P     -0.011900
@<TRIPOS>BOND
     1    1    2 1   
     2    1    3 1   
     3    1    4 1   
     4    1   14 1   
     5    5    6 1   
     6    5    7 1   
     7    5    8 1   
     8    5    9 1   
     9    6   35 1   
    10    9   10 1   
    11   10   11 1   
    12   10   28 1   
    13   10   29 1   
    14   11   12 1   
    15   11   13 1   
    16   11   30 1   
    17   12   17 1   
    18   13   14 1   
    19   13   15 1   
    20   13   31 1   
    21   15   16 1   
    22   15   17 1   
    23   15   32 1   
    24   16   33 1   
    25   17   18 1   
    26   17   34 1   
    27   18   19 2   
    28   18   27 1   
    29   19   20 2   
    30   20   21 1   
    31   21   22 ar  
    32   21   27 ar  
    33   22   23 1   
    34   22   24 ar  
    35   23   36 1   
    36   23   37 1   
    37   24   25 ar  
    38   25   26 ar  
    39   25   38 1   
    40   26   27 ar  
@<TRIPOS>SUBSTRUCTURE
     1 A3P         1 TEMP              0 ****  ****    0 ROOT
