@<TRIPOS>MOLECULE
A3S
   46    48     1     0     0
SMALL
bcc


@<TRIPOS>ATOM
      1 O5'         2.7350    0.4260   -0.3990 oh        1 A3S     -0.672800
      2 C5'         2.1510   -0.4080    0.5970 c3        1 A3S      0.104400
      3 C4'         2.2990    0.3730    1.9060 c3        1 A3S      0.127100
      4 O4'         1.6330   -0.2710    2.9790 os        1 A3S     -0.378600
      5 C1'         2.5560   -0.9520    3.8530 c3        1 A3S      0.242800
      6 N9          2.4500   -2.3750    3.7100 na        1 A3S     -0.335000
      7 C4          3.2720   -3.2640    4.4510 ca        1 A3S      0.457800
      8 N3          4.4770   -3.0490    5.0450 nb        1 A3S     -0.824000
      9 C2          4.9700   -4.1810    5.6310 ca        1 A3S      0.720900
     10 N1          4.4460   -5.4200    5.6940 nb        1 A3S     -0.764000
     11 C6          3.2150   -5.6430    5.0920 ca        1 A3S      0.788200
     12 N6          2.6380   -6.8710    5.1140 nv        1 A3S     -0.920500
     13 C5          2.5720   -4.5330    4.4400 ca        1 A3S     -0.235200
     14 N7          1.3380   -4.4000    3.7750 nc        1 A3S     -0.486100
     15 C8          1.2690   -3.1260    3.3940 cd        1 A3S      0.409700
     16 C2'         3.9940   -0.4270    3.5100 c3        1 A3S      0.114100
     17 O2'         4.5130    0.3010    4.5970 oh        1 A3S     -0.643800
     18 C3'         3.7970    0.5130    2.2800 c3        1 A3S      0.082500
     19 N8          4.2030    1.9470    2.5450 ny        1 A3S     -0.647800
     20 N           4.8650    4.4980   -0.2860 nz        1 A3S     -0.830600
     21 CA          4.0910    3.8970    0.8500 c3        1 A3S      0.042500
     22 CB          2.6160    3.6100    0.4390 c3        1 A3S      0.114400
     23 OG          2.1890    4.7590   -0.2580 oh        1 A3S     -0.622800
     24 C           4.7630    2.6080    1.3370 c         1 A3S      0.518100
     25 O           5.7410    2.1090    0.7960 o         1 A3S     -0.374100
     26 H5'         2.5960   -0.0140   -1.2490 ho        1 A3S      0.456000
     27 H5'1        1.0610   -0.5770    0.3850 h1        1 A3S      0.087200
     28 H5'2        2.6820   -1.3950    0.6430 h1        1 A3S      0.087200
     29 H4'         1.7730    1.3640    1.7940 h1        1 A3S      0.069700
     30 H1'         2.2550   -0.6190    4.8960 h2        1 A3S      0.123700
     31 H2          5.9540   -4.0630    6.1400 h5        1 A3S      0.067100
     32 HN61        1.7440   -6.9980    4.7010 hn        1 A3S      0.467800
     33 HN62        3.0760   -7.6340    5.5760 hn        1 A3S      0.467800
     34 H8          0.4320   -2.6510    2.8670 h5        1 A3S      0.085800
     35 H2'         4.6990   -1.2530    3.2070 h1        1 A3S      0.137700
     36 H1          4.8640   -0.3420    5.2400 ho        1 A3S      0.500000
     37 H3'         4.4480    0.1410    1.4310 hx        1 A3S      0.148700
     38 HN8         4.9410    1.9140    3.2840 hn        1 A3S      0.493800
     39 HA          4.0900    4.6680    1.6860 hx        1 A3S      0.160700
     40 HB1         2.5520    2.6960   -0.2180 h1        1 A3S      0.093200
     41 HB2         2.0130    3.4620    1.3760 h1        1 A3S      0.093200
     42 HOG         1.2240    4.7170   -0.3610 ho        1 A3S      0.491000
     43 HN1         5.0090    3.8050   -1.0330 hn        1 A3S      0.495467
     44 H82         3.4000    2.4650    2.9220 hn        1 A3S      0.493800
     45 H21         4.3090    5.2870   -0.6700 hn        1 A3S      0.495467
     46 HN2         5.7790    4.8410    0.0340 hn        1 A3S      0.495467
@<TRIPOS>BOND
     1    1    2 1   
     2    1   26 1   
     3    2    3 1   
     4    2   27 1   
     5    2   28 1   
     6    3    4 1   
     7    3   18 1   
     8    3   29 1   
     9    4    5 1   
    10    5    6 1   
    11    5   16 1   
    12    5   30 1   
    13    6    7 1   
    14    6   15 1   
    15    7    8 ar  
    16    7   13 ar  
    17    8    9 ar  
    18    9   10 ar  
    19    9   31 1   
    20   10   11 ar  
    21   11   12 1   
    22   11   13 ar  
    23   12   32 1   
    24   12   33 1   
    25   13   14 1   
    26   14   15 2   
    27   15   34 1   
    28   16   17 1   
    29   16   18 1   
    30   16   35 1   
    31   17   36 1   
    32   18   19 1   
    33   18   37 1   
    34   19   24 1   
    35   19   38 1   
    36   19   44 1   
    37   20   21 1   
    38   20   43 1   
    39   20   45 1   
    40   20   46 1   
    41   21   22 1   
    42   21   24 1   
    43   21   39 1   
    44   22   23 1   
    45   22   40 1   
    46   22   41 1   
    47   23   42 1   
    48   24   25 2   
@<TRIPOS>SUBSTRUCTURE
     1 A3S         1 TEMP              0 ****  ****    0 ROOT
