@<TRIPOS>MOLECULE
A3S
   46    48     1     0     0
SMALL
bcc


@<TRIPOS>ATOM
      1 O5'         2.7520    0.4130   -0.4060 oh        1 A3S     -0.672800
      2 C5'         2.1640   -0.4200    0.5870 c3        1 A3S      0.104400
      3 C4'         2.3010    0.3650    1.8950 c3        1 A3S      0.127100
      4 O4'         1.6300   -0.2790    2.9660 os        1 A3S     -0.378600
      5 C1'         2.5510   -0.9530    3.8480 c3        1 A3S      0.242800
      6 N9          2.4540   -2.3770    3.7090 na        1 A3S     -0.335000
      7 C4          3.2750   -3.2590    4.4570 ca        1 A3S      0.457800
      8 N3          4.4750   -3.0360    5.0590 nb        1 A3S     -0.824000
      9 C2          4.9700   -4.1640    5.6520 ca        1 A3S      0.720900
     10 N1          4.4510   -5.4050    5.7150 nb        1 A3S     -0.764000
     11 C6          3.2250   -5.6370    5.1060 ca        1 A3S      0.788200
     12 N6          2.6540   -6.8670    5.1280 nh        1 A3S     -0.920500
     13 C5          2.5810   -4.5320    4.4460 ca        1 A3S     -0.235200
     14 N7          1.3510   -4.4070    3.7720 nc        1 A3S     -0.486100
     15 C8          1.2780   -3.1350    3.3870 cd        1 A3S      0.409700
     16 C2'         3.9890   -0.4210    3.5130 c3        1 A3S      0.114100
     17 O2'         4.4970    0.3130    4.6010 oh        1 A3S     -0.643800
     18 C3'         3.7950    0.5140    2.2790 c3        1 A3S      0.082500
     19 N8          4.1920    1.9510    2.5420 n4        1 A3S     -0.647800
     20 N           4.8610    4.4970   -0.2920 n4        1 A3S     -0.830600
     21 CA          4.0820    3.8950    0.8400 c3        1 A3S      0.042500
     22 CB          2.6110    3.5990    0.4210 c3        1 A3S      0.114400
     23 OG          2.1830    4.7440   -0.2830 oh        1 A3S     -0.622800
     24 C           4.7570    2.6100    1.3350 c         1 A3S      0.518100
     25 O           5.7410    2.1150    0.8030 o         1 A3S     -0.374100
     26 H5'         2.6200   -0.0300   -1.2560 ho        1 A3S      0.456000
     27 H5'1        1.0770   -0.5960    0.3690 h1        1 A3S      0.087200
     28 H5'2        2.7000   -1.4040    0.6410 h1        1 A3S      0.087200
     29 H4'         1.7700    1.3530    1.7770 h1        1 A3S      0.069700
     30 H1'         2.2410   -0.6180    4.8880 h2        1 A3S      0.123700
     31 H2          5.9490   -4.0390    6.1670 h5        1 A3S      0.067100
     32 HN61        3.0930   -7.6270    5.5950 hn        1 A3S      0.467800
     33 HN62        1.7640   -7.0000    4.7090 hn        1 A3S      0.467800
     34 H8          0.4430   -2.6660    2.8530 h5        1 A3S      0.085800
     35 H2'         4.7000   -1.2450    3.2170 h1        1 A3S      0.137700
     36 H1          4.8460   -0.3270    5.2480 ho        1 A3S      0.500000
     37 H3'         4.4530    0.1420    1.4350 hx        1 A3S      0.148700
     38 HN8         3.3840    2.4650    2.9120 hn        1 A3S      0.493800
     39 HA          4.0710    4.6680    1.6740 hx        1 A3S      0.160700
     40 HB1         2.5560    2.6830   -0.2340 h1        1 A3S      0.093200
     41 HB2         2.0030    3.4510    1.3540 h1        1 A3S      0.093200
     42 HOG         1.2180    4.6970   -0.3920 ho        1 A3S      0.491000
     43 HN1         4.3030    5.2810   -0.6820 hn        1 A3S      0.495467
     44 H82         4.9250    1.9230    3.2860 hn        1 A3S      0.493800
     45 H21         5.0130    3.8010   -1.0360 hn        1 A3S      0.495467
     46 HN2         5.7710    4.8450    0.0320 hn        1 A3S      0.495467
@<TRIPOS>BOND
     1    1    2 1   
     2    1   26 1   
     3    2    3 1   
     4    2   27 1   
     5    2   28 1   
     6    3    4 1   
     7    3   18 1   
     8    3   29 1   
     9    4    5 1   
    10    5    6 1   
    11    5   16 1   
    12    5   30 1   
    13    6    7 1   
    14    6   15 1   
    15    7    8 ar  
    16    7   13 ar  
    17    8    9 ar  
    18    9   10 ar  
    19    9   31 1   
    20   10   11 ar  
    21   11   12 1   
    22   11   13 ar  
    23   12   32 1   
    24   12   33 1   
    25   13   14 1   
    26   14   15 2   
    27   15   34 1   
    28   16   17 1   
    29   16   18 1   
    30   16   35 1   
    31   17   36 1   
    32   18   19 1   
    33   18   37 1   
    34   19   24 1   
    35   19   38 1   
    36   19   44 1   
    37   20   21 1   
    38   20   43 1   
    39   20   45 1   
    40   20   46 1   
    41   21   22 1   
    42   21   24 1   
    43   21   39 1   
    44   22   23 1   
    45   22   40 1   
    46   22   41 1   
    47   23   42 1   
    48   24   25 2   
@<TRIPOS>SUBSTRUCTURE
     1 A3S         1 TEMP              0 ****  ****    0 ROOT
