@<TRIPOS>MOLECULE
A3S
   44    41     1     0     0
SMALL
bcc


@<TRIPOS>ATOM
      1 O5'        -1.8800    3.0870   -2.4840 oh        1 A3S     -0.595800
      2 C5'        -1.0990    1.9100   -2.1410 c3        1 A3S      0.110400
      3 C4'        -0.6130    2.0260   -0.7190 c3        1 A3S      0.116100
      4 O4'        -1.6250    2.0180    0.1070 os        1 A3S     -0.399600
      5 C1'        -1.1030    1.2770    1.3770 c3        1 A3S      0.407300
      6 N9         -1.9510    0.3520    1.7440 n3        1 A3S     -0.479800
      7 C4         -2.1420   -0.9420    2.1780 c1        1 A3S      0.396100
      8 N3         -1.2980   -2.0340    2.2380 n1        1 A3S     -0.502800
      9 C2         -1.7910   -3.2580    2.5950 c1        1 A3S      0.409300
     10 N1         -3.1090   -3.4010    2.8900 n1        1 A3S     -0.595800
     11 C6         -3.9350   -2.3370    2.8330 c1        1 A3S      0.298800
     12 N6         -5.0910   -2.9790    3.0530 n3        1 A3S     -0.820400
     13 C5         -3.4410   -1.0900    2.4710 c1        1 A3S     -0.236000
     14 N7         -4.0680    0.1000    2.2260 n1        1 A3S     -0.502800
     15 C8         -3.1420    0.9800    1.7790 c1        1 A3S      0.396100
     16 C2'         0.2460    0.6320    0.9660 c3        1 A3S      0.103100
     17 O2'         1.3660    1.3540    1.5720 oh        1 A3S     -0.590800
     18 C3'         0.2890    0.7420   -0.3440 c3        1 A3S      0.083700
     19 N8          1.6630    0.9550   -0.7790 n         1 A3S     -0.540900
     20 N           4.7930   -0.9320   -1.0980 n3        1 A3S     -0.911800
     21 CA          3.9080    0.0030   -1.7650 c3        1 A3S      0.062500
     22 CB          4.0020   -0.2010   -3.2890 c3        1 A3S      0.098400
     23 OG          5.4100   -0.1200   -3.7070 oh        1 A3S     -0.591800
     24 C           2.4990   -0.2260   -1.3160 c         1 A3S      0.665100
     25 O           2.0020   -1.3630   -1.3790 o         1 A3S     -0.626100
     26 H5'        -1.9420    3.1540   -3.3870 ho        1 A3S      0.404000
     27 H5'1       -0.3170    1.8400   -2.7530 h1        1 A3S      0.046200
     28 H5'2       -1.6430    1.1300   -2.2310 h1        1 A3S      0.046200
     29 H4'        -0.0890    2.8570   -0.6050 h1        1 A3S      0.100700
     30 H1'        -0.9530    1.9640    2.1580 h2        1 A3S      0.102700
     31 H2         -1.2040   -4.0200    2.6380 ha        1 A3S      0.129500
     32 HN61       -5.1080   -3.8700    3.0730 hn        1 A3S      0.449800
     33 HN62       -5.8410   -2.5240    3.1160 hn        1 A3S      0.449800
     34 H8         -3.3020    1.9030    1.5550 DU        1 A3S      0.218000
     35 H2'         0.2660   -0.2800    1.2180 h1        1 A3S      0.084700
     36 H1          1.5120    1.0440    2.3710 ho        1 A3S      0.428000
     37 H3'        -0.0790   -0.0660   -0.7680 h1        1 A3S      0.092700
     38 HN8         2.0320    1.7940   -0.7360 hn        1 A3S      0.349500
     39 HN1         4.4040   -1.2260   -0.3460 hn        1 A3S      0.360300
     40 HN2         5.6330   -0.4810   -0.8750 hn        1 A3S      0.360300
     41 HA          4.1760    0.9160   -1.5400 h1        1 A3S      0.093700
     42 HB1         3.4630    0.5210   -3.7620 h1        1 A3S      0.069700
     43 HB2         3.6460   -1.0750   -3.5220 h1        1 A3S      0.069700
     44 HOG         5.4570   -0.1350   -4.6140 ho        1 A3S      0.393000
@<TRIPOS>BOND
     1    1    2 1   
     2    1   26 1   
     3    2    3 1   
     4    2   27 1   
     5    2   28 1   
     6    3    4 1   
     7    3   18 1   
     8    3   29 1   
     9    4    5 1   
    10    5    6 1   
    11    5   16 1   
    12    5   30 1   
    13    6    7 1   
    14    6   15 1   
    15    7    8 3   
    16    9   10 3   
    17    9   31 1   
    18   11   12 1   
    19   11   13 3   
    20   12   32 1   
    21   12   33 1   
    22   14   15 3   
    23   16   17 1   
    24   16   18 1   
    25   16   35 1   
    26   17   36 1   
    27   18   19 1   
    28   18   37 1   
    29   19   24 1   
    30   19   38 1   
    31   20   21 1   
    32   20   39 1   
    33   20   40 1   
    34   21   22 1   
    35   21   24 1   
    36   21   41 1   
    37   22   23 1   
    38   22   42 1   
    39   22   43 1   
    40   23   44 1   
    41   24   25 2   
@<TRIPOS>SUBSTRUCTURE
     1 A3S         1 TEMP              0 ****  ****    0 ROOT
