@<TRIPOS>MOLECULE
A3S
   44    46     1     0     0
SMALL
bcc


@<TRIPOS>ATOM
      1 O5'         1.7230   -3.5890   -0.9010 oh        1 A3S     -0.595800
      2 C5'         1.2600   -2.5280   -0.0830 c3        1 A3S      0.110400
      3 C4'         1.1290   -1.2990   -0.9830 c3        1 A3S      0.114100
      4 O4'        -0.1440   -1.3210   -1.6460 os        1 A3S     -0.398600
      5 C1'        -0.9130   -0.1560   -1.3480 c3        1 A3S      0.229800
      6 N9         -2.0760   -0.5180   -0.5680 na        1 A3S     -0.294000
      7 C4         -3.0720    0.3720   -0.1380 ca        1 A3S      0.450800
      8 N3         -3.1600    1.7330   -0.2380 nb        1 A3S     -0.760000
      9 C2         -4.2990    2.2190    0.3110 ca        1 A3S      0.689900
     10 N1         -5.3230    1.5710    0.9250 nb        1 A3S     -0.795000
     11 C6         -5.2370    0.2010    1.0340 ca        1 A3S      0.765200
     12 N6         -6.2160   -0.5190    1.6630 nh        1 A3S     -0.957500
     13 C5         -4.0870   -0.4650    0.4900 ca        1 A3S     -0.228200
     14 N7         -3.7080   -1.8140    0.4190 nc        1 A3S     -0.548100
     15 C8         -2.5270   -1.8150   -0.2160 cd        1 A3S      0.425700
     16 C2'         0.0250    0.8710   -0.6350 c3        1 A3S      0.104100
     17 O2'         0.4430    1.8330   -1.5810 oh        1 A3S     -0.594800
     18 C3'         1.2250    0.0110   -0.1490 c3        1 A3S      0.084700
     19 N8          2.5030    0.6560   -0.2110 n         1 A3S     -0.552900
     20 N           5.6040    1.2340    1.7830 n3        1 A3S     -0.893800
     21 CA          4.8140    1.2000    0.5740 c3        1 A3S      0.063500
     22 CB          5.6010    0.5840   -0.6070 c3        1 A3S      0.141400
     23 OG          6.6180    1.4540   -1.0450 oh        1 A3S     -0.593800
     24 C           3.4890    0.4180    0.7220 c         1 A3S      0.620100
     25 O           3.3150   -0.3910    1.6570 o         1 A3S     -0.625100
     26 H5'         1.8420   -4.3500   -0.3210 ho        1 A3S      0.405000
     27 H5'1        2.0050   -2.3150    0.7340 h1        1 A3S      0.046700
     28 H5'2        0.2660   -2.7920    0.3660 h1        1 A3S      0.046700
     29 H4'         1.8910   -1.3500   -1.8110 h1        1 A3S      0.098700
     30 H1'        -1.2600    0.2490   -2.3480 h2        1 A3S      0.102700
     31 H2         -4.4220    3.3220    0.2520 h5        1 A3S      0.051100
     32 HN61       -6.1540   -1.5060    1.6690 hn        1 A3S      0.450300
     33 HN62       -7.0350   -0.0750    1.9970 hn        1 A3S      0.450300
     34 H8         -1.9270   -2.6990   -0.4700 h5        1 A3S      0.088800
     35 H2'        -0.4670    1.3720    0.2400 h1        1 A3S      0.086700
     36 H1         -0.2830    2.4660   -1.6700 ho        1 A3S      0.430000
     37 H3'         1.0220   -0.2500    0.9360 h1        1 A3S      0.095700
     38 HN8         2.6590    1.2890   -0.9610 hn        1 A3S      0.337500
     39 HN2         5.7980    0.3030    2.1040 hn        1 A3S      0.365300
     40 HA          4.5760    2.2730    0.3030 h1        1 A3S      0.089700
     41 HB1         6.0270   -0.4140   -0.3210 h1        1 A3S      0.055200
     42 HB2         4.9290    0.4640   -1.4990 h1        1 A3S      0.055200
     43 HOG         7.2260    1.5930   -0.3080 ho        1 A3S      0.418000
     44 HN1         5.1150    1.7270    2.5050 hn        1 A3S      0.365300
@<TRIPOS>BOND
     1    1    2 1   
     2    1   26 1   
     3    2    3 1   
     4    2   27 1   
     5    2   28 1   
     6    3    4 1   
     7    3   18 1   
     8    3   29 1   
     9    4    5 1   
    10    5    6 1   
    11    5   16 1   
    12    5   30 1   
    13    6    7 1   
    14    6   15 1   
    15    7    8 ar  
    16    7   13 ar  
    17    8    9 ar  
    18    9   10 ar  
    19    9   31 1   
    20   10   11 ar  
    21   11   12 1   
    22   11   13 ar  
    23   12   32 1   
    24   12   33 1   
    25   13   14 1   
    26   14   15 2   
    27   15   34 1   
    28   16   17 1   
    29   16   18 1   
    30   16   35 1   
    31   17   36 1   
    32   18   19 1   
    33   18   37 1   
    34   19   24 1   
    35   19   38 1   
    36   20   21 1   
    37   20   39 1   
    38   20   44 1   
    39   21   22 1   
    40   21   24 1   
    41   21   40 1   
    42   22   23 1   
    43   22   41 1   
    44   22   42 1   
    45   23   43 1   
    46   24   25 2   
@<TRIPOS>SUBSTRUCTURE
     1 A3S         1 TEMP              0 ****  ****    0 ROOT
