@<TRIPOS>MOLECULE
A3S
   47    49     1     0     0
SMALL
bcc


@<TRIPOS>ATOM
      1 O5'         1.0340    1.7280    0.4720 oh        1 A3S     -0.688800
      2 C5'         0.7570    0.4000    0.9060 c3        1 A3S      0.124400
      3 C4'         1.4510    0.2690    2.2620 c3        1 A3S      0.119100
      4 O4'         1.2860   -1.0570    2.7570 os        1 A3S     -0.374600
      5 C1'         2.3460   -1.3220    3.7080 c3        1 A3S      0.234800
      6 N9          2.6210   -2.7360    3.6950 na        1 A3S     -0.300000
      7 C4          3.4440   -3.3800    4.6430 ca        1 A3S      0.448800
      8 N3          4.3680   -2.8970    5.5050 nb        1 A3S     -0.674000
      9 C2          4.9750   -3.8600    6.2530 ca        1 A3S      0.701900
     10 N1          4.7680   -5.2070    6.2270 nb        1 A3S     -0.651000
     11 C6          3.8420   -5.6810    5.3540 ca        1 A3S      0.557200
     12 N6          3.5720   -7.1290    5.3060 n4        1 A3S     -0.821300
     13 C5          3.1260   -4.8140    4.5050 ca        1 A3S     -0.124200
     14 N7          2.1330   -4.9940    3.5300 nc        1 A3S     -0.538100
     15 C8          1.8380   -3.7640    3.0910 cd        1 A3S      0.525700
     16 C2'         3.5630   -0.4070    3.3010 c3        1 A3S      0.108100
     17 O2'         3.9090    0.4340    4.3770 oh        1 A3S     -0.631800
     18 C3'         2.9920    0.4740    2.1500 c3        1 A3S      0.084500
     19 N8          3.3440    1.9360    2.1880 n4        1 A3S     -0.646800
     20 N           5.9170    4.1460    0.3860 n4        1 A3S     -0.835600
     21 CA          4.5350    3.6960    0.7490 c3        1 A3S      0.037500
     22 CB          3.6110    3.6880   -0.5100 c3        1 A3S      0.124400
     23 OG          3.6980    5.0050   -1.0050 oh        1 A3S     -0.616800
     24 C           4.5390    2.2950    1.3700 c         1 A3S      0.518100
     25 O           5.4380    1.4810    1.2230 o         1 A3S     -0.371100
     26 H5'         0.2210    2.0870    0.0880 ho        1 A3S      0.471000
     27 H5'1       -0.3440    0.2120    1.0210 h1        1 A3S      0.099200
     28 H5'2        1.1840   -0.3160    0.1550 h1        1 A3S      0.099200
     29 H4'         0.9970    0.9840    3.0080 h1        1 A3S      0.094700
     30 H1'         1.9780   -1.0120    4.7370 h2        1 A3S      0.124700
     31 H2          5.7410   -3.5120    6.9900 h5        1 A3S      0.116100
     32 HN61        2.6920   -7.3200    5.8080 hn        1 A3S      0.492467
     33 HN62        3.4700   -7.4200    4.3230 hn        1 A3S      0.492467
     34 H8          1.0750   -3.5220    2.3280 h5        1 A3S      0.123800
     35 H2'         4.4510   -0.9950    2.9440 h1        1 A3S      0.114700
     36 H1          4.3570   -0.1020    5.0530 ho        1 A3S      0.488000
     37 H3'         3.3570    0.0580    1.1650 hx        1 A3S      0.137700
     38 HN8         3.5270    2.1970    3.1760 hn        1 A3S      0.502800
     39 HA          4.1260    4.4670    1.4800 hx        1 A3S      0.165700
     40 HB1         2.5630    3.4280   -0.1960 h1        1 A3S      0.090700
     41 HB2         3.9800    2.9500   -1.2730 h1        1 A3S      0.090700
     42 HOG         3.0330    5.1230   -1.7050 ho        1 A3S      0.495000
     43 HN1         6.4170    3.4160   -0.1430 hn        1 A3S      0.498467
     44 H63         4.3350   -7.6660    5.7490 hn        1 A3S      0.492467
     45 H82         2.5170    2.4610    1.8410 hn        1 A3S      0.502800
     46 H21         5.8250    4.9890   -0.2180 hn        1 A3S      0.498467
     47 HN2         6.4620    4.3890    1.2220 hn        1 A3S      0.498467
@<TRIPOS>BOND
     1    1    2 1   
     2    1   26 1   
     3    2    3 1   
     4    2   27 1   
     5    2   28 1   
     6    3    4 1   
     7    3   18 1   
     8    3   29 1   
     9    4    5 1   
    10    5    6 1   
    11    5   16 1   
    12    5   30 1   
    13    6    7 1   
    14    6   15 1   
    15    7    8 ar  
    16    7   13 ar  
    17    8    9 ar  
    18    9   10 ar  
    19    9   31 1   
    20   10   11 ar  
    21   11   12 1   
    22   11   13 ar  
    23   12   32 1   
    24   12   33 1   
    25   12   44 1   
    26   13   14 1   
    27   14   15 2   
    28   15   34 1   
    29   16   17 1   
    30   16   18 1   
    31   16   35 1   
    32   17   36 1   
    33   18   19 1   
    34   18   37 1   
    35   19   24 1   
    36   19   38 1   
    37   19   45 1   
    38   20   21 1   
    39   20   43 1   
    40   20   46 1   
    41   20   47 1   
    42   21   22 1   
    43   21   24 1   
    44   21   39 1   
    45   22   23 1   
    46   22   40 1   
    47   22   41 1   
    48   23   42 1   
    49   24   25 2   
@<TRIPOS>SUBSTRUCTURE
     1 A3S         1 TEMP              0 ****  ****    0 ROOT
