@<TRIPOS>MOLECULE
A3T
   47    41     1     0     0
SMALL
bcc


@<TRIPOS>ATOM
      1 C           1.9650    1.7640   -0.8590 c1        1 A3T      0.308000
      2 N           4.0120    0.9280   -1.7840 n3        1 A3T     -0.329000
      3 O           1.4190    2.3900   -1.7450 o         1 A3T     -0.394000
      4 N1         -3.2240   -5.5860    0.8480 n1        1 A3T     -0.270000
      5 C2         -1.9350   -5.2260    1.1180 c1        1 A3T      0.029000
      6 N3         -1.5350   -3.9340    0.9450 n1        1 A3T     -0.233000
      7 C4         -2.4230   -2.9990    0.5020 c1        1 A3T     -0.088500
      8 C5         -3.6970   -3.3530    0.2360 c1        1 A3T     -0.088500
      9 C6         -4.1010   -4.6670    0.4120 c1        1 A3T      0.247000
     10 N6         -5.3230   -5.3510    0.1870 n3        1 A3T     -0.356000
     11 N7         -4.3610   -2.2430   -0.1850 n1        1 A3T     -0.164000
     12 C8         -3.4920   -1.2070   -0.1760 c1        1 A3T     -0.035000
     13 N8          1.1880    1.0370    0.0790 n2        1 A3T     -0.341000
     14 N9         -2.2950   -1.6690    0.2480 n1        1 A3T     -0.164000
     15 CA          3.4740    1.7550   -0.7590 c3        1 A3T     -0.085000
     16 CB          3.9980    3.1630   -0.9200 c3        1 A3T      0.008000
     17 OG          3.7420    3.6110   -2.2300 oh        1 A3T     -0.336000
     18 C1'        -1.2080   -0.8810    0.6070 c2        1 A3T      0.142000
     19 C2'        -0.6590   -0.3440   -0.4720 c3        1 A3T     -0.012000
     20 O2'         0.4660   -1.1730   -0.9380 oh        1 A3T     -0.318000
     21 C3'        -0.1490    1.0410   -0.0130 c3        1 A3T      0.003000
     22 C4'        -0.7960    1.2850    1.4110 c3        1 A3T     -0.033000
     23 O4'        -1.7010    0.3650    1.5350 os        1 A3T     -0.275000
     24 C5'        -1.4340    2.6610    1.4720 c3        1 A3T     -0.036000
     25 O5'        -2.2870    2.7350    2.5920 oh        1 A3T     -0.318000
     26 CG2         5.4880    3.1790   -0.6640 c3        1 A3T     -0.217000
     27 HN          4.8620    0.6740   -1.5560 hn        1 A3T      0.158500
     28 HNA         3.4870    0.1840   -1.8840 hn        1 A3T      0.158500
     29 H2         -1.2990   -5.8950    1.4350 ha        1 A3T      0.189000
     30 HN6        -5.3410   -6.2650    0.1790 hn        1 A3T      0.247000
     31 HN6A       -6.0930   -4.8780    0.0470 hn        1 A3T      0.247000
     32 H8         -3.6960   -0.2850   -0.4230 DU        1 A3T      0.210000
     33 HN8         1.5970    0.5870    0.7610 hn        1 A3T      0.258000
     34 HA          3.7400    1.4060    0.1150 h1        1 A3T      0.120000
     35 HB          3.5510    3.7520   -0.2810 h1        1 A3T      0.098000
     36 HOG         4.1740    4.3750   -2.3720 ho        1 A3T      0.228000
     37 H1'        -0.5470   -1.4190    1.0890 h4        1 A3T      0.146000
     38 H2'        -1.3250   -0.2440   -1.1800 h1        1 A3T      0.125000
     39 HO2'        0.3370   -1.3960   -1.7890 ho        1 A3T      0.228000
     40 H3'        -0.4420    1.7330   -0.6390 h1        1 A3T      0.141000
     41 H4'        -0.1200    1.1920    2.1120 h1        1 A3T      0.136000
     42 H5'        -0.7330    3.3420    1.5490 h1        1 A3T      0.100500
     43 H5'A       -1.9520    2.8170    0.6550 h1        1 A3T      0.100500
     44 HO5'       -2.7570    3.4890    2.5570 ho        1 A3T      0.206000
     45 HG2         5.9520    2.7460   -1.4100 hc        1 A3T      0.086333
     46 HG2A        5.6810    2.6950    0.1660 hc        1 A3T      0.086333
     47 HG2B        5.7950    4.1060   -0.5810 hc        1 A3T      0.086333
@<TRIPOS>BOND
     1    1    3 1   
     2    1   15 1   
     3    2   15 1   
     4    2   27 1   
     5    2   28 1   
     6    4    9 1   
     7    5    6 1   
     8    5   29 1   
     9    7    8 1   
    10    9   10 1   
    11   10   30 1   
    12   10   31 1   
    13   11   12 1   
    14   12   14 1   
    15   13   21 1   
    16   13   33 1   
    17   15   16 1   
    18   15   34 1   
    19   16   17 1   
    20   16   26 1   
    21   16   35 1   
    22   17   36 1   
    23   18   19 1   
    24   18   23 1   
    25   18   37 1   
    26   19   20 1   
    27   19   21 1   
    28   19   38 1   
    29   20   39 1   
    30   21   22 1   
    31   21   40 1   
    32   22   23 1   
    33   22   24 1   
    34   22   41 1   
    35   24   25 1   
    36   24   42 1   
    37   24   43 1   
    38   25   44 1   
    39   26   45 1   
    40   26   46 1   
    41   26   47 1   
@<TRIPOS>SUBSTRUCTURE
     1 A3T         1 TEMP              0 ****  ****    0 ROOT
