@<TRIPOS>MOLECULE
A3T
   49    51     1     0     0
SMALL
bcc


@<TRIPOS>ATOM
      1 C          -0.4620    0.2830   -0.0400 c         1 A3T      0.546100
      2 N           1.5530    0.0370   -1.4590 nz        1 A3T     -0.837600
      3 O          -0.9280    1.0660   -0.8590 o         1 A3T     -0.401100
      4 N1         -3.0520   -7.2810   -1.0970 nb        1 A3T     -0.768000
      5 C2         -2.1060   -6.3540   -0.8480 ca        1 A3T      0.715900
      6 N3         -2.1700   -5.2090   -0.1080 nb        1 A3T     -0.846000
      7 C4         -3.4020   -5.0310    0.4470 ca        1 A3T      0.455800
      8 C5         -4.5240   -5.9320    0.2760 ca        1 A3T     -0.225200
      9 C6         -4.3100   -7.1000   -0.5380 ca        1 A3T      0.789200
     10 N6         -5.3080   -7.9920   -0.7540 nv        1 A3T     -0.916500
     11 N7         -5.6420   -5.4560    0.9870 nc        1 A3T     -0.494100
     12 C8         -5.2460   -4.3260    1.5720 cd        1 A3T      0.436700
     13 N8         -1.1650    0.1230    1.2570 ny        1 A3T     -0.625800
     14 N9         -3.8920   -3.9850    1.2620 na        1 A3T     -0.324000
     15 CA          0.7990   -0.5570   -0.3080 c3        1 A3T      0.045500
     16 CB          1.6960   -0.6980    0.9580 c3        1 A3T      0.129100
     17 OG          1.6440    0.5750    1.5780 oh        1 A3T     -0.652800
     18 C1'        -3.0530   -3.0050    1.8660 c3        1 A3T      0.262800
     19 C2'        -2.1440   -2.2420    0.8290 c3        1 A3T      0.091100
     20 O2'        -0.7800   -2.5630    1.0110 oh        1 A3T     -0.680800
     21 C3'        -2.3840   -0.7460    1.1470 c3        1 A3T      0.074500
     22 C4'        -3.1870   -0.7570    2.4850 c3        1 A3T      0.134100
     23 O4'        -3.8750   -2.0010    2.5150 os        1 A3T     -0.371600
     24 C5'        -4.2100    0.3790    2.5320 c3        1 A3T      0.124400
     25 O5'        -3.4620    1.5520    2.2320 oh        1 A3T     -0.677800
     26 CG2         3.1060   -1.1540    0.6520 c3        1 A3T     -0.173100
     27 HN          2.0060    0.9140   -1.1630 hn        1 A3T      0.488133
     28 HNA         0.9190    0.2400   -2.2450 hn        1 A3T      0.488133
     29 HN6        -5.1580   -8.8060   -1.3050 hn        1 A3T      0.469300
     30 HN6A       -6.1920   -7.8500   -0.3250 hn        1 A3T      0.469300
     31 H8         -5.8510   -3.6780    2.2200 h5        1 A3T      0.096800
     32 HN8        -1.4970    1.0610    1.5790 hn        1 A3T      0.501800
     33 HA          0.4480   -1.6050   -0.5990 hx        1 A3T      0.186700
     34 HB          1.1920   -1.4660    1.6230 h1        1 A3T      0.113700
     35 HOG         2.4110    0.6770    2.1650 ho        1 A3T      0.481000
     36 H1'        -2.3950   -3.4710    2.6630 h2        1 A3T      0.094700
     37 H2'        -2.4440   -2.4620   -0.2330 h1        1 A3T      0.115700
     38 HO2'       -0.7040   -3.5350    0.9920 ho        1 A3T      0.495000
     39 H3'        -3.0320   -0.2900    0.3360 hx        1 A3T      0.146700
     40 H4'        -2.4990   -0.7070    3.3750 h1        1 A3T      0.078700
     41 H5'        -5.0140    0.2320    1.7630 h1        1 A3T      0.089200
     42 H5'A       -4.6690    0.4360    3.5540 h1        1 A3T      0.089200
     43 HO5'       -3.9950    2.3140    2.4970 ho        1 A3T      0.468000
     44 HG2         3.1050   -2.0450   -0.0220 hc        1 A3T      0.089367
     45 HG2A        3.7240   -0.3360    0.2080 hc        1 A3T      0.089367
     46 HG2B        3.6070   -1.4630    1.6080 hc        1 A3T      0.089367
     47 HN3         2.2810   -0.6260   -1.7630 hn        1 A3T      0.488133
     48 H82        -0.5250   -0.2650    1.9650 hn        1 A3T      0.501800
     49 H2         -1.1190   -6.5640   -1.3190 h5        1 A3T      0.057100
@<TRIPOS>BOND
     1    1    3 2   
     2    1   13 1   
     3    1   15 1   
     4    2   15 1   
     5    2   27 1   
     6    2   28 1   
     7    2   47 1   
     8    4    5 ar  
     9    4    9 ar  
    10    5    6 ar  
    11    5   49 1   
    12    6    7 ar  
    13    7    8 ar  
    14    7   14 1   
    15    8    9 ar  
    16    8   11 1   
    17    9   10 1   
    18   10   29 1   
    19   10   30 1   
    20   11   12 2   
    21   12   14 1   
    22   12   31 1   
    23   13   21 1   
    24   13   32 1   
    25   13   48 1   
    26   14   18 1   
    27   15   16 1   
    28   15   33 1   
    29   16   17 1   
    30   16   26 1   
    31   16   34 1   
    32   17   35 1   
    33   18   19 1   
    34   18   23 1   
    35   18   36 1   
    36   19   20 1   
    37   19   21 1   
    38   19   37 1   
    39   20   38 1   
    40   21   22 1   
    41   21   39 1   
    42   22   23 1   
    43   22   24 1   
    44   22   40 1   
    45   24   25 1   
    46   24   41 1   
    47   24   42 1   
    48   25   43 1   
    49   26   44 1   
    50   26   45 1   
    51   26   46 1   
@<TRIPOS>SUBSTRUCTURE
     1 A3T         1 TEMP              0 ****  ****    0 ROOT
