@<TRIPOS>MOLECULE
A3T
   47    49     1     0     0
SMALL
bcc


@<TRIPOS>ATOM
      1 C          -3.4750    0.4810   -0.8980 c         1 A3T      0.625100
      2 N          -5.6510    1.4490   -1.6530 n3        1 A3T     -0.885800
      3 O          -3.4630   -0.2510   -1.9070 o         1 A3T     -0.614100
      4 N1          5.6710    1.3850   -0.8100 nb        1 A3T     -0.796000
      5 C2          4.5450    2.1010   -0.5580 ca        1 A3T      0.689900
      6 N3          3.3310    1.6940   -0.1170 nb        1 A3T     -0.765000
      7 C4          3.2810    0.3440    0.0980 ca        1 A3T      0.445800
      8 C5          4.4000   -0.5600   -0.1310 ca        1 A3T     -0.226200
      9 C6          5.6230    0.0230   -0.6050 ca        1 A3T      0.765200
     10 N6          6.7120   -0.7660   -0.8530 nh        1 A3T     -0.959500
     11 N7          4.0220   -1.8770    0.1750 nc        1 A3T     -0.551100
     12 C8          2.7440   -1.7960    0.5710 cd        1 A3T      0.430700
     13 N8         -2.4020    0.5200   -0.0270 n         1 A3T     -0.548900
     14 N9          2.2320   -0.4740    0.5440 na        1 A3T     -0.299000
     15 CA         -4.6960    1.3750   -0.5700 c3        1 A3T      0.074500
     16 CB         -5.3470    0.9000    0.7590 c3        1 A3T      0.152100
     17 OG         -5.9810   -0.3560    0.6120 oh        1 A3T     -0.591800
     18 C1'         0.9470    0.0210    0.9820 c3        1 A3T      0.226800
     19 C2'         0.1240    0.7060   -0.1610 c3        1 A3T      0.100100
     20 O2'        -0.1750    2.0310    0.2210 oh        1 A3T     -0.598800
     21 C3'        -1.1690   -0.1560   -0.3120 c3        1 A3T      0.088700
     22 C4'        -0.9150   -1.3740    0.6240 c3        1 A3T      0.073100
     23 O4'         0.1500   -1.0340    1.5200 os        1 A3T     -0.399600
     24 C5'        -0.5490   -2.6230   -0.1790 c3        1 A3T      0.105400
     25 O5'         0.0820   -3.5990    0.6240 oh        1 A3T     -0.595800
     26 CG2        -6.3000    1.9550    1.2900 c3        1 A3T     -0.130100
     27 HN         -5.2070    1.8090   -2.4770 hn        1 A3T      0.363800
     28 HNA        -6.0070    0.5340   -1.8610 hn        1 A3T      0.363800
     29 HN6         7.5670   -0.3710   -1.1550 hn        1 A3T      0.451300
     30 HN6A        6.6540   -1.7350   -0.6650 hn        1 A3T      0.451300
     31 H8          2.0990   -2.6360    0.8810 h5        1 A3T      0.107800
     32 HN8        -2.3720    1.2210    0.6770 hn        1 A3T      0.325500
     33 HA         -4.3100    2.4250   -0.3940 h1        1 A3T      0.079700
     34 HB         -4.5350    0.7040    1.5170 h1        1 A3T      0.073700
     35 HOG        -6.8280   -0.2120    0.1730 ho        1 A3T      0.408000
     36 H1'         1.1140    0.7430    1.8390 h2        1 A3T      0.105700
     37 H2'         0.6800    0.7020   -1.1370 h1        1 A3T      0.077700
     38 HO2'        0.6460    2.5350    0.1240 ho        1 A3T      0.438000
     39 H3'        -1.2150   -0.5290   -1.3810 h1        1 A3T      0.104700
     40 H4'        -1.7840   -1.5960    1.3030 h1        1 A3T      0.094700
     41 H5'        -1.4780   -3.0450   -0.6460 h1        1 A3T      0.062700
     42 H5'A        0.2050   -2.3900   -0.9790 h1        1 A3T      0.062700
     43 HO5'       -0.4340   -3.6880    1.4350 ho        1 A3T      0.408000
     44 HG2        -7.1150    2.1620    0.5560 hc        1 A3T      0.051700
     45 HG2A       -6.7600    1.5950    2.2420 hc        1 A3T      0.051700
     46 HG2B       -5.7500    2.9050    1.4900 hc        1 A3T      0.051700
     47 H2          4.6420    3.1930   -0.7440 h5        1 A3T      0.050100
@<TRIPOS>BOND
     1    1    3 2   
     2    1   13 1   
     3    1   15 1   
     4    2   15 1   
     5    2   27 1   
     6    2   28 1   
     7    4    5 ar  
     8    4    9 ar  
     9    5    6 ar  
    10    5   47 1   
    11    6    7 ar  
    12    7    8 ar  
    13    7   14 1   
    14    8    9 ar  
    15    8   11 1   
    16    9   10 1   
    17   10   29 1   
    18   10   30 1   
    19   11   12 2   
    20   12   14 1   
    21   12   31 1   
    22   13   21 1   
    23   13   32 1   
    24   14   18 1   
    25   15   16 1   
    26   15   33 1   
    27   16   17 1   
    28   16   26 1   
    29   16   34 1   
    30   17   35 1   
    31   18   19 1   
    32   18   23 1   
    33   18   36 1   
    34   19   20 1   
    35   19   21 1   
    36   19   37 1   
    37   20   38 1   
    38   21   22 1   
    39   21   39 1   
    40   22   23 1   
    41   22   24 1   
    42   22   40 1   
    43   24   25 1   
    44   24   41 1   
    45   24   42 1   
    46   25   43 1   
    47   26   44 1   
    48   26   45 1   
    49   26   46 1   
@<TRIPOS>SUBSTRUCTURE
     1 A3T         1 TEMP              0 ****  ****    0 ROOT
