@<TRIPOS>MOLECULE
A3T
   50    52     1     0     0
SMALL
bcc


@<TRIPOS>ATOM
      1 C           0.0600   -0.4320   -0.2220 c         1 A3T      0.535100
      2 N           1.7810    1.0300   -1.2510 n4        1 A3T     -0.836600
      3 O          -0.6170   -0.4200   -1.2420 o         1 A3T     -0.389100
      4 N1         -4.4470   -8.1030   -0.5810 nb        1 A3T     -0.652000
      5 C2         -3.2180   -7.5470   -0.3770 ca        1 A3T      0.700900
      6 N3         -2.9200   -6.3110    0.1120 nb        1 A3T     -0.672000
      7 C4         -4.0090   -5.5740    0.4290 ca        1 A3T      0.449800
      8 C5         -5.3960   -6.0480    0.2530 ca        1 A3T     -0.124200
      9 C6         -5.5320   -7.3510   -0.2640 ca        1 A3T      0.556200
     10 N6         -6.8800   -7.9170   -0.4510 n4        1 A3T     -0.821300
     11 N7         -6.2980   -5.0560    0.6680 nc        1 A3T     -0.540100
     12 C8         -5.5380   -4.0350    1.0840 cd        1 A3T      0.526700
     13 N8         -0.5530   -0.8450    1.0670 n4        1 A3T     -0.633800
     14 N9         -4.1380   -4.2630    0.9350 na        1 A3T     -0.299000
     15 CA          1.5520   -0.0370   -0.2240 c3        1 A3T      0.042500
     16 CB          2.0800    0.4080    1.1730 c3        1 A3T      0.131100
     17 OG          1.1250    1.3470    1.6350 oh        1 A3T     -0.658800
     18 C1'        -3.0610   -3.5390    1.5620 c3        1 A3T      0.235800
     19 C2'        -1.9960   -2.9450    0.5670 c3        1 A3T      0.101100
     20 O2'        -0.7330   -3.5290    0.7980 oh        1 A3T     -0.637800
     21 C3'        -1.9260   -1.4380    0.9460 c3        1 A3T      0.086500
     22 C4'        -2.6910   -1.3530    2.3020 c3        1 A3T      0.128100
     23 O4'        -3.6300   -2.4260    2.2860 os        1 A3T     -0.377600
     24 C5'        -3.4480   -0.0310    2.4420 c3        1 A3T      0.125400
     25 O5'        -2.4650    0.9720    2.2170 oh        1 A3T     -0.676800
     26 CG2         3.4860    0.9670    1.1130 c3        1 A3T     -0.177100
     27 HN          1.3150    0.7920   -2.1410 hn        1 A3T      0.494467
     28 HNA         1.4140    1.9310   -0.9060 hn        1 A3T      0.494467
     29 HN6        -7.2500   -8.2040    0.4680 hn        1 A3T      0.491800
     30 HN6A       -7.4950   -7.1960   -0.8530 hn        1 A3T      0.491800
     31 H8         -5.9170   -3.0860    1.5040 h5        1 A3T      0.123800
     32 HN8        -0.6300    0.0130    1.6680 hn        1 A3T      0.508800
     33 HA          2.1340   -0.9630   -0.5430 hx        1 A3T      0.172700
     34 HB          2.0680   -0.5020    1.8430 h1        1 A3T      0.091700
     35 HOG         1.5360    1.9230    2.3020 ho        1 A3T      0.491000
     36 H1'        -2.5370   -4.2130    2.3110 h2        1 A3T      0.120700
     37 H2'        -2.2970   -3.0640   -0.5090 h1        1 A3T      0.111700
     38 HO2'       -0.7890   -4.4720    0.5680 ho        1 A3T      0.483000
     39 H3'        -2.4860   -0.8370    0.1660 hx        1 A3T      0.151700
     40 H4'        -1.9990   -1.5070    3.1780 h1        1 A3T      0.090700
     41 H5'        -4.2580    0.0580    1.6700 h1        1 A3T      0.092200
     42 H5'A       -3.8930    0.0470    3.4690 h1        1 A3T      0.092200
     43 HO5'       -2.7790    1.7880    2.6350 ho        1 A3T      0.472000
     44 HG2         4.1590    0.3060    0.5130 hc        1 A3T      0.097367
     45 HG2A        3.5050    2.0060    0.7030 hc        1 A3T      0.097367
     46 HG2B        3.9100    1.0150    2.1520 hc        1 A3T      0.097367
     47 HN3         2.7960    1.1290   -1.4120 hn        1 A3T      0.494467
     48 H63        -6.8560   -8.7400   -1.0750 hn        1 A3T      0.491800
     49 H82         0.0620   -1.5320    1.5320 hn        1 A3T      0.508800
     50 H2         -2.3510   -8.2010   -0.6450 h5        1 A3T      0.115100
@<TRIPOS>BOND
     1    1    3 2   
     2    1   13 1   
     3    1   15 1   
     4    2   15 1   
     5    2   27 1   
     6    2   28 1   
     7    2   47 1   
     8    4    5 ar  
     9    4    9 ar  
    10    5    6 ar  
    11    5   50 1   
    12    6    7 ar  
    13    7    8 ar  
    14    7   14 1   
    15    8    9 ar  
    16    8   11 1   
    17    9   10 1   
    18   10   29 1   
    19   10   30 1   
    20   10   48 1   
    21   11   12 2   
    22   12   14 1   
    23   12   31 1   
    24   13   21 1   
    25   13   32 1   
    26   13   49 1   
    27   14   18 1   
    28   15   16 1   
    29   15   33 1   
    30   16   17 1   
    31   16   26 1   
    32   16   34 1   
    33   17   35 1   
    34   18   19 1   
    35   18   23 1   
    36   18   36 1   
    37   19   20 1   
    38   19   21 1   
    39   19   37 1   
    40   20   38 1   
    41   21   22 1   
    42   21   39 1   
    43   22   23 1   
    44   22   24 1   
    45   22   40 1   
    46   24   25 1   
    47   24   41 1   
    48   24   42 1   
    49   25   43 1   
    50   26   44 1   
    51   26   45 1   
    52   26   46 1   
@<TRIPOS>SUBSTRUCTURE
     1 A3T         1 TEMP              0 ****  ****    0 ROOT
