@<TRIPOS>MOLECULE
A3T
   49    51     1     0     0
SMALL
bcc


@<TRIPOS>ATOM
      1 C          -0.4300    0.2570   -0.0720 c         1 A3T      0.546100
      2 N           1.6310   -0.0340   -1.4130 n4        1 A3T     -0.837600
      3 O          -0.8660    1.0170   -0.9290 o         1 A3T     -0.401100
      4 N1         -3.0030   -7.3300   -0.9910 nb        1 A3T     -0.768000
      5 C2         -2.0630   -6.3990   -0.7380 ca        1 A3T      0.715900
      6 N3         -2.1490   -5.2320   -0.0350 nb        1 A3T     -0.846000
      7 C4         -3.3990   -5.0350    0.4730 ca        1 A3T      0.455800
      8 C5         -4.5170   -5.9390    0.2900 ca        1 A3T     -0.225200
      9 C6         -4.2780   -7.1310   -0.4810 ca        1 A3T      0.789200
     10 N6         -5.2710   -8.0270   -0.7050 nh        1 A3T     -0.916500
     11 N7         -5.6570   -5.4400    0.9480 nc        1 A3T     -0.494100
     12 C8         -5.2790   -4.2940    1.5120 cd        1 A3T      0.436700
     13 N8         -1.1770    0.1370    1.2050 n4        1 A3T     -0.625800
     14 N9         -3.9130   -3.9650    1.2380 na        1 A3T     -0.324000
     15 CA          0.8370   -0.5920   -0.2710 c3        1 A3T      0.045500
     16 CB          1.6900   -0.6970    1.0280 c3        1 A3T      0.129100
     17 OG          1.6200    0.5940    1.6080 oh        1 A3T     -0.652800
     18 C1'        -3.0930   -2.9680    1.8420 c3        1 A3T      0.262800
     19 C2'        -2.1480   -2.2380    0.8150 c3        1 A3T      0.091100
     20 O2'        -0.7910   -2.5560    1.0520 oh        1 A3T     -0.680800
     21 C3'        -2.3940   -0.7330    1.0790 c3        1 A3T      0.074500
     22 C4'        -3.2420   -0.7030    2.3880 c3        1 A3T      0.134100
     23 O4'        -3.9340   -1.9450    2.4330 os        1 A3T     -0.371600
     24 C5'        -4.2630    0.4360    2.3670 c3        1 A3T      0.124400
     25 O5'        -3.5020    1.5980    2.0580 oh        1 A3T     -0.677800
     26 CG2         3.1080   -1.1630    0.7840 c3        1 A3T     -0.173100
     27 HN          2.0750    0.8510   -1.1280 hn        1 A3T      0.488133
     28 HNA         2.3670   -0.7070   -1.6720 hn        1 A3T      0.488133
     29 HN6        -5.1040   -8.8570   -1.2260 hn        1 A3T      0.469300
     30 HN6A       -6.1690   -7.8710   -0.3100 hn        1 A3T      0.469300
     31 H8         -5.9030   -3.6250    2.1200 h5        1 A3T      0.096800
     32 HN8        -0.5620   -0.2310    1.9450 hn        1 A3T      0.501800
     33 HA          0.4930   -1.6480   -0.5420 hx        1 A3T      0.186700
     34 HB          1.1620   -1.4440    1.6980 h1        1 A3T      0.113700
     35 HOG         2.3670    0.7120    2.2160 ho        1 A3T      0.481000
     36 H1'        -2.4640   -3.4120    2.6750 h2        1 A3T      0.094700
     37 H2'        -2.4120   -2.4890   -0.2510 h1        1 A3T      0.115700
     38 HO2'       -0.7170   -3.5280    1.0650 ho        1 A3T      0.495000
     39 H3'        -3.0130   -0.3010    0.2340 hx        1 A3T      0.146700
     40 H4'        -2.5840   -0.6270    3.3000 h1        1 A3T      0.078700
     41 H5'        -4.7570    0.5240    3.3710 h1        1 A3T      0.089200
     42 H5'A       -5.0410    0.2670    1.5760 h1        1 A3T      0.089200
     43 HO5'       -4.0420    2.3690    2.2820 ho        1 A3T      0.468000
     44 HG2         3.7430   -0.3600    0.3370 hc        1 A3T      0.089367
     45 HG2A        3.5770   -1.4440    1.7650 hc        1 A3T      0.089367
     46 HG2B        3.1280   -2.0740    0.1370 hc        1 A3T      0.089367
     47 HN3         1.0240    0.1460   -2.2270 hn        1 A3T      0.488133
     48 H82        -1.5180    1.0850    1.4870 hn        1 A3T      0.501800
     49 H2         -1.0610   -6.6240   -1.1680 h5        1 A3T      0.057100
@<TRIPOS>BOND
     1    1    3 2   
     2    1   13 1   
     3    1   15 1   
     4    2   15 1   
     5    2   27 1   
     6    2   28 1   
     7    2   47 1   
     8    4    5 ar  
     9    4    9 ar  
    10    5    6 ar  
    11    5   49 1   
    12    6    7 ar  
    13    7    8 ar  
    14    7   14 1   
    15    8    9 ar  
    16    8   11 1   
    17    9   10 1   
    18   10   29 1   
    19   10   30 1   
    20   11   12 2   
    21   12   14 1   
    22   12   31 1   
    23   13   21 1   
    24   13   32 1   
    25   13   48 1   
    26   14   18 1   
    27   15   16 1   
    28   15   33 1   
    29   16   17 1   
    30   16   26 1   
    31   16   34 1   
    32   17   35 1   
    33   18   19 1   
    34   18   23 1   
    35   18   36 1   
    36   19   20 1   
    37   19   21 1   
    38   19   37 1   
    39   20   38 1   
    40   21   22 1   
    41   21   39 1   
    42   22   23 1   
    43   22   24 1   
    44   22   40 1   
    45   24   25 1   
    46   24   41 1   
    47   24   42 1   
    48   25   43 1   
    49   26   44 1   
    50   26   45 1   
    51   26   46 1   
@<TRIPOS>SUBSTRUCTURE
     1 A3T         1 TEMP              0 ****  ****    0 ROOT
