@<TRIPOS>MOLECULE
A3V
   45    46     1     0     0
SMALL
bcc


@<TRIPOS>ATOM
      1 O           0.0650   -0.0780    0.0970 oh        1 A3V     -0.628800
      2 C2          1.4770   -0.0030   -0.0550 c3        1 A3V      0.208400
      3 C1          2.0610   -0.1290    1.3610 c3        1 A3V     -0.113400
      4 C           1.5520   -1.4190    1.9870 c3        1 A3V      0.098800
      5 N           1.8880   -1.5230    3.4390 nz        1 A3V     -0.838600
      6 C3          1.9400    1.2760   -0.6840 ca        1 A3V     -0.130300
      7 C15         3.0550    1.2580   -1.5200 ca        1 A3V     -0.149000
      8 C7          3.4900    2.4600   -2.1130 ca        1 A3V      0.146100
      9 C6          2.8080    3.6610   -1.8730 ca        1 A3V     -0.184000
     10 C5          1.6920    3.6540   -1.0360 ca        1 A3V     -0.081000
     11 C4          1.2570    2.4730   -0.4400 ca        1 A3V     -0.164000
     12 O1          4.6050    2.3320   -2.9070 os        1 A3V     -0.325900
     13 C8          5.0340    3.5210   -3.5940 c3        1 A3V      0.127400
     14 C9          6.2320    3.1080   -4.4420 c3        1 A3V     -0.067700
     15 C14         6.4880    4.1690   -5.5030 c3        1 A3V     -0.073400
     16 C13         7.6950    3.8100   -6.3450 c3        1 A3V     -0.076400
     17 C12         8.9240    3.5890   -5.4870 c3        1 A3V     -0.079400
     18 C11         8.6700    2.5450   -4.4190 c3        1 A3V     -0.076400
     19 C10         7.4660    2.9060   -3.5740 c3        1 A3V     -0.073400
     20 H1         -0.3380    0.3400   -0.6760 ho        1 A3V      0.443000
     21 H2          1.8080   -0.8850   -0.6780 h1        1 A3V      0.058700
     22 H3          3.1790   -0.1250    1.2890 hc        1 A3V      0.079700
     23 H4          1.7340    0.7640    1.9570 hc        1 A3V      0.079700
     24 H5          2.0020   -2.3120    1.4650 hx        1 A3V      0.124200
     25 H6          0.4250   -1.4680    1.8880 hx        1 A3V      0.124200
     26 H7          2.9040   -1.4880    3.5710 hn        1 A3V      0.459800
     27 H8          1.4660   -0.7410    3.9510 hn        1 A3V      0.459800
     28 H10         3.5990    0.3270   -1.7360 ha        1 A3V      0.151000
     29 H11         3.1370    4.6020   -2.3360 ha        1 A3V      0.154000
     30 H12         1.1500    4.5940   -0.8480 ha        1 A3V      0.148000
     31 H13         0.3750    2.4760    0.2170 ha        1 A3V      0.138000
     32 H14         4.1960    3.8940   -4.2400 h1        1 A3V      0.045700
     33 H15         5.3160    4.3020   -2.8410 h1        1 A3V      0.045700
     34 H16         5.9890    2.1330   -4.9510 hc        1 A3V      0.069700
     35 H17         5.5870    4.2670   -6.1620 hc        1 A3V      0.042450
     36 H18         6.6560    5.1600   -5.0060 hc        1 A3V      0.042450
     37 H19         7.4770    2.8790   -6.9320 hc        1 A3V      0.044700
     38 H20         7.8920    4.6330   -7.0790 hc        1 A3V      0.044700
     39 H21         9.2200    4.5560   -5.0020 hc        1 A3V      0.045200
     40 H22         9.7790    3.2630   -6.1350 hc        1 A3V      0.045200
     41 H23         9.5730    2.4530   -3.7610 hc        1 A3V      0.044700
     42 H24         8.5020    1.5470   -4.9040 hc        1 A3V      0.044700
     43 H25         7.2610    2.0920   -2.8300 hc        1 A3V      0.042450
     44 H26         7.6790    3.8460   -3.0010 hc        1 A3V      0.042450
     45 HN3         1.5300   -2.4040    3.8200 hn        1 A3V      0.459800
@<TRIPOS>BOND
     1    1    2 1   
     2    1   20 1   
     3    2    3 1   
     4    2    6 1   
     5    2   21 1   
     6    3    4 1   
     7    3   22 1   
     8    3   23 1   
     9    4    5 1   
    10    4   24 1   
    11    4   25 1   
    12    5   26 1   
    13    5   27 1   
    14    5   45 1   
    15    6    7 ar  
    16    6   11 ar  
    17    7    8 ar  
    18    7   28 1   
    19    8    9 ar  
    20    8   12 1   
    21    9   10 ar  
    22    9   29 1   
    23   10   11 ar  
    24   10   30 1   
    25   11   31 1   
    26   12   13 1   
    27   13   14 1   
    28   13   32 1   
    29   13   33 1   
    30   14   15 1   
    31   14   19 1   
    32   14   34 1   
    33   15   16 1   
    34   15   35 1   
    35   15   36 1   
    36   16   17 1   
    37   16   37 1   
    38   16   38 1   
    39   17   18 1   
    40   17   39 1   
    41   17   40 1   
    42   18   19 1   
    43   18   41 1   
    44   18   42 1   
    45   19   43 1   
    46   19   44 1   
@<TRIPOS>SUBSTRUCTURE
     1 A3V         1 TEMP              0 ****  ****    0 ROOT
