@<TRIPOS>MOLECULE
A3V
   45    46     1     0     0
SMALL
bcc


@<TRIPOS>ATOM
      1 O           0.0730   -0.0960    0.0990 oh        1 A3V     -0.628800
      2 C2          1.4860   -0.0110   -0.0480 c3        1 A3V      0.208400
      3 C1          2.0640   -0.1210    1.3710 c3        1 A3V     -0.113400
      4 C           1.5630   -1.4100    2.0060 c3        1 A3V      0.098800
      5 N           1.8930   -1.5000    3.4600 n4        1 A3V     -0.838600
      6 C3          1.9410    1.2660   -0.6860 ca        1 A3V     -0.130300
      7 C15         3.0590    1.2500   -1.5170 ca        1 A3V     -0.149000
      8 C7          3.4880    2.4510   -2.1180 ca        1 A3V      0.146100
      9 C6          2.7950    3.6480   -1.8900 ca        1 A3V     -0.184000
     10 C5          1.6770    3.6400   -1.0570 ca        1 A3V     -0.081000
     11 C4          1.2490    2.4600   -0.4530 ca        1 A3V     -0.164000
     12 O1          4.6060    2.3250   -2.9080 os        1 A3V     -0.325900
     13 C8          5.0280    3.5120   -3.6030 c3        1 A3V      0.127400
     14 C9          6.2320    3.1010   -4.4440 c3        1 A3V     -0.067700
     15 C14         6.4830    4.1550   -5.5120 c3        1 A3V     -0.073400
     16 C13         7.6950    3.7990   -6.3480 c3        1 A3V     -0.076400
     17 C12         8.9240    3.5950   -5.4850 c3        1 A3V     -0.079400
     18 C11         8.6740    2.5570   -4.4100 c3        1 A3V     -0.076400
     19 C10         7.4640    2.9160   -3.5710 c3        1 A3V     -0.073400
     20 H1         -0.3290    0.3130   -0.6790 ho        1 A3V      0.443000
     21 H2          1.8260   -0.8950   -0.6630 h1        1 A3V      0.058700
     22 H3          3.1830   -0.1090    1.3040 hc        1 A3V      0.079700
     23 H4          1.7280    0.7740    1.9580 hc        1 A3V      0.079700
     24 H5          2.0220   -2.3030    1.4920 hx        1 A3V      0.124200
     25 H6          0.4360   -1.4690    1.9020 hx        1 A3V      0.124200
     26 H7          1.5400   -2.3800    3.8460 hn        1 A3V      0.459800
     27 H8          2.9080   -1.4560    3.5960 hn        1 A3V      0.459800
     28 H10         3.6110    0.3220   -1.7250 ha        1 A3V      0.151000
     29 H11         3.1190    4.5890   -2.3590 ha        1 A3V      0.154000
     30 H12         1.1270    4.5770   -0.8780 ha        1 A3V      0.148000
     31 H13         0.3640    2.4620    0.2010 ha        1 A3V      0.138000
     32 H14         4.1890    3.8740   -4.2540 h1        1 A3V      0.045700
     33 H15         5.3020    4.3010   -2.8550 h1        1 A3V      0.045700
     34 H16         5.9970    2.1200   -4.9450 hc        1 A3V      0.069700
     35 H17         6.6420    5.1520   -5.0230 hc        1 A3V      0.042450
     36 H18         5.5830    4.2420   -6.1760 hc        1 A3V      0.042450
     37 H19         7.8880    4.6180   -7.0890 hc        1 A3V      0.044700
     38 H20         7.4860    2.8620   -6.9280 hc        1 A3V      0.044700
     39 H21         9.2100    4.5680   -5.0070 hc        1 A3V      0.045200
     40 H22         9.7830    3.2690   -6.1280 hc        1 A3V      0.045200
     41 H23         8.5150    1.5540   -4.8860 hc        1 A3V      0.044700
     42 H24         9.5750    2.4770   -3.7480 hc        1 A3V      0.044700
     43 H25         7.2640    2.1070   -2.8210 hc        1 A3V      0.042450
     44 H26         7.6690    3.8620   -3.0050 hc        1 A3V      0.042450
     45 HN3         1.4630   -0.7160    3.9630 hn        1 A3V      0.459800
@<TRIPOS>BOND
     1    1    2 1   
     2    1   20 1   
     3    2    3 1   
     4    2    6 1   
     5    2   21 1   
     6    3    4 1   
     7    3   22 1   
     8    3   23 1   
     9    4    5 1   
    10    4   24 1   
    11    4   25 1   
    12    5   26 1   
    13    5   27 1   
    14    5   45 1   
    15    6    7 ar  
    16    6   11 ar  
    17    7    8 ar  
    18    7   28 1   
    19    8    9 ar  
    20    8   12 1   
    21    9   10 ar  
    22    9   29 1   
    23   10   11 ar  
    24   10   30 1   
    25   11   31 1   
    26   12   13 1   
    27   13   14 1   
    28   13   32 1   
    29   13   33 1   
    30   14   15 1   
    31   14   19 1   
    32   14   34 1   
    33   15   16 1   
    34   15   35 1   
    35   15   36 1   
    36   16   17 1   
    37   16   37 1   
    38   16   38 1   
    39   17   18 1   
    40   17   39 1   
    41   17   40 1   
    42   18   19 1   
    43   18   41 1   
    44   18   42 1   
    45   19   43 1   
    46   19   44 1   
@<TRIPOS>SUBSTRUCTURE
     1 A3V         1 TEMP              0 ****  ****    0 ROOT
