@<TRIPOS>MOLECULE
A41
   32    27     1     0     0
SMALL
bcc


@<TRIPOS>ATOM
      1 C1         -4.8850   -1.7210   -1.8780 c1        1 A41     -0.112250
      2 C2         -4.0140   -1.4030   -2.9080 c1        1 A41     -0.112250
      3 C3         -2.6740   -1.1730   -2.6370 c1        1 A41     -0.112250
      4 C4         -2.2060   -1.2610   -1.3360 c1        1 A41     -0.810000
      5 C5         -3.0770   -1.5800   -0.3050 c1        1 A41     -0.009000
      6 C6         -4.4160   -1.8100   -0.5770 c1        1 A41     -0.112250
      7 S7         -0.4860   -0.9970   -0.9930 s4        1 A41      2.045800
      8 N8         -0.3030    0.2310    0.0820 n2        1 A41     -0.816000
      9 O9          0.1430   -2.1990   -0.5230 o         1 A41     -0.559900
     10 O10         0.2540   -0.7480   -2.1990 o         1 A41     -0.559900
     11 C11         0.9970    0.6750    0.4380 c2        1 A41      0.085000
     12 C12         1.7970    1.3000   -0.5060 c2        1 A41     -0.186000
     13 C13         3.0400    1.7960   -0.1430 c1        1 A41     -0.125000
     14 C14         3.4820    1.6670    1.1640 c1        1 A41     -0.121000
     15 C15         2.6820    1.0420    2.1080 c1        1 A41     -0.085000
     16 C16         1.4400    0.5460    1.7450 c1        1 A41     -0.135000
     17 C17         0.5650   -0.1300    2.7760 c2        1 A41      0.362000
     18 O18         0.6050   -1.3810    2.9130 o         1 A41     -0.567500
     19 O19        -0.1820    0.5600    3.5180 o         1 A41     -0.567500
     20 C20         4.8310    2.2220    1.5640 c3        1 A41     -0.162000
     21 H1         -5.8250   -1.9000   -2.0720 ha        1 A41      0.130750
     22 H2         -4.3470   -1.3270   -3.8230 ha        1 A41      0.130750
     23 H3         -2.0590   -0.9600   -3.3640 ha        1 A41      0.130750
     24 H5         -2.7440   -1.6570    0.6090 ha        1 A41      0.209000
     25 H6         -5.0320   -2.0240    0.1500 ha        1 A41      0.130750
     26 HN8        -1.0370    0.6290    0.4490 hn        1 A41      0.298000
     27 H12         1.4860    1.3910   -1.4270 ha        1 A41      0.150000
     28 H13         3.6030    2.2360   -0.8080 ha        1 A41      0.112000
     29 H15         2.9940    0.9510    3.0290 ha        1 A41      0.159000
     30 H201        5.3760    2.3660    0.7630 hc        1 A41      0.068333
     31 H202        4.7080    3.0740    2.0330 hc        1 A41      0.068333
     32 H203        5.2840    1.5860    2.1570 hc        1 A41      0.068333
@<TRIPOS>BOND
     1    1    6 1   
     2    1   21 1   
     3    2    3 1   
     4    2   22 1   
     5    3   23 1   
     6    4    5 1   
     7    4    7 1   
     8    5   24 1   
     9    6   25 1   
    10    7    9 1   
    11    7   10 1   
    12    8   11 1   
    13    8   26 1   
    14   11   12 1   
    15   11   16 1   
    16   12   13 1   
    17   12   27 1   
    18   13   28 1   
    19   14   15 1   
    20   14   20 1   
    21   15   29 1   
    22   16   17 1   
    23   17   18 1   
    24   17   19 1   
    25   20   30 1   
    26   20   31 1   
    27   20   32 1   
@<TRIPOS>SUBSTRUCTURE
     1 A41         1 TEMP              0 ****  ****    0 ROOT
