@<TRIPOS>MOLECULE
A41
   32    33     1     0     0
SMALL
bcc


@<TRIPOS>ATOM
      1 C1         -0.3940    0.1440    0.1310 ca        1 A41     -0.086000
      2 C2          0.7010    1.0110    0.1070 ca        1 A41     -0.167500
      3 C3          1.6130    0.9990    1.1560 ca        1 A41     -0.018500
      4 C4          1.4500    0.1330    2.2470 ca        1 A41     -0.365500
      5 C5          0.3560   -0.7380    2.2530 ca        1 A41     -0.018500
      6 C6         -0.5630   -0.7300    1.2010 ca        1 A41     -0.167500
      7 S7          2.5670    0.2120    3.5250 sy        1 A41      1.490200
      8 N8          2.7490   -1.3040    4.0250 nh        1 A41     -0.766500
      9 O9          1.9960    0.9830    4.5710 o         1 A41     -0.672300
     10 O10         3.7690    0.7680    3.0090 o         1 A41     -0.672300
     11 C11         3.4080   -2.3540    3.3610 ca        1 A41      0.166600
     12 C12         4.6630   -2.1260    2.7500 ca        1 A41     -0.186000
     13 C13         5.3380   -3.1630    2.1200 ca        1 A41     -0.125000
     14 C14         4.7980   -4.4520    2.0880 ca        1 A41     -0.128300
     15 C15         3.5590   -4.6780    2.6920 ca        1 A41     -0.085000
     16 C16         2.8460   -3.6550    3.3220 ca        1 A41     -0.155600
     17 C17         1.4980   -4.0220    3.9270 c         1 A41      0.913200
     18 O18         1.1950   -5.2440    3.9870 o         1 A41     -0.832800
     19 O19         0.7200   -3.1030    4.3370 o         1 A41     -0.832800
     20 C20         5.5340   -5.5580    1.4360 c3        1 A41     -0.036800
     21 H1         -1.1170    0.1500   -0.6990 ha        1 A41      0.117000
     22 H2          0.8430    1.6970   -0.7400 ha        1 A41      0.129500
     23 H3          2.4880    1.6730    1.1330 ha        1 A41      0.178000
     24 H5          0.2130   -1.4680    3.0830 ha        1 A41      0.178000
     25 H6         -1.4140   -1.4260    1.2220 ha        1 A41      0.129500
     26 HN8         2.0900   -1.6710    4.7050 hn        1 A41      0.502800
     27 H12         5.1120   -1.1190    2.7620 ha        1 A41      0.150000
     28 H13         6.3100   -2.9640    1.6450 ha        1 A41      0.112000
     29 H15         3.1070   -5.6860    2.6860 ha        1 A41      0.159000
     30 H201        6.2600   -6.0140    2.1550 hc        1 A41      0.029033
     31 H202        6.1060   -5.1910    0.5490 hc        1 A41      0.029033
     32 H203        4.8320   -6.3590    1.0970 hc        1 A41      0.029033
@<TRIPOS>BOND
     1    1    2 ar  
     2    1    6 ar  
     3    1   21 1   
     4    2    3 ar  
     5    2   22 1   
     6    3    4 ar  
     7    3   23 1   
     8    4    5 ar  
     9    4    7 1   
    10    5    6 ar  
    11    5   24 1   
    12    6   25 1   
    13    7    8 1   
    14    7    9 2   
    15    7   10 2   
    16    8   11 1   
    17    8   26 1   
    18   11   12 ar  
    19   11   16 ar  
    20   12   13 ar  
    21   12   27 1   
    22   13   14 ar  
    23   13   28 1   
    24   14   15 ar  
    25   14   20 1   
    26   15   16 ar  
    27   15   29 1   
    28   16   17 1   
    29   17   18 1   
    30   17   19 1   
    31   20   30 1   
    32   20   31 1   
    33   20   32 1   
@<TRIPOS>SUBSTRUCTURE
     1 A41         1 TEMP              0 ****  ****    0 ROOT
