@<TRIPOS>MOLECULE
A41
   32    33     1     0     0
SMALL
bcc


@<TRIPOS>ATOM
      1 C1         -3.2940   -1.4580    2.4180 ca        1 A41     -0.086000
      2 C2         -3.5290   -2.0950    1.1980 ca        1 A41     -0.167500
      3 C3         -2.9830   -1.5720    0.0310 ca        1 A41     -0.018500
      4 C4         -2.2010   -0.4090    0.0550 ca        1 A41     -0.365500
      5 C5         -1.9640    0.2140    1.2850 ca        1 A41     -0.018500
      6 C6         -2.5110   -0.3080    2.4610 ca        1 A41     -0.167500
      7 S7         -1.6150    0.2120   -1.4140 sy        1 A41      1.490200
      8 N8         -0.1580    0.7980   -1.0770 nh        1 A41     -0.766500
      9 O9         -2.4620    1.2740   -1.8210 o         1 A41     -0.672300
     10 O10        -1.5730   -0.8620   -2.3450 o         1 A41     -0.672300
     11 C11         1.0120    0.0740   -0.7820 ca        1 A41      0.166600
     12 C12         1.3560   -1.0580   -1.5570 ca        1 A41     -0.186000
     13 C13         2.5250   -1.7610   -1.2970 ca        1 A41     -0.125000
     14 C14         3.3880   -1.3570   -0.2740 ca        1 A41     -0.128300
     15 C15         3.0500   -0.2390    0.4910 ca        1 A41     -0.085000
     16 C16         1.8750    0.4820    0.2660 ca        1 A41     -0.155600
     17 C17         1.6070    1.6710    1.1790 c         1 A41      0.913200
     18 O18         2.5340    2.0410    1.9480 o         1 A41     -0.832800
     19 O19         0.4710    2.2430    1.1510 o         1 A41     -0.832800
     20 C20         4.6440   -2.0960   -0.0160 c3        1 A41     -0.036800
     21 H1         -3.7240   -1.8690    3.3440 ha        1 A41      0.117000
     22 H2         -4.1400   -3.0070    1.1600 ha        1 A41      0.129500
     23 H3         -3.1540   -2.0820   -0.9340 ha        1 A41      0.178000
     24 H5         -1.3170    1.1180    1.3520 ha        1 A41      0.178000
     25 H6         -2.3090    0.1940    3.4190 ha        1 A41      0.129500
     26 HN8        -0.0890    1.7460   -0.7200 hn        1 A41      0.502800
     27 H12         0.6930   -1.3970   -2.3710 ha        1 A41      0.150000
     28 H13         2.7720   -2.6430   -1.9050 ha        1 A41      0.112000
     29 H15         3.7120    0.1070    1.3050 ha        1 A41      0.159000
     30 H201        5.4520   -1.7320   -0.7000 hc        1 A41      0.029033
     31 H202        4.9870   -1.9480    1.0370 hc        1 A41      0.029033
     32 H203        4.5070   -3.1920   -0.1940 hc        1 A41      0.029033
@<TRIPOS>BOND
     1    1    2 ar  
     2    1    6 ar  
     3    1   21 1   
     4    2    3 ar  
     5    2   22 1   
     6    3    4 ar  
     7    3   23 1   
     8    4    5 ar  
     9    4    7 1   
    10    5    6 ar  
    11    5   24 1   
    12    6   25 1   
    13    7    8 1   
    14    7    9 2   
    15    7   10 2   
    16    8   11 1   
    17    8   26 1   
    18   11   12 ar  
    19   11   16 ar  
    20   12   13 ar  
    21   12   27 1   
    22   13   14 ar  
    23   13   28 1   
    24   14   15 ar  
    25   14   20 1   
    26   15   16 ar  
    27   15   29 1   
    28   16   17 1   
    29   17   18 1   
    30   17   19 1   
    31   20   30 1   
    32   20   31 1   
    33   20   32 1   
@<TRIPOS>SUBSTRUCTURE
     1 A41         1 TEMP              0 ****  ****    0 ROOT
