@<TRIPOS>MOLECULE
A41
   33    34     1     0     0
SMALL
bcc


@<TRIPOS>ATOM
      1 C1         -0.4380    0.3730    0.2750 ca        1 A41     -0.060000
      2 C2          0.9360    0.3550    0.0310 ca        1 A41     -0.156500
      3 C3          1.8280    0.2680    1.0970 ca        1 A41     -0.014000
      4 C4          1.3660    0.1960    2.4170 ca        1 A41     -0.401500
      5 C5         -0.0170    0.2230    2.6460 ca        1 A41     -0.014000
      6 C6         -0.9140    0.3090    1.5860 ca        1 A41     -0.156500
      7 S7          2.4420    0.1330    3.7060 sy        1 A41      1.520200
      8 N8          2.5970   -1.4830    3.9610 nh        1 A41     -0.778500
      9 O9          1.8210    0.6630    4.8540 o         1 A41     -0.642800
     10 O10         3.6630    0.7070    3.3090 o         1 A41     -0.642800
     11 C11         3.3900   -2.4210    3.2880 ca        1 A41      0.207600
     12 C12         4.5270   -2.0340    2.5410 ca        1 A41     -0.188000
     13 C13         5.3060   -2.9850    1.8960 ca        1 A41     -0.074000
     14 C14         5.0040   -4.3500    1.9780 ca        1 A41     -0.105300
     15 C15         3.8920   -4.7470    2.7200 ca        1 A41     -0.054000
     16 C16         3.0780   -3.8030    3.3530 ca        1 A41     -0.219600
     17 C17         1.9170   -4.2930    4.1200 c         1 A41      0.637700
     18 O18         1.9100   -5.1340    5.0170 o         1 A41     -0.473000
     19 O19         0.6750   -3.7840    3.8420 oh        1 A41     -0.589100
     20 C20         5.8650   -5.3520    1.3100 c3        1 A41     -0.052800
     21 H1         -1.1460    0.4420   -0.5650 ha        1 A41      0.141000
     22 H2          1.3140    0.4140   -1.0000 ha        1 A41      0.146000
     23 H3          2.9160    0.2720    0.9060 ha        1 A41      0.155500
     24 H5         -0.3930    0.1940    3.6850 ha        1 A41      0.155500
     25 H6         -1.9970    0.3320    1.7820 ha        1 A41      0.146000
     26 HN8         0.7100   -3.2490    3.0370 ho        1 A41      0.431000
     27 H12         4.8240   -0.9710    2.4780 ha        1 A41      0.177000
     28 H13         6.1860   -2.6570    1.3200 ha        1 A41      0.143000
     29 H15         3.6430   -5.8170    2.8180 ha        1 A41      0.153000
     30 H201        5.3030   -6.2980    1.1110 hc        1 A41      0.049033
     31 H202        6.2520   -4.9590    0.3370 hc        1 A41      0.049033
     32 H203        6.7420   -5.5960    1.9620 hc        1 A41      0.049033
     33 H82         2.0620   -1.8880    4.7040 hn        1 A41      0.461800
@<TRIPOS>BOND
     1    1    2 ar  
     2    1    6 ar  
     3    1   21 1   
     4    2    3 ar  
     5    2   22 1   
     6    3    4 ar  
     7    3   23 1   
     8    4    5 ar  
     9    4    7 1   
    10    5    6 ar  
    11    5   24 1   
    12    6   25 1   
    13    7    8 1   
    14    7    9 2   
    15    7   10 2   
    16    8   11 1   
    17    8   33 1   
    18   11   12 ar  
    19   11   16 ar  
    20   12   13 ar  
    21   12   27 1   
    22   13   14 ar  
    23   13   28 1   
    24   14   15 ar  
    25   14   20 1   
    26   15   16 ar  
    27   15   29 1   
    28   16   17 1   
    29   17   18 2   
    30   17   19 1   
    31   19   26 1   
    32   20   30 1   
    33   20   31 1   
    34   20   32 1   
@<TRIPOS>SUBSTRUCTURE
     1 A41         1 TEMP              0 ****  ****    0 ROOT
