@<TRIPOS>MOLECULE
A42
   35    36     1     0     0
SMALL
bcc


@<TRIPOS>ATOM
      1 C1         -5.8740   -0.0000    0.0200 ca        1 A42      0.323000
      2 N2         -5.6060   -1.2640   -0.4150 nb        1 A42     -0.567000
      3 C3         -4.3240   -1.6290   -0.4530 ca        1 A42      0.236900
      4 C4         -3.2490   -0.7410   -0.0560 ca        1 A42      0.465900
      5 N5         -3.5320    0.5200    0.4010 nb        1 A42     -0.651000
      6 C6         -4.8270    0.8740    0.4260 ca        1 A42      0.366900
      7 C7         -7.2230    0.4570    0.0740 cg        1 A42      0.141800
      8 N8         -8.3190    0.8420    0.1240 n1        1 A42     -0.340800
      9 N9         -1.9370   -1.2080   -0.1480 n         1 A42     -0.563400
     10 C10        -0.7900   -0.3650   -0.0940 c         1 A42      0.774100
     11 O11        -0.8220    0.7860   -0.5640 o         1 A42     -0.551100
     12 N12         0.3570   -0.8960    0.5380 n         1 A42     -0.433100
     13 C13         1.6430   -0.3860    0.2440 ca        1 A42     -0.010400
     14 C14         1.8950    0.9980    0.2220 ca        1 A42     -0.063000
     15 C15         3.1790    1.4960    0.0040 ca        1 A42     -0.027600
     16 C16         4.2540    0.6060   -0.1940 ca        1 A42      0.157100
     17 C17         4.0290   -0.7770   -0.1800 ca        1 A42     -0.257000
     18 C18         2.7400   -1.2690    0.0260 ca        1 A42      0.124100
     19 O19         2.4370   -2.6200    0.0320 os        1 A42     -0.347900
     20 C20         3.5390   -3.5210    0.0100 c3        1 A42      0.118700
     21 O21         5.4960    1.1700   -0.3920 os        1 A42     -0.307900
     22 C22         6.5720    0.2750   -0.6470 c3        1 A42      0.112700
     23 CL1         3.3980    3.1790   -0.0080 cl        1 A42     -0.061400
     24 H3         -4.1210   -2.6530   -0.8100 h4        1 A42      0.039100
     25 H6         -5.0390    1.8950    0.7910 h4        1 A42      0.050100
     26 HN9        -1.8260   -2.1940   -0.0900 hn        1 A42      0.327500
     27 HN12        0.3580   -1.8690    0.7620 hn        1 A42      0.314500
     28 H14         1.0560    1.7050    0.3660 ha        1 A42      0.189000
     29 H17         4.8650   -1.4720   -0.3390 ha        1 A42      0.149000
     30 H201        4.0810   -3.4490   -0.9650 h1        1 A42      0.048700
     31 H202        4.2320   -3.3240    0.8640 h1        1 A42      0.048700
     32 H203        3.0530   -4.5240    0.1170 h1        1 A42      0.048700
     33 H221        6.3800   -0.3250   -1.5700 h1        1 A42      0.047367
     34 H222        7.4440    0.9620   -0.7980 h1        1 A42      0.047367
     35 H223        6.7460   -0.3940    0.2300 h1        1 A42      0.047367
@<TRIPOS>BOND
     1    1    2 ar  
     2    1    6 ar  
     3    1    7 1   
     4    2    3 ar  
     5    3    4 ar  
     6    3   24 1   
     7    4    5 ar  
     8    4    9 1   
     9    5    6 ar  
    10    6   25 1   
    11    7    8 3   
    12    9   10 1   
    13    9   26 1   
    14   10   11 2   
    15   10   12 1   
    16   12   13 1   
    17   12   27 1   
    18   13   14 ar  
    19   13   18 ar  
    20   14   15 ar  
    21   14   28 1   
    22   15   16 ar  
    23   15   23 1   
    24   16   17 ar  
    25   16   21 1   
    26   17   18 ar  
    27   17   29 1   
    28   18   19 1   
    29   19   20 1   
    30   20   30 1   
    31   20   31 1   
    32   20   32 1   
    33   21   22 1   
    34   22   33 1   
    35   22   34 1   
    36   22   35 1   
@<TRIPOS>SUBSTRUCTURE
     1 A42         1 TEMP              0 ****  ****    0 ROOT
