@<TRIPOS>MOLECULE
A42
   35    36     1     0     0
SMALL
bcc


@<TRIPOS>ATOM
      1 C1          0.0000    0.0000    0.0000 ca        1 A42      0.322000
      2 N2          1.3330    0.0000    0.0000 nb        1 A42     -0.492000
      3 C3          1.9890    0.0000    1.1400 ca        1 A42      0.227900
      4 C4          1.2920    0.0010    2.3500 ca        1 A42      0.266900
      5 N5         -0.0360   -0.0000    2.3510 nb        1 A42     -0.510000
      6 C6         -0.6970   -0.0000    1.2090 ca        1 A42      0.361900
      7 C7         -0.7170    0.0070   -1.2400 cg        1 A42      0.125800
      8 N8         -1.2790    0.0310   -2.2270 n1        1 A42     -0.359800
      9 N9          1.9880    0.0000    3.5530 ns        1 A42     -0.121400
     10 C10         1.3180    0.1030    4.7190 c         1 A42      0.539100
     11 O11         0.1020    0.1030    4.7230 o         1 A42     -0.622100
     12 N12         1.9970    0.2050    5.8780 ns        1 A42     -0.020100
     13 C13         1.3050    0.1920    7.0990 ca        1 A42     -0.152400
     14 C14         0.0610   -0.4160    7.1870 ca        1 A42     -0.057000
     15 C15        -0.6200   -0.4290    8.3900 ca        1 A42     -0.078600
     16 C16        -0.0620    0.1670    9.5120 ca        1 A42      0.199100
     17 C17         1.1810    0.7770    9.4290 ca        1 A42     -0.298000
     18 C18         1.8690    0.7860    8.2260 ca        1 A42      0.129100
     19 O19         3.0900    1.3780    8.1450 os        1 A42     -0.296900
     20 C20         3.6070    1.9660    9.3400 c3        1 A42      0.232700
     21 O21        -0.7340    0.1540   10.6940 os        1 A42     -0.295900
     22 C22        -0.1010    0.7860   11.8080 c3        1 A42      0.208700
     23 Cl1        -2.1760   -1.1910    8.4960 cl        1 A42     -0.001400
     24 H3          3.0700   -0.0120    1.0680 h4        1 A42     -0.003900
     25 H6         -1.7500    0.1820    1.0360 h4        1 A42      0.000100
     26 HN9         2.9720   -0.0390    3.3800 hn        1 A42      0.174500
     27 HN12        2.9750    0.3870    5.7720 hn        1 A42      0.164500
     28 H14        -0.1640   -0.8820    6.2350 ha        1 A42      0.179000
     29 H17         1.7260    1.4560   10.0720 ha        1 A42      0.149000
     30 H201        3.4410    3.0240    9.5000 h1        1 A42     -0.001967
     31 H202        3.3520    1.5300   10.2990 h1        1 A42     -0.001967
     32 H203        4.6830    1.8470    9.3660 h1        1 A42     -0.001967
     33 H221        0.5080    0.1540   12.4430 h1        1 A42      0.012367
     34 H222       -0.1170    1.8410   11.5630 h1        1 A42      0.012367
     35 H223       -0.9610    0.8660   12.4620 h1        1 A42      0.012367
@<TRIPOS>BOND
     1    1    2 ar  
     2    1    6 ar  
     3    1    7 1   
     4    2    3 ar  
     5    3    4 ar  
     6    3   24 1   
     7    4    5 ar  
     8    4    9 1   
     9    5    6 ar  
    10    6   25 1   
    11    7    8 3   
    12    9   10 1   
    13    9   26 1   
    14   10   11 2   
    15   10   12 1   
    16   12   13 1   
    17   12   27 1   
    18   13   14 ar  
    19   13   18 ar  
    20   14   15 ar  
    21   14   28 1   
    22   15   16 ar  
    23   15   23 1   
    24   16   17 ar  
    25   16   21 1   
    26   17   18 ar  
    27   17   29 1   
    28   18   19 1   
    29   19   20 1   
    30   20   30 1   
    31   20   31 1   
    32   20   32 1   
    33   21   22 1   
    34   22   33 1   
    35   22   34 1   
    36   22   35 1   
@<TRIPOS>SUBSTRUCTURE
     1 A42         1 TEMP              0 ****  ****    0 ROOT
