@<TRIPOS>MOLECULE
A42
   35    31     1     0     0
SMALL
bcc


@<TRIPOS>ATOM
      1 C1          2.0230    5.5820   -1.3760 c1        1 A42     -0.045000
      2 N2          2.5860    4.8990   -2.4070 n1        1 A42     -0.041000
      3 C3          2.2700    3.5820   -2.6020 c1        1 A42     -0.161000
      4 C4          1.3710    2.9490   -1.7420 c1        1 A42      0.121000
      5 N5          0.8100    3.6420   -0.7110 n1        1 A42     -0.124000
      6 C6          1.1210    4.9370   -0.5180 c1        1 A42     -0.034000
      7 C7          2.3080    7.0640   -1.1880 c1        1 A42     -0.078000
      8 N8          2.5180    8.1780   -1.0410 n1        1 A42     -0.013000
      9 N9          0.9560    1.5460   -2.0070 n         1 A42     -0.329000
     10 C10         0.2450    0.8130   -1.0230 c2        1 A42      0.406000
     11 O11        -0.0210    1.3120    0.0100 o         1 A42     -0.314000
     12 N12        -0.1420   -0.5630   -1.2890 n         1 A42     -0.296000
     13 C13        -0.8540   -1.3130   -0.2820 c2        1 A42      0.033000
     14 C14        -1.7820   -0.6770    0.5140 c2        1 A42     -0.091000
     15 C15        -2.4830   -1.3920    1.4690 c1        1 A42     -0.092000
     16 C16        -2.2490   -2.7570    1.6270 c2        1 A42      0.074000
     17 C17        -1.3060   -3.4040    0.8190 c1        1 A42     -0.189000
     18 C18        -0.6140   -2.6900   -0.1270 c1        1 A42      0.052000
     19 O19         0.3720   -3.3400   -0.9410 os        1 A42     -0.233000
     20 C20         1.6870   -3.3140   -0.3890 c3        1 A42     -0.072000
     21 O21        -3.0680   -3.5140    2.5100 os        1 A42     -0.219000
     22 C22        -2.4250   -3.8740    3.7400 c3        1 A42     -0.074000
     23 CL1        -3.7520   -0.6110    2.3920 cl        1 A42      0.010000
     24 H3          2.6740    3.0830   -3.3440 ha        1 A42      0.177000
     25 H6          0.6970    5.4550    0.2580 ha        1 A42      0.188000
     26 HN9         1.0990    1.1730   -2.8400 hn        1 A42      0.242000
     27 HN12       -0.0600   -0.9070   -2.1500 hn        1 A42      0.234000
     28 H14        -1.9560    0.3440    0.3960 ha        1 A42      0.189000
     29 H17        -1.1380   -4.3710    0.9280 ha        1 A42      0.158000
     30 H201        2.2900   -3.9070   -0.9330 h1        1 A42      0.089000
     31 H202        2.0180   -2.4270   -0.4040 h1        1 A42      0.089000
     32 H203        1.6590   -3.6390    0.5400 h1        1 A42      0.089000
     33 H221       -2.9300   -3.4340    4.5390 h1        1 A42      0.084667
     34 H222       -2.4410   -4.8680    3.8430 h1        1 A42      0.084667
     35 H223       -1.4800   -3.5560    3.7290 h1        1 A42      0.084667
@<TRIPOS>BOND
     1    1    6 1   
     2    1    7 1   
     3    2    3 1   
     4    3   24 1   
     5    4    5 1   
     6    4    9 1   
     7    6   25 1   
     8    7    8 1   
     9    9   10 1   
    10    9   26 1   
    11   10   11 1   
    12   10   12 1   
    13   12   13 1   
    14   12   27 1   
    15   13   14 1   
    16   13   18 1   
    17   14   15 1   
    18   14   28 1   
    19   15   16 1   
    20   16   17 1   
    21   16   21 1   
    22   17   29 1   
    23   18   19 1   
    24   19   20 1   
    25   20   30 1   
    26   20   31 1   
    27   20   32 1   
    28   21   22 1   
    29   22   33 1   
    30   22   34 1   
    31   22   35 1   
@<TRIPOS>SUBSTRUCTURE
     1 A42         1 TEMP              0 ****  ****    0 ROOT
