@<TRIPOS>MOLECULE
A42
   35    36     1     0     0
SMALL
bcc


@<TRIPOS>ATOM
      1 C1          0.3270   -0.1330   -0.2830 ca        1 A42      0.323000
      2 N2          1.3900    0.6950   -0.0730 nb        1 A42     -0.567000
      3 C3          1.7520    0.8990    1.1950 ca        1 A42      0.236900
      4 C4          1.0620    0.2820    2.3120 ca        1 A42      0.465900
      5 N5          0.0100   -0.5660    2.0850 nb        1 A42     -0.651000
      6 C6         -0.3460   -0.7540    0.8050 ca        1 A42      0.366900
      7 C7         -0.1190   -0.3850   -1.6140 cg        1 A42      0.141800
      8 N8         -0.4920   -0.5990   -2.6930 n1        1 A42     -0.340800
      9 N9          1.5050    0.5720    3.6030 n         1 A42     -0.563400
     10 C10         0.7500    0.2970    4.7790 c         1 A42      0.774100
     11 O11        -0.4910    0.3720    4.7720 o         1 A42     -0.551100
     12 N12         1.4810   -0.0860    5.9260 n         1 A42     -0.433100
     13 C13         0.9340    0.0810    7.2190 ca        1 A42     -0.010400
     14 C14        -0.3780   -0.3310    7.5170 ca        1 A42     -0.063000
     15 C15        -0.8900   -0.2330    8.8110 ca        1 A42     -0.027600
     16 C16        -0.0870    0.2820    9.8480 ca        1 A42      0.157100
     17 C17         1.2220    0.7020    9.5770 ca        1 A42     -0.257000
     18 C18         1.7250    0.6120    8.2780 ca        1 A42      0.124100
     19 O19         2.9990    1.0260    7.9300 os        1 A42     -0.347900
     20 C20         3.8700    1.3770    8.9990 c3        1 A42      0.118700
     21 O21        -0.6560    0.3380   11.1020 os        1 A42     -0.307900
     22 C22         0.1350    0.9080   12.1390 c3        1 A42      0.112700
     23 CL1        -2.4830   -0.7500    9.0870 cl        1 A42     -0.061400
     24 H3          2.6110    1.5740    1.3510 h4        1 A42      0.039100
     25 H6         -1.2010   -1.4360    0.6390 h4        1 A42      0.050100
     26 HN9         2.4600    0.8370    3.6810 hn        1 A42      0.327500
     27 HN12        2.4750    0.0130    5.9010 hn        1 A42      0.314500
     28 H14        -1.0210   -0.7260    6.7080 ha        1 A42      0.189000
     29 H17         1.8480    1.1070   10.3830 ha        1 A42      0.149000
     30 H201        3.9730    0.5330    9.7230 h1        1 A42      0.048700
     31 H202        3.5040    2.2980    9.5140 h1        1 A42      0.048700
     32 H203        4.8440    1.5770    8.4830 h1        1 A42      0.048700
     33 H221        1.0530    0.2980   12.3160 h1        1 A42      0.047367
     34 H222       -0.5450    0.8650   13.0290 h1        1 A42      0.047367
     35 H223        0.4020    1.9660   11.8990 h1        1 A42      0.047367
@<TRIPOS>BOND
     1    1    2 ar  
     2    1    6 ar  
     3    1    7 1   
     4    2    3 ar  
     5    3    4 ar  
     6    3   24 1   
     7    4    5 ar  
     8    4    9 1   
     9    5    6 ar  
    10    6   25 1   
    11    7    8 3   
    12    9   10 1   
    13    9   26 1   
    14   10   11 2   
    15   10   12 1   
    16   12   13 1   
    17   12   27 1   
    18   13   14 ar  
    19   13   18 ar  
    20   14   15 ar  
    21   14   28 1   
    22   15   16 ar  
    23   15   23 1   
    24   16   17 ar  
    25   16   21 1   
    26   17   18 ar  
    27   17   29 1   
    28   18   19 1   
    29   19   20 1   
    30   20   30 1   
    31   20   31 1   
    32   20   32 1   
    33   21   22 1   
    34   22   33 1   
    35   22   34 1   
    36   22   35 1   
@<TRIPOS>SUBSTRUCTURE
     1 A42         1 TEMP              0 ****  ****    0 ROOT
