@<TRIPOS>MOLECULE
A42
   37    38     1     0     0
SMALL
bcc


@<TRIPOS>ATOM
      1 C1          2.1250   -0.7170    0.8970 ca        1 A42      0.522000
      2 N2          2.5240    0.5740    0.9440 nb        1 A42     -0.547000
      3 C3          2.1630    1.3040    2.0220 ca        1 A42      0.396900
      4 C4          1.4000    0.7190    3.0680 ca        1 A42      0.277900
      5 N5          0.9810   -0.5880    3.0340 nb        1 A42     -0.675000
      6 C6          1.3370   -1.2980    1.9660 ca        1 A42      0.368900
      7 C7          2.4690   -1.5390   -0.2130 cg        1 A42      0.053800
      8 N8          2.7500   -2.2110   -1.1200 n1        1 A42     -0.154800
      9 N9          1.0280    1.5130    4.2600 n4        1 A42     -0.612500
     10 C10        -0.3760    1.1960    4.6950 c         1 A42      0.503100
     11 O11        -1.3010    1.8970    4.3260 o         1 A42     -0.306100
     12 N12        -0.5730    0.0200    5.6050 n4        1 A42     -0.445200
     13 C13        -0.3460    0.3930    6.9930 ca        1 A42     -0.217400
     14 C14        -1.4470    0.7480    7.8120 ca        1 A42     -0.042000
     15 C15        -1.2670    1.0110    9.1570 ca        1 A42     -0.023600
     16 C16         0.0490    0.9240    9.7250 ca        1 A42      0.278100
     17 C17         1.1480    0.5990    8.9060 ca        1 A42     -0.278000
     18 C18         0.9590    0.3460    7.5520 ca        1 A42      0.215100
     19 O19         1.9760    0.0700    6.6650 os        1 A42     -0.421900
     20 C20         3.2500   -0.2950    7.2290 c3        1 A42      0.117700
     21 O21         0.1430    1.1780   11.0450 os        1 A42     -0.254900
     22 C22         1.4290    1.0810   11.6780 c3        1 A42      0.097700
     23 CL1        -2.6010    1.4200   10.0970 cl        1 A42      0.049600
     24 H3          2.5070    2.3590    2.0180 h4        1 A42      0.086100
     25 H6          1.0040   -2.3580    1.9200 h4        1 A42      0.100100
     26 HN9         1.7090    1.3230    5.0230 hn        1 A42      0.509300
     27 HN12       -1.5580   -0.2900    5.4890 hn        1 A42      0.511300
     28 H14        -2.4670    0.8070    7.3860 ha        1 A42      0.183000
     29 H17         2.1590    0.5430    9.3440 ha        1 A42      0.190000
     30 H201        3.7170    0.6000    7.7060 h1        1 A42      0.082700
     31 H202        3.1240   -1.1300    7.9600 h1        1 A42      0.082700
     32 H203        3.8340   -0.6310    6.3330 h1        1 A42      0.082700
     33 H221        2.1270    1.8380   11.2470 h1        1 A42      0.083033
     34 H222        1.1830    1.3220   12.7470 h1        1 A42      0.083033
     35 H223        1.8290    0.0430   11.5830 h1        1 A42      0.083033
     36 H92         1.0630    2.5180    4.0070 hn        1 A42      0.509300
     37 H122        0.0650   -0.7580    5.3530 hn        1 A42      0.511300
@<TRIPOS>BOND
     1    1    2 ar  
     2    1    6 ar  
     3    1    7 1   
     4    2    3 ar  
     5    3    4 ar  
     6    3   24 1   
     7    4    5 ar  
     8    4    9 1   
     9    5    6 ar  
    10    6   25 1   
    11    7    8 3   
    12    9   10 1   
    13    9   26 1   
    14    9   36 1   
    15   10   11 2   
    16   10   12 1   
    17   12   13 1   
    18   12   27 1   
    19   12   37 1   
    20   13   14 ar  
    21   13   18 ar  
    22   14   15 ar  
    23   14   28 1   
    24   15   16 ar  
    25   15   23 1   
    26   16   17 ar  
    27   16   21 1   
    28   17   18 ar  
    29   17   29 1   
    30   18   19 1   
    31   19   20 1   
    32   20   30 1   
    33   20   31 1   
    34   20   32 1   
    35   21   22 1   
    36   22   33 1   
    37   22   34 1   
    38   22   35 1   
@<TRIPOS>SUBSTRUCTURE
     1 A42         1 TEMP              0 ****  ****    0 ROOT
