@<TRIPOS>MOLECULE
A43
   35    37     1     0     0
SMALL
bcc


@<TRIPOS>ATOM
      1 P          14.5390   16.1520   49.8380 p5        1 A43      1.315900
      2 O1P        13.1220   16.0040   49.3810 o         1 A43     -0.922833
      3 O2P        14.9690   17.4540   50.4480 o         1 A43     -0.922833
      4 O3P        15.5950   15.4600   49.0090 o         1 A43     -0.922833
      5 O5'        14.5640   15.0840   51.2420 os        1 A43     -0.575200
      6 C5'        15.7430   15.1370   51.9360 c3        1 A43      0.205400
      7 C4'        16.6190   13.8730   51.7700 c3        1 A43      0.096100
      8 O4'        16.3120   12.9120   52.8120 os        1 A43     -0.437600
      9 C3'        16.4230   13.1650   50.4080 c3        1 A43      0.114500
     10 C2'        16.2420   11.6790   50.7620 c3        1 A43     -0.109400
     11 C1'        15.8640   11.6820   52.2590 c3        1 A43      0.260800
     12 N9         14.4380   11.5050   52.5150 na        1 A43     -0.269000
     13 C8         13.4020   12.4610   52.3710 cc        1 A43      0.481700
     14 N7         12.1990   12.0010   52.7650 nd        1 A43     -0.601100
     15 C5         12.4250   10.6870   53.1940 ca        1 A43     -0.191200
     16 C6         11.5620    9.6690   53.6980 ca        1 A43      0.681200
     17 N6         10.2150    9.9580   53.9440 nh        1 A43     -0.925500
     18 N1         12.0800    8.4350   53.9950 nb        1 A43     -0.803000
     19 C2         13.4210    8.2680   53.8210 ca        1 A43      0.629900
     20 N3         14.3590    9.1290   53.3720 nb        1 A43     -0.720000
     21 C4         13.8460   10.3550   53.0480 ca        1 A43      0.419800
     22 N          17.5040   13.4220   49.4640 n3        1 A43     -0.898800
     23 H5'1       16.3620   16.0180   51.5980 h1        1 A43      0.014200
     24 H5'2       15.5310   15.2360   53.0420 h1        1 A43      0.014200
     25 H4'        17.6940   14.1390   51.9650 h1        1 A43      0.033700
     26 H3'        15.4430   13.5760   49.9780 h1        1 A43      0.142700
     27 H2'1       15.4610   11.2130   50.1190 hc        1 A43      0.045200
     28 H2'2       17.1880   11.0960   50.6440 hc        1 A43      0.045200
     29 H1'        16.3990   10.8680   52.8320 h2        1 A43      0.066700
     30 H8         13.6230   13.4850   51.9550 h5        1 A43      0.185800
     31 H6N1        9.8840   10.7610   53.4550 hn        1 A43      0.403300
     32 H6N2        9.5960    9.1810   53.9280 hn        1 A43      0.403300
     33 H2         13.7950    7.2590   54.0880 h5        1 A43      0.021100
     34 HN1        17.1730   13.1270   48.5600 hn        1 A43      0.358300
     35 HN2        17.5850   14.4300   49.4030 hn        1 A43      0.358300
@<TRIPOS>BOND
     1    1    2 1   
     2    1    3 1   
     3    1    4 1   
     4    1    5 1   
     5    5    6 1   
     6    6    7 1   
     7    6   23 1   
     8    6   24 1   
     9    7    8 1   
    10    7    9 1   
    11    7   25 1   
    12    8   11 1   
    13    9   10 1   
    14    9   22 1   
    15    9   26 1   
    16   10   11 1   
    17   10   27 1   
    18   10   28 1   
    19   11   12 1   
    20   11   29 1   
    21   12   13 1   
    22   12   21 1   
    23   13   14 2   
    24   13   30 1   
    25   14   15 1   
    26   15   16 ar  
    27   15   21 ar  
    28   16   17 1   
    29   16   18 ar  
    30   17   31 1   
    31   17   32 1   
    32   18   19 ar  
    33   19   20 ar  
    34   19   33 1   
    35   20   21 ar  
    36   22   34 1   
    37   22   35 1   
@<TRIPOS>SUBSTRUCTURE
     1 A43         1 TEMP              0 ****  ****    0 ROOT
