@<TRIPOS>MOLECULE
A43
   35    32     1     0     0
SMALL
bcc


@<TRIPOS>ATOM
      1 P          -2.2010   -4.0080    2.4800 p4        1 A43      1.691200
      2 O1P        -2.9380   -3.8880    3.8450 os        1 A43     -1.229000
      3 O2P        -2.9330   -5.0010    1.5960 o         1 A43     -0.940000
      4 O3P        -0.7740   -4.4900    2.7170 o         1 A43     -0.988800
      5 O5'        -2.1690   -2.6030    1.7740 os        1 A43     -0.554200
      6 C5'        -1.3510   -2.4450    0.5780 c3        1 A43      0.232400
      7 C4'        -1.6490   -1.0960   -0.0570 c3        1 A43      0.057100
      8 O4'        -0.9650   -0.1880    0.5020 os        1 A43     -0.435600
      9 C3'        -1.2070   -1.0980   -1.6300 c3        1 A43      0.160500
     10 C2'        -1.0440    0.0890   -1.9420 c3        1 A43     -0.123400
     11 C1'        -0.6560    0.8070   -0.6070 c3        1 A43      0.249800
     12 N9          0.6260    1.1020   -0.5990 n3        1 A43     -0.102400
     13 C8          1.6810    0.5700   -1.2570 c1        1 A43      0.229400
     14 N7          2.7940    1.2250   -0.8600 ne        1 A43     -0.434400
     15 C5          2.4300    2.1550    0.0360 cg        1 A43     -0.160000
     16 C6          3.1660    3.0650    0.7790 c1        1 A43      0.559600
     17 N6          4.5750    3.4170    0.6480 n3        1 A43     -0.794400
     18 N1          2.5500    3.8720    1.6610 n1        1 A43     -0.604800
     19 C2          1.1840    3.7980    1.8290 c1        1 A43      0.362300
     20 N3          0.4540    2.9040    1.1000 n1        1 A43     -0.516800
     21 C4          1.0840    2.0780    0.1980 c1        1 A43     -0.015300
     22 N          -2.2960   -1.7080   -2.4640 n3        1 A43     -0.923800
     23 H5'1       -0.3870   -2.4920    0.8260 h1        1 A43     -0.002800
     24 H5'2       -1.5630   -3.1670   -0.0640 h1        1 A43     -0.002800
     25 H4'        -2.6030   -0.8930    0.0210 h1        1 A43      0.057700
     26 H3'        -0.3660   -1.5980   -1.7480 h1        1 A43      0.107700
     27 H2'1       -1.8710    0.4580   -2.2910 hc        1 A43      0.049200
     28 H2'2       -0.3500    0.1740   -2.5790 hc        1 A43      0.049200
     29 H1'        -1.1960    1.6300   -0.4950 h2        1 A43      0.072700
     30 H8          1.6340   -0.0830   -1.9570 DU        1 A43      0.261000
     31 H6N1        5.0440    3.1530   -0.0870 hn        1 A43      0.410300
     32 H6N2        5.0120    3.8800    1.3440 hn        1 A43      0.410300
     33 H2          0.7340    4.3910    2.4750 ha        1 A43      0.106500
     34 HN1        -2.2470   -1.3930   -3.3000 hn        1 A43      0.379800
     35 HN2        -2.2000   -2.6160   -2.4730 hn        1 A43      0.379800
@<TRIPOS>BOND
     1    1    3 1   
     2    1    4 2   
     3    1    5 1   
     4    5    6 1   
     5    6    7 1   
     6    6   23 1   
     7    6   24 1   
     8    7    8 1   
     9    7    9 1   
    10    7   25 1   
    11    8   11 1   
    12    9   10 1   
    13    9   22 1   
    14    9   26 1   
    15   10   11 1   
    16   10   27 1   
    17   10   28 1   
    18   11   12 1   
    19   11   29 1   
    20   12   13 2   
    21   12   21 1   
    22   13   14 2   
    23   14   15 1   
    24   15   21 3   
    25   16   17 1   
    26   16   18 3   
    27   17   31 1   
    28   17   32 1   
    29   19   20 3   
    30   19   33 1   
    31   22   34 1   
    32   22   35 1   
@<TRIPOS>SUBSTRUCTURE
     1 A43         1 TEMP              0 ****  ****    0 ROOT
