@<TRIPOS>MOLECULE
A44
   45    41     1     0     0
SMALL
bcc


@<TRIPOS>ATOM
      1 P           2.9260   -5.3140    0.4020 p3        1 A44      2.541000
      2 OP2         4.3890   -4.9210    0.4000 o         1 A44     -1.241667
      3 OP1         2.4780   -5.5780    1.8220 o         1 A44     -1.241667
      4 O5'         2.0630   -4.1370   -0.2160 o         1 A44     -0.733000
      5 C5'         1.9050   -2.9570    0.5370 c3        1 A44      0.071000
      6 C4'         1.3090   -1.8490   -0.3570 c3        1 A44     -0.045000
      7 O4'         0.0390   -1.9000   -0.3320 os        1 A44     -0.286000
      8 C3'         1.6740   -0.4370    0.2110 c3        1 A44     -0.029000
      9 O3'         2.5740    0.1880   -0.6070 oh        1 A44     -0.399000
     10 C2'         0.3780    0.3310    0.2460 c3        1 A44     -0.005000
     11 O2'         0.5580    1.6700   -0.3970 os        1 A44     -0.287000
     12 C1'        -0.4670   -0.3960   -0.4480 c3        1 A44      0.162000
     13 N9         -1.7630   -0.2800    0.0930 n3        1 A44     -0.195000
     14 C8         -2.0460   -0.3320    1.3980 c1        1 A44      0.013000
     15 N7         -3.3990   -0.4300    1.5330 n2        1 A44     -0.177000
     16 C5         -3.9410   -0.4380    0.3010 c1        1 A44     -0.199000
     17 C6         -5.2730   -0.5210   -0.1420 c1        1 A44      0.155000
     18 N6         -6.5700   -0.3390    0.4530 n2        1 A44     -0.321000
     19 N1         -5.5440   -0.5080   -1.4550 n1        1 A44     -0.275000
     20 C2         -4.5100   -0.4120   -2.3790 c1        1 A44     -0.034000
     21 N3         -3.2210   -0.3310   -1.9520 n1        1 A44     -0.189000
     22 C4         -2.9370   -0.3450   -0.5950 c1        1 A44      0.034000
     23 CA'         1.0250    2.7050    0.5150 c3        1 A44     -0.029000
     24 CD'         3.6880    5.0440   -0.0940 c3        1 A44     -0.081000
     25 OC'         2.5560    4.5730    0.5410 os        1 A44     -0.311000
     26 CB'         1.6860    3.8530   -0.2970 c3        1 A44     -0.037000
     27 OP3         2.7380   -6.5690   -0.4270 o         1 A44     -1.241667
     28 H5'         1.2970   -3.1300    1.2940 h1        1 A44      0.040000
     29 H5''        2.7910   -2.6620    0.8830 h1        1 A44      0.040000
     30 H4'         1.6330   -1.9400   -1.2720 h1        1 A44      0.090000
     31 H3'         2.0300   -0.5180    1.0860 h1        1 A44      0.192000
     32 HO3'        3.4000    0.0410   -0.3080 ho        1 A44      0.298000
     33 H2'         0.0640    0.4330    1.1680 h1        1 A44      0.094000
     34 H1'        -0.4660   -0.1020   -1.4190 h2        1 A44      0.138000
     35 H8         -1.3890   -0.2880    2.1380 DU        1 A44      0.344000
     36 H61        -6.6540   -0.2970    1.3600 hn        1 A44      0.196500
     37 H62        -7.3110   -0.2860   -0.0760 hn        1 A44      0.196500
     38 H2         -4.7090   -0.4020   -3.3360 ha        1 A44      0.159000
     39 HCA2        1.6950    2.3170    1.1450 h1        1 A44      0.082000
     40 HCA1        0.2650    3.0590    1.0240 h1        1 A44      0.082000
     41 HCD1        3.4280    5.5220   -0.9160 h1        1 A44      0.078333
     42 HCD2        4.2640    4.3010   -0.3210 h1        1 A44      0.078333
     43 HCD3        4.1640    5.6540    0.5010 h1        1 A44      0.078333
     44 HCB1        0.9840    4.4590   -0.6440 h1        1 A44      0.097500
     45 HCB2        2.1990    3.4700   -1.0600 h1        1 A44      0.097500
@<TRIPOS>BOND
     1    1    2 1   
     2    1    3 1   
     3    1   27 1   
     4    4    5 1   
     5    5    6 1   
     6    5   28 1   
     7    5   29 1   
     8    6    7 1   
     9    6    8 1   
    10    6   30 1   
    11    7   12 1   
    12    8    9 1   
    13    8   10 1   
    14    8   31 1   
    15    9   32 1   
    16   10   11 1   
    17   10   12 1   
    18   10   33 1   
    19   11   23 1   
    20   12   13 1   
    21   12   34 1   
    22   13   14 1   
    23   13   22 1   
    24   14   15 1   
    25   15   16 1   
    26   16   22 1   
    27   17   19 1   
    28   18   36 1   
    29   18   37 1   
    30   20   21 1   
    31   20   38 1   
    32   23   26 1   
    33   23   39 1   
    34   23   40 1   
    35   24   25 1   
    36   24   41 1   
    37   24   42 1   
    38   24   43 1   
    39   25   26 1   
    40   26   44 1   
    41   26   45 1   
@<TRIPOS>SUBSTRUCTURE
     1 A44         1 TEMP              0 ****  ****    0 ROOT
