@<TRIPOS>MOLECULE
A44
   45    47     1     0     0
SMALL
bcc


@<TRIPOS>ATOM
      1 P          -3.6100   -0.0040    0.9410 p5        1 A44      1.347900
      2 OP2        -3.3930   -1.4090    1.4500 o         1 A44     -0.923833
      3 OP1        -2.4320    0.8830    1.3050 o         1 A44     -0.923833
      4 O5'        -3.2790   -0.3230   -0.7310 os        1 A44     -0.569200
      5 C5'        -2.0880    0.1040   -1.2470 c3        1 A44      0.221400
      6 C4'        -0.9850   -0.9830   -1.2070 c3        1 A44      0.067100
      7 O4'         0.2570   -0.3860   -1.6560 os        1 A44     -0.430600
      8 C3'        -0.7370   -1.5580    0.2030 c3        1 A44      0.086100
      9 O3'        -1.2160   -2.8740    0.3230 oh        1 A44     -0.656800
     10 C2'         0.7770   -1.4500    0.4390 c3        1 A44      0.105100
     11 O2'         1.5440   -2.6120    0.1190 os        1 A44     -0.433600
     12 C1'         1.2260   -0.3830   -0.6140 c3        1 A44      0.253800
     13 N9          1.3850    0.9400   -0.0300 na        1 A44     -0.279000
     14 C8          0.4500    1.7110    0.7170 cc        1 A44      0.468700
     15 N7          0.9220    2.9260    1.0500 nd        1 A44     -0.605100
     16 C5          2.2070    3.0000    0.4990 ca        1 A44     -0.189200
     17 C6          3.2010    4.0220    0.4890 ca        1 A44      0.675200
     18 N6          2.9980    5.1960    1.2240 nh        1 A44     -0.923500
     19 N1          4.3740    3.8140   -0.1910 nb        1 A44     -0.801000
     20 C2          4.5330    2.6010   -0.7910 ca        1 A44      0.628900
     21 N3          3.7010    1.5390   -0.8520 nb        1 A44     -0.716000
     22 C4          2.5160    1.7510   -0.2030 ca        1 A44      0.424800
     23 CA'         1.4600   -3.6270    1.1160 c3        1 A44      0.100400
     24 CD'         4.0280   -4.2950   -0.3360 c3        1 A44      0.116700
     25 OC'         3.2910   -5.1510    0.5210 os        1 A44     -0.448600
     26 CB'         1.8830   -4.9360    0.4610 c3        1 A44      0.125400
     27 OP3        -4.9740    0.5980    0.9640 o         1 A44     -0.923833
     28 H5'        -2.2340    0.3630   -2.3380 h1        1 A44     -0.000800
     29 H5''       -1.7090    1.0190   -0.7110 h1        1 A44     -0.000800
     30 H4'        -1.2040   -1.8030   -1.9380 h1        1 A44      0.052700
     31 H3'        -1.2760   -0.8890    0.9600 h1        1 A44      0.155700
     32 HO3'       -2.1330   -2.7730    0.6740 ho        1 A44      0.490000
     33 H2'         0.9950   -1.1440    1.4940 h1        1 A44      0.056700
     34 H1'         2.2030   -0.6710   -1.1020 h2        1 A44      0.094700
     35 H8         -0.5940    1.3270    0.9860 h5        1 A44      0.217800
     36 H61         2.0400    5.3680    1.4380 hn        1 A44      0.401300
     37 H62         3.4940    5.9960    0.9000 hn        1 A44      0.401300
     38 H2          5.5010    2.4730   -1.3160 h5        1 A44      0.022100
     39 HCA2        2.1550   -3.3610    1.9570 h1        1 A44      0.055700
     40 HCA1        0.4080   -3.7160    1.4990 h1        1 A44      0.055700
     41 HCD1        3.8310   -4.5620   -1.4040 h1        1 A44      0.031700
     42 HCD2        3.7600   -3.2240   -0.1590 h1        1 A44      0.031700
     43 HCD3        5.0990   -4.4870   -0.0770 h1        1 A44      0.031700
     44 HCB1        1.4610   -5.8010    1.0370 h1        1 A44      0.052700
     45 HCB2        1.5320   -4.9680   -0.6040 h1        1 A44      0.052700
@<TRIPOS>BOND
     1    1    2 1   
     2    1    3 1   
     3    1    4 1   
     4    1   27 1   
     5    4    5 1   
     6    5    6 1   
     7    5   28 1   
     8    5   29 1   
     9    6    7 1   
    10    6    8 1   
    11    6   30 1   
    12    7   12 1   
    13    8    9 1   
    14    8   10 1   
    15    8   31 1   
    16    9   32 1   
    17   10   11 1   
    18   10   12 1   
    19   10   33 1   
    20   11   23 1   
    21   12   13 1   
    22   12   34 1   
    23   13   14 1   
    24   13   22 1   
    25   14   15 2   
    26   14   35 1   
    27   15   16 1   
    28   16   17 ar  
    29   16   22 ar  
    30   17   18 1   
    31   17   19 ar  
    32   18   36 1   
    33   18   37 1   
    34   19   20 ar  
    35   20   21 ar  
    36   20   38 1   
    37   21   22 ar  
    38   23   26 1   
    39   23   39 1   
    40   23   40 1   
    41   24   25 1   
    42   24   41 1   
    43   24   42 1   
    44   24   43 1   
    45   25   26 1   
    46   26   44 1   
    47   26   45 1   
@<TRIPOS>SUBSTRUCTURE
     1 A44         1 TEMP              0 ****  ****    0 ROOT
