@<TRIPOS>MOLECULE
A45
   27    29     1     0     0
SMALL
bcc


@<TRIPOS>ATOM
      1 N1         -0.0630   -0.2290    0.0860 nh        1 A45     -0.912500
      2 C2          1.3450   -0.1380    0.0370 ca        1 A45      0.873900
      3 N3          1.9600    0.3630    1.2140 nb        1 A45     -0.841000
      4 C4          3.2740    0.5780    1.1750 ca        1 A45      0.756600
      5 O5          3.9340    1.0640    2.2710 oh        1 A45     -0.594300
      6 C6          4.0590    0.3000    0.0130 ca        1 A45     -0.393600
      7 N7          5.3810    0.4000   -0.3400 nc        1 A45     -0.181400
      8 N8          5.4240   -0.0530   -1.5930 na        1 A45      0.430000
      9 N9          4.2580   -0.4560   -2.1440 nc        1 A45     -0.222400
     10 C10         3.3170   -0.2510   -1.1500 ca        1 A45      0.301300
     11 N11         1.9590   -0.4810   -1.1270 nb        1 A45     -0.717000
     12 C12         6.6760   -0.1160   -2.3370 ca        1 A45     -0.047200
     13 C13         7.8470   -0.5240   -1.6690 ca        1 A45     -0.129000
     14 C14         9.0410   -0.5780   -2.3830 ca        1 A45     -0.161000
     15 C15         9.0770   -0.2350   -3.7340 ca        1 A45     -0.087000
     16 C16         7.9150    0.1690   -4.3930 ca        1 A45     -0.128600
     17 C17         6.7030    0.2290   -3.6990 ca        1 A45     -0.068000
     18 C18         7.9700    0.5550   -5.8710 c         1 A45      0.911200
     19 O19         9.0770    0.4220   -6.4610 o         1 A45     -0.818300
     20 O20         6.9120    0.9840   -6.4040 o         1 A45     -0.818300
     21 HN11       -0.4440   -0.3450    0.9990 hn        1 A45      0.409300
     22 HN12       -0.4660   -0.8210   -0.6060 hn        1 A45      0.409300
     23 HO5         3.2980    1.2320    2.9870 ho        1 A45      0.436000
     24 H13         7.8340   -0.7940   -0.6040 ha        1 A45      0.131000
     25 H14         9.9600   -0.8950   -1.8690 ha        1 A45      0.117000
     26 H15        10.0160   -0.2750   -4.3120 ha        1 A45      0.162000
     27 H17         5.8030    0.5500   -4.2520 ha        1 A45      0.183000
@<TRIPOS>BOND
     1    1    2 1   
     2    1   21 1   
     3    1   22 1   
     4    2    3 ar  
     5    2   11 ar  
     6    3    4 ar  
     7    4    5 1   
     8    4    6 ar  
     9    5   23 1   
    10    6    7 2   
    11    6   10 ar  
    12    7    8 1   
    13    8    9 1   
    14    8   12 1   
    15    9   10 2   
    16   10   11 ar  
    17   12   13 ar  
    18   12   17 ar  
    19   13   14 ar  
    20   13   24 1   
    21   14   15 ar  
    22   14   25 1   
    23   15   16 ar  
    24   15   26 1   
    25   16   17 ar  
    26   16   18 1   
    27   17   27 1   
    28   18   19 1   
    29   18   20 1   
@<TRIPOS>SUBSTRUCTURE
     1 A45         1 TEMP              0 ****  ****    0 ROOT
