@<TRIPOS>MOLECULE
A45
   27    29     1     0     0
SMALL
bcc


@<TRIPOS>ATOM
      1 N1         -2.1740    0.2860    5.3110 nh        1 A45     -0.916500
      2 C2         -1.2570    0.1570    4.2480 ca        1 A45      0.872900
      3 N3         -0.0110   -0.4320    4.6010 nb        1 A45     -0.771000
      4 C4          0.8410   -0.6790    3.6100 ca        1 A45      0.748600
      5 O5          2.0370   -1.2470    3.9730 oh        1 A45     -0.599300
      6 C6          0.5400   -0.3530    2.2490 ca        1 A45     -0.449600
      7 N7          1.1850   -0.4690    1.0420 nc        1 A45     -0.219400
      8 N8          0.3350    0.0520    0.1580 na        1 A45      0.441000
      9 N9         -0.8380    0.5180    0.6360 nc        1 A45     -0.222400
     10 C10        -0.7750    0.2830    2.0010 ca        1 A45      0.313300
     11 N11        -1.6700    0.5510    3.0110 nb        1 A45     -0.721000
     12 C12         0.6630    0.1200   -1.2600 ca        1 A45     -0.049200
     13 C13         1.9610    0.5100   -1.6430 ca        1 A45     -0.131000
     14 C14         2.2710    0.5670   -2.9990 ca        1 A45     -0.160000
     15 C15         1.3140    0.2420   -3.9600 ca        1 A45     -0.086000
     16 C16         0.0280   -0.1450   -3.5770 ca        1 A45     -0.128600
     17 C17        -0.3090   -0.2050   -2.2210 ca        1 A45     -0.066000
     18 C18        -1.0060   -0.5140   -4.6400 c         1 A45      0.911200
     19 O19        -0.6660   -0.3810   -5.8470 o         1 A45     -0.817300
     20 O20        -2.1280   -0.9310   -4.2440 o         1 A45     -0.817300
     21 HN11       -1.7700    0.3170    6.2190 hn        1 A45      0.414800
     22 HN12       -2.9130    0.9340    5.1560 hn        1 A45      0.414800
     23 HO5         2.5410   -1.4040    3.1580 ho        1 A45      0.446000
     24 H13         2.7240    0.7670   -0.8960 ha        1 A45      0.128000
     25 H14         3.2810    0.8710   -3.3060 ha        1 A45      0.118000
     26 H15         1.5460    0.2820   -5.0380 ha        1 A45      0.163000
     27 H17        -1.3360   -0.5100   -1.9540 ha        1 A45      0.184000
@<TRIPOS>BOND
     1    1    2 1   
     2    1   21 1   
     3    1   22 1   
     4    2    3 ar  
     5    2   11 ar  
     6    3    4 ar  
     7    4    5 1   
     8    4    6 ar  
     9    5   23 1   
    10    6    7 2   
    11    6   10 ar  
    12    7    8 1   
    13    8    9 1   
    14    8   12 1   
    15    9   10 2   
    16   10   11 ar  
    17   12   13 ar  
    18   12   17 ar  
    19   13   14 ar  
    20   13   24 1   
    21   14   15 ar  
    22   14   25 1   
    23   15   16 ar  
    24   15   26 1   
    25   16   17 ar  
    26   16   18 1   
    27   17   27 1   
    28   18   19 1   
    29   18   20 1   
@<TRIPOS>SUBSTRUCTURE
     1 A45         1 TEMP              0 ****  ****    0 ROOT
