@<TRIPOS>MOLECULE
A45
   27    23     1     0     0
SMALL
bcc


@<TRIPOS>ATOM
      1 N1         -5.6480    0.9300    0.5530 n3        1 A45     -0.311000
      2 C2         -4.2300    0.9120    0.6130 c2        1 A45      0.159000
      3 N3         -3.6890    0.9380    1.8670 n2        1 A45     -0.320000
      4 C4         -2.3620    0.8070    2.0310 c1        1 A45      0.265000
      5 O5         -2.0230    0.3740    3.3260 o         1 A45     -0.215000
      6 C6         -1.5410    0.6470    0.9260 c1        1 A45     -0.267000
      7 N7         -0.1940    0.4940    0.8050 n1        1 A45      0.025000
      8 N8          0.0970    0.3740   -0.5120 n3        1 A45      0.024000
      9 N9         -1.0630    0.4520   -1.2060 n2        1 A45     -0.071000
     10 C10        -2.0770    0.6210   -0.3140 c1        1 A45     -0.024000
     11 N11        -3.4240    0.7530   -0.4760 n1        1 A45     -0.201000
     12 C12         1.2400   -0.2810   -0.7670 c1        1 A45     -0.002000
     13 C13         1.2030   -1.5890   -1.2210 c1        1 A45     -0.143500
     14 C14         2.3840   -2.2670   -1.4820 c1        1 A45     -0.143500
     15 C15         3.6030   -1.6350   -1.2870 c1        1 A45     -0.087000
     16 C16         3.6400   -0.3260   -0.8320 c1        1 A45     -0.108000
     17 C17         2.4590    0.3510   -0.5720 c1        1 A45     -0.073000
     18 C18         4.9700    0.3430   -0.5620 c2        1 A45      0.360000
     19 O19         5.4520    0.3390    0.6020 o         1 A45     -0.554000
     20 O20         5.6050    0.8850   -1.5040 o         1 A45     -0.554000
     21 HN11       -6.1360    1.0390    1.3180 hn        1 A45      0.204500
     22 HN12       -6.0730    0.8250   -0.2500 hn        1 A45      0.204500
     23 HO5        -1.8140    1.0770    3.8280 ho        1 A45      0.236000
     24 H13         0.3450   -2.0340   -1.3590 ha        1 A45      0.126500
     25 H14         2.3580   -3.1880   -1.8020 ha        1 A45      0.126500
     26 H15         4.4340   -2.1120   -1.4700 ha        1 A45      0.162000
     27 H17         2.4850    1.2730   -0.2520 ha        1 A45      0.181000
@<TRIPOS>BOND
     1    1    2 1   
     2    1   21 1   
     3    1   22 1   
     4    2    3 1   
     5    2   11 1   
     6    3    4 1   
     7    4    6 1   
     8    5   23 1   
     9    6   10 1   
    10    7    8 1   
    11    8    9 1   
    12    8   12 1   
    13    9   10 1   
    14   12   17 1   
    15   13   14 1   
    16   13   24 1   
    17   14   25 1   
    18   15   16 1   
    19   15   26 1   
    20   16   18 1   
    21   17   27 1   
    22   18   19 1   
    23   18   20 1   
@<TRIPOS>SUBSTRUCTURE
     1 A45         1 TEMP              0 ****  ****    0 ROOT
