@<TRIPOS>MOLECULE
A45
   28    30     1     0     0
SMALL
bcc


@<TRIPOS>ATOM
      1 N1         -0.0650   -0.2710    0.0760 n4        1 A45     -0.811300
      2 C2          1.4210   -0.1070    0.0290 ca        1 A45      0.696900
      3 N3          1.9760    0.3610    1.2220 nb        1 A45     -0.823000
      4 C4          3.3130    0.5320    1.2190 ca        1 A45      0.780600
      5 O5          3.9670    0.9810    2.3200 oh        1 A45     -0.553300
      6 C6          4.0960    0.2500    0.0560 ca        1 A45     -0.333600
      7 N7          5.4220    0.3300   -0.2850 nc        1 A45     -0.162400
      8 N8          5.4720   -0.0860   -1.5590 na        1 A45      0.489000
      9 N9          4.3140   -0.4480   -2.1290 nc        1 A45     -0.156400
     10 C10         3.3610   -0.2490   -1.1390 ca        1 A45      0.243300
     11 N11         1.9980   -0.4290   -1.1420 nb        1 A45     -0.592000
     12 C12         6.7210   -0.1120   -2.3110 ca        1 A45     -0.092200
     13 C13         7.9330   -0.3640   -1.6360 ca        1 A45     -0.115000
     14 C14         9.1120   -0.3800   -2.3740 ca        1 A45     -0.153000
     15 C15         9.0960   -0.1490   -3.7530 ca        1 A45     -0.057000
     16 C16         7.8920    0.1020   -4.4120 ca        1 A45     -0.133600
     17 C17         6.6920    0.1210   -3.6980 ca        1 A45     -0.059000
     18 C18         7.8620    0.3690   -5.9240 c         1 A45      0.916200
     19 O19         8.9580    0.2990   -6.5350 o         1 A45     -0.800800
     20 O20         6.7390    0.6380   -6.4260 o         1 A45     -0.800800
     21 HN11       -0.4070   -0.6270   -0.8260 hn        1 A45      0.473133
     22 HN12       -0.4920    0.6400    0.2740 hn        1 A45      0.473133
     23 HO5         3.3410    1.1530    3.0480 ho        1 A45      0.458000
     24 H13         7.9650   -0.5490   -0.5530 ha        1 A45      0.138000
     25 H14        10.0640   -0.5770   -1.8600 ha        1 A45      0.134000
     26 H15        10.0250   -0.1590   -4.3500 ha        1 A45      0.177000
     27 H17         5.7670    0.3290   -4.2660 ha        1 A45      0.189000
     28 H131       -0.3030   -0.9320    0.8230 hn        1 A45      0.473133
@<TRIPOS>BOND
     1    1    2 1   
     2    1   21 1   
     3    1   22 1   
     4    1   28 1   
     5    2    3 ar  
     6    2   11 ar  
     7    3    4 ar  
     8    4    5 1   
     9    4    6 ar  
    10    5   23 1   
    11    6    7 2   
    12    6   10 ar  
    13    7    8 1   
    14    8    9 1   
    15    8   12 1   
    16    9   10 2   
    17   10   11 ar  
    18   12   13 ar  
    19   12   17 ar  
    20   13   14 ar  
    21   13   24 1   
    22   14   15 ar  
    23   14   25 1   
    24   15   16 ar  
    25   15   26 1   
    26   16   17 ar  
    27   16   18 1   
    28   17   27 1   
    29   18   19 1   
    30   18   20 1   
@<TRIPOS>SUBSTRUCTURE
     1 A45         1 TEMP              0 ****  ****    0 ROOT
