@<TRIPOS>MOLECULE
A45
   27    29     1     0     0
SMALL
bcc


@<TRIPOS>ATOM
      1 N1         -0.0090    0.6530    0.2010 nv        1 A45     -0.910500
      2 C2          1.3550    0.3080    0.0640 ca        1 A45      0.871900
      3 N3          1.9460   -0.2860    1.2090 nb        1 A45     -0.841000
      4 C4          3.2570   -0.5210    1.1690 ca        1 A45      0.756600
      5 O5          3.8970   -1.0840    2.2410 oh        1 A45     -0.594300
      6 C6          4.0530   -0.2180    0.0220 ca        1 A45     -0.393600
      7 N7          5.3720   -0.3430   -0.3330 nc        1 A45     -0.180400
      8 N8          5.4260    0.1280   -1.5790 na        1 A45      0.429000
      9 N9          4.2700    0.5690   -2.1230 nc        1 A45     -0.222400
     10 C10         3.3250    0.3720   -1.1310 ca        1 A45      0.300300
     11 N11         1.9710    0.6250   -1.1070 nb        1 A45     -0.715000
     12 C12         6.6760    0.1630   -2.3260 ca        1 A45     -0.047200
     13 C13         7.8540    0.5670   -1.6690 ca        1 A45     -0.128000
     14 C14         9.0470    0.5910   -2.3860 ca        1 A45     -0.161000
     15 C15         9.0750    0.2200   -3.7310 ca        1 A45     -0.087000
     16 C16         7.9060   -0.1810   -4.3790 ca        1 A45     -0.128600
     17 C17         6.6950   -0.2080   -3.6810 ca        1 A45     -0.068000
     18 C18         7.9520   -0.6010   -5.8480 c         1 A45      0.911200
     19 O19         9.0580   -0.4920   -6.4460 o         1 A45     -0.818800
     20 O20         6.8880   -1.0340   -6.3660 o         1 A45     -0.818800
     21 HN11       -0.5130    0.1000    0.8580 hn        1 A45      0.407800
     22 HN12       -0.4870    0.7940   -0.6630 hn        1 A45      0.407800
     23 HO5         3.2560   -1.2470    2.9540 ho        1 A45      0.436000
     24 H13         7.8460    0.8570   -0.6090 ha        1 A45      0.131000
     25 H14         9.9710    0.9050   -1.8810 ha        1 A45      0.118000
     26 H15        10.0130    0.2350   -4.3110 ha        1 A45      0.162000
     27 H17         5.7890   -0.5270   -4.2260 ha        1 A45      0.182000
@<TRIPOS>BOND
     1    1    2 1   
     2    1   21 1   
     3    1   22 1   
     4    2    3 ar  
     5    2   11 ar  
     6    3    4 ar  
     7    4    5 1   
     8    4    6 ar  
     9    5   23 1   
    10    6    7 2   
    11    6   10 ar  
    12    7    8 1   
    13    8    9 1   
    14    8   12 1   
    15    9   10 2   
    16   10   11 ar  
    17   12   13 ar  
    18   12   17 ar  
    19   13   14 ar  
    20   13   24 1   
    21   14   15 ar  
    22   14   25 1   
    23   15   16 ar  
    24   15   26 1   
    25   16   17 ar  
    26   16   18 1   
    27   17   27 1   
    28   18   19 1   
    29   18   20 1   
@<TRIPOS>SUBSTRUCTURE
     1 A45         1 TEMP              0 ****  ****    0 ROOT
