@<TRIPOS>MOLECULE
A46
   38    30     1     0     0
SMALL
bcc


@<TRIPOS>ATOM
      1 C4          0.7290    0.5110    0.9010 c1        1 A46      0.078000
      2 N1         -0.0190    0.5840   -0.3400 n2        1 A46     -0.311000
      3 C6         -0.7250   -0.5380   -0.8020 c1        1 A46      0.375000
      4 C7         -1.4600   -0.4730   -2.0970 c1        1 A46     -0.087000
      5 O1         -0.7090   -1.5430   -0.1800 o         1 A46     -0.359000
      6 N2         -2.5990    0.2190   -2.3640 n2        1 A46     -0.172000
      7 C8         -1.0560   -1.1010   -3.2630 c1        1 A46     -0.149000
      8 C11        -2.9140    0.0280   -3.7010 c1        1 A46      0.017000
      9 C12        -1.9590   -0.7860   -4.2490 c1        1 A46     -0.096000
     10 C13        -3.9650    0.5000   -4.4910 c1        1 A46     -0.136000
     11 C14        -2.0400   -1.1470   -5.6100 c1        1 A46     -0.067000
     12 C15        -4.0410    0.1420   -5.8330 c1        1 A46     -0.095000
     13 C16        -3.0780   -0.6800   -6.3860 c1        1 A46     -0.091000
     14 CL1        -2.9420   -1.0520   -8.0710 cl        1 A46     -0.019000
     15 C2          2.1190    0.3760    0.8710 c2        1 A46     -0.183000
     16 C1          2.8400    0.3690    2.0540 c1        1 A46     -0.101000
     17 C5          2.1870    0.4950    3.2610 c1        1 A46     -0.109000
     18 C9          0.7820    0.6310    3.2910 c1        1 A46     -0.073000
     19 C10         0.0680    0.6380    2.1190 c1        1 A46     -0.156000
     20 C3          2.9740    0.6040    4.5280 c3        1 A46      0.079000
     21 C17         2.7890   -0.6890    5.3690 c3        1 A46     -0.058000
     22 O2          2.5220    1.7060    5.2600 oh        1 A46     -0.327000
     23 O3          3.3590   -0.5020    6.6590 oh        1 A46     -0.342000
     24 HN1        -0.0560    1.3870   -0.8160 hn        1 A46      0.236000
     25 HN2        -3.1310    0.6590   -1.7340 DU        1 A46      0.215000
     26 H8         -0.2270   -1.6060   -3.3840 DU        1 A46      0.215000
     27 H13        -4.6480    1.0820   -4.1020 ha        1 A46      0.144000
     28 H14        -1.3640   -1.7260   -6.0010 ha        1 A46      0.151000
     29 H15        -4.7650    0.4670   -6.3750 ha        1 A46      0.149000
     30 H2          2.5710    0.2920    0.0380 ha        1 A46      0.129000
     31 H1          3.8210    0.2720    2.0330 ha        1 A46      0.132000
     32 H9          0.3080    0.7240    4.1620 ha        1 A46      0.159000
     33 H10        -0.8770    0.7260    2.1390 ha        1 A46      0.174000
     34 H3          3.9160    0.7210    4.3150 h1        1 A46      0.093000
     35 H17         3.2480   -1.4610    4.9080 h1        1 A46      0.079000
     36 H17A        1.8170   -0.8870    5.4600 h1        1 A46      0.079000
     37 HO2         3.1900    2.3310    5.3190 ho        1 A46      0.220000
     38 HO3         3.3360   -1.2770    7.1130 ho        1 A46      0.208000
@<TRIPOS>BOND
     1    1   15 1   
     2    1   19 1   
     3    2    3 1   
     4    2   24 1   
     5    3    5 1   
     6    4    6 1   
     7    4    7 1   
     8    6    8 1   
     9    7    9 1   
    10    8   10 1   
    11    9   11 1   
    12   10   27 1   
    13   11   28 1   
    14   12   13 1   
    15   12   29 1   
    16   15   16 1   
    17   15   30 1   
    18   16   31 1   
    19   17   18 1   
    20   17   20 1   
    21   18   32 1   
    22   19   33 1   
    23   20   21 1   
    24   20   22 1   
    25   20   34 1   
    26   21   23 1   
    27   21   35 1   
    28   21   36 1   
    29   22   37 1   
    30   23   38 1   
@<TRIPOS>SUBSTRUCTURE
     1 A46         1 TEMP              0 ****  ****    0 ROOT
