@<TRIPOS>MOLECULE
A46
   38    40     1     0     0
SMALL
bcc


@<TRIPOS>ATOM
      1 C4         -0.1200   -0.3460    0.1050 ca        1 A46      0.068600
      2 N1         -0.8710   -0.4140   -1.0810 ns        1 A46     -0.469100
      3 C6         -2.2390   -0.6520   -1.1740 c         1 A46      0.696300
      4 C7         -2.8000   -0.7210   -2.5470 cc        1 A46     -0.154300
      5 O1         -2.9800   -0.7970   -0.1870 o         1 A46     -0.564100
      6 N2         -2.3060    0.0230   -3.6430 na        1 A46     -0.175400
      7 C8         -3.8500   -1.5420   -2.9510 cd        1 A46     -0.086200
      8 C11        -3.1260   -0.2620   -4.7410 ca        1 A46     -0.035200
      9 C12        -4.0800   -1.2760   -4.3530 ca        1 A46     -0.108800
     10 C13        -3.0970    0.2350   -6.0550 ca        1 A46     -0.138000
     11 C14        -4.9780   -1.7840   -5.2930 ca        1 A46     -0.064000
     12 C15        -4.0040   -0.2820   -6.9650 ca        1 A46     -0.094000
     13 C16        -4.9290   -1.2790   -6.5870 ca        1 A46     -0.011600
     14 Cl1        -6.0120   -1.8720   -7.7590 cl        1 A46     -0.094400
     15 C2          1.2890   -0.4690    0.0210 ca        1 A46     -0.166000
     16 C1          2.0740   -0.3630    1.1610 ca        1 A46     -0.092000
     17 C5          1.4910   -0.1410    2.4120 ca        1 A46     -0.155300
     18 C9          0.1020   -0.0230    2.5020 ca        1 A46     -0.092000
     19 C10        -0.7030   -0.1190    1.3710 ca        1 A46     -0.166000
     20 C3          2.3540   -0.0410    3.6310 c3        1 A46      0.148400
     21 C17         2.5770   -1.4230    4.2670 c3        1 A46      0.141400
     22 O2          1.7630    0.7530    4.6550 oh        1 A46     -0.609800
     23 O3          3.5010   -1.3430    5.3300 oh        1 A46     -0.599800
     24 HN1        -0.3330   -0.5200   -1.9140 hn        1 A46      0.320500
     25 HN2        -1.8190    0.8770   -3.5390 hn        1 A46      0.295700
     26 H8         -4.3940   -2.2480   -2.3280 ha        1 A46      0.177000
     27 H13        -2.3770    1.0090   -6.3540 ha        1 A46      0.142000
     28 H14        -5.7010   -2.5630   -5.0070 ha        1 A46      0.155000
     29 H15        -4.0060    0.0900   -8.0010 ha        1 A46      0.150000
     30 H2          1.7770   -0.6500   -0.9490 ha        1 A46      0.152500
     31 H1          3.1670   -0.4600    1.0760 ha        1 A46      0.142500
     32 H9         -0.3630    0.1460    3.4870 ha        1 A46      0.142500
     33 H10        -1.7960   -0.0270    1.4790 ha        1 A46      0.152500
     34 H3          3.3530    0.4070    3.3590 h1        1 A46      0.052700
     35 H17         1.5990   -1.8370    4.6270 h1        1 A46      0.056700
     36 H17A        3.0430   -2.1160    3.5190 h1        1 A46      0.056700
     37 HO2         1.5580    1.6110    4.2640 ho        1 A46      0.411000
     38 HO3         3.1430   -0.7110    5.9680 ho        1 A46      0.415000
@<TRIPOS>BOND
     1    1    2 1   
     2    1   15 ar  
     3    1   19 ar  
     4    2    3 1   
     5    2   24 1   
     6    3    4 1   
     7    3    5 2   
     8    4    6 1   
     9    4    7 2   
    10    6    8 1   
    11    6   25 1   
    12    7    9 1   
    13    7   26 1   
    14    8    9 ar  
    15    8   10 ar  
    16    9   11 ar  
    17   10   12 ar  
    18   10   27 1   
    19   11   13 ar  
    20   11   28 1   
    21   12   13 ar  
    22   12   29 1   
    23   13   14 1   
    24   15   16 ar  
    25   15   30 1   
    26   16   17 ar  
    27   16   31 1   
    28   17   18 ar  
    29   17   20 1   
    30   18   19 ar  
    31   18   32 1   
    32   19   33 1   
    33   20   21 1   
    34   20   22 1   
    35   20   34 1   
    36   21   23 1   
    37   21   35 1   
    38   21   36 1   
    39   22   37 1   
    40   23   38 1   
@<TRIPOS>SUBSTRUCTURE
     1 A46         1 TEMP              0 ****  ****    0 ROOT
