@<TRIPOS>MOLECULE
A46
   39    41     1     0     0
SMALL
bcc


@<TRIPOS>ATOM
      1 C4         -0.1400    0.2690    0.0620 ca        1 A46     -0.056400
      2 N1         -0.9660    0.4230   -1.1360 n4        1 A46     -0.538200
      3 C6         -2.1510   -0.5390   -1.2160 c         1 A46      0.581300
      4 C7         -2.7430   -0.6580   -2.5290 cc        1 A46     -0.276300
      5 O1         -2.4700   -1.1280   -0.1940 o         1 A46     -0.404100
      6 N2         -2.5440    0.2750   -3.6010 na        1 A46     -0.163400
      7 C8         -3.4520   -1.7830   -2.9670 cd        1 A46      0.047800
      8 C11        -3.2600   -0.2620   -4.7010 ca        1 A46     -0.021200
      9 C12        -3.7900   -1.5570   -4.3510 ca        1 A46     -0.137800
     10 C13        -3.4360    0.2600   -5.9890 ca        1 A46     -0.134000
     11 C14        -4.4740   -2.3200   -5.2990 ca        1 A46     -0.045000
     12 C15        -4.1240   -0.5140   -6.9140 ca        1 A46     -0.055000
     13 C16        -4.6350   -1.7860   -6.5750 ca        1 A46     -0.002600
     14 CL1        -5.4610   -2.6760   -7.7550 cl        1 A46     -0.039400
     15 C2          0.9840   -0.5770    0.0270 ca        1 A46     -0.096000
     16 C1          1.7770   -0.6990    1.1630 ca        1 A46     -0.094500
     17 C5          1.4630    0.0040    2.3340 ca        1 A46     -0.022300
     18 C9          0.3380    0.8380    2.3600 ca        1 A46     -0.094500
     19 C10        -0.4680    0.9750    1.2330 ca        1 A46     -0.096000
     20 C3          2.3530   -0.1340    3.5330 c3        1 A46      0.177400
     21 C17         2.2070   -1.5300    4.1630 c3        1 A46      0.099400
     22 O2          1.9980    0.8700    4.4730 oh        1 A46     -0.604800
     23 O3          3.1230   -1.5450    5.2430 oh        1 A46     -0.606800
     24 HN1        -1.3290    1.3820   -1.1620 hn        1 A46      0.460800
     25 HN2        -2.6890    1.2420   -3.4040 hn        1 A46      0.269700
     26 H8         -3.6840   -2.6750   -2.3810 ha        1 A46      0.191000
     27 H13        -3.0390    1.2470   -6.2670 ha        1 A46      0.161000
     28 H14        -4.8700   -3.3140   -5.0390 ha        1 A46      0.172000
     29 H15        -4.2760   -0.1270   -7.9370 ha        1 A46      0.172000
     30 H2          1.2500   -1.1410   -0.8810 ha        1 A46      0.153500
     31 H1          2.6650   -1.3530    1.1350 ha        1 A46      0.179000
     32 H9          0.0970    1.3950    3.2830 ha        1 A46      0.179000
     33 H10        -1.3520    1.6310    1.2800 ha        1 A46      0.153500
     34 H3          3.4280    0.0190    3.2210 h1        1 A46      0.075700
     35 H17         1.1600   -1.6860    4.5330 h1        1 A46      0.042700
     36 H17A        2.4710   -2.3240    3.4160 h1        1 A46      0.042700
     37 HO2         2.5200    0.6960    5.2700 ho        1 A46      0.444000
     38 HO3         2.9760   -2.3650    5.7310 ho        1 A46      0.425000
     39 H12        -0.3760    0.2730   -1.9650 hn        1 A46      0.460800
@<TRIPOS>BOND
     1    1    2 1   
     2    1   15 ar  
     3    1   19 ar  
     4    2    3 1   
     5    2   24 1   
     6    2   39 1   
     7    3    4 1   
     8    3    5 2   
     9    4    6 1   
    10    4    7 2   
    11    6    8 1   
    12    6   25 1   
    13    7    9 1   
    14    7   26 1   
    15    8    9 ar  
    16    8   10 ar  
    17    9   11 ar  
    18   10   12 ar  
    19   10   27 1   
    20   11   13 ar  
    21   11   28 1   
    22   12   13 ar  
    23   12   29 1   
    24   13   14 1   
    25   15   16 ar  
    26   15   30 1   
    27   16   17 ar  
    28   16   31 1   
    29   17   18 ar  
    30   17   20 1   
    31   18   19 ar  
    32   18   32 1   
    33   19   33 1   
    34   20   21 1   
    35   20   22 1   
    36   20   34 1   
    37   21   23 1   
    38   21   35 1   
    39   21   36 1   
    40   22   37 1   
    41   23   38 1   
@<TRIPOS>SUBSTRUCTURE
     1 A46         1 TEMP              0 ****  ****    0 ROOT
