@<TRIPOS>MOLECULE
A46
   38    40     1     0     0
SMALL
bcc


@<TRIPOS>ATOM
      1 C4          2.1400   -0.3780   -0.0340 ca        1 A46      0.066600
      2 N1          0.7360   -0.4540   -0.0170 n         1 A46     -0.469100
      3 C6         -0.1430    0.5970   -0.2570 c         1 A46      0.696300
      4 C7         -1.5890    0.2790   -0.1470 cc        1 A46     -0.152300
      5 O1          0.2250    1.7460   -0.5580 o         1 A46     -0.567100
      6 N2         -2.1510   -0.9790   -0.4630 na        1 A46     -0.175400
      7 C8         -2.5760    1.1510    0.3100 cd        1 A46     -0.088200
      8 C11        -3.5360   -0.8690   -0.2940 ca        1 A46     -0.034200
      9 C12        -3.8340    0.4430    0.2340 ca        1 A46     -0.108800
     10 C13        -4.5580   -1.8090   -0.5070 ca        1 A46     -0.138000
     11 C14        -5.1490    0.7840    0.5520 ca        1 A46     -0.064000
     12 C15        -5.8550   -1.4420   -0.1890 ca        1 A46     -0.094000
     13 C16        -6.1430   -0.1630    0.3350 ca        1 A46     -0.011600
     14 CL1        -7.7600    0.2200    0.7070 cl        1 A46     -0.094400
     15 C2          2.8820   -1.3980    0.6080 ca        1 A46     -0.163500
     16 C1          4.2710   -1.3870    0.5750 ca        1 A46     -0.092000
     17 C5          4.9630   -0.3670   -0.0840 ca        1 A46     -0.136300
     18 C9          4.2340    0.6460   -0.7130 ca        1 A46     -0.092000
     19 C10         2.8430    0.6500   -0.6990 ca        1 A46     -0.163500
     20 C3          6.4620   -0.3700   -0.1030 c3        1 A46      0.185400
     21 C17         7.0370    0.8220    0.6850 c3        1 A46      0.099400
     22 O2          6.9850   -0.3630   -1.4210 oh        1 A46     -0.586800
     23 O3          7.3680    0.3380    1.9750 oh        1 A46     -0.596800
     24 HN1         0.3650   -1.2700    0.4200 hn        1 A46      0.320500
     25 HN2        -1.7290   -1.6170   -1.0890 hn        1 A46      0.296700
     26 H8         -2.4260    2.1710    0.6560 ha        1 A46      0.176000
     27 H13        -4.3380   -2.8060   -0.9110 ha        1 A46      0.142000
     28 H14        -5.3820    1.7780    0.9620 ha        1 A46      0.155000
     29 H15        -6.6770   -2.1570   -0.3470 ha        1 A46      0.149000
     30 H2          2.3680   -2.2140    1.1400 ha        1 A46      0.151000
     31 H1          4.8310   -2.1900    1.0800 ha        1 A46      0.135500
     32 H9          4.7620    1.4630   -1.2300 ha        1 A46      0.135500
     33 H10         2.3010    1.4660   -1.2030 ha        1 A46      0.151000
     34 H3          6.8640   -1.3290    0.3410 h1        1 A46      0.101700
     35 H17         7.9610    1.1990    0.1690 h1        1 A46      0.033200
     36 H17A        6.2890    1.6550    0.7610 h1        1 A46      0.033200
     37 HO2         6.5710    0.3650   -1.8990 ho        1 A46      0.398000
     38 HO3         7.6870    1.0950    2.4790 ho        1 A46      0.404000
@<TRIPOS>BOND
     1    1    2 1   
     2    1   15 ar  
     3    1   19 ar  
     4    2    3 1   
     5    2   24 1   
     6    3    4 1   
     7    3    5 2   
     8    4    6 1   
     9    4    7 2   
    10    6    8 1   
    11    6   25 1   
    12    7    9 1   
    13    7   26 1   
    14    8    9 ar  
    15    8   10 ar  
    16    9   11 ar  
    17   10   12 ar  
    18   10   27 1   
    19   11   13 ar  
    20   11   28 1   
    21   12   13 ar  
    22   12   29 1   
    23   13   14 1   
    24   15   16 ar  
    25   15   30 1   
    26   16   17 ar  
    27   16   31 1   
    28   17   18 ar  
    29   17   20 1   
    30   18   19 ar  
    31   18   32 1   
    32   19   33 1   
    33   20   21 1   
    34   20   22 1   
    35   20   34 1   
    36   21   23 1   
    37   21   35 1   
    38   21   36 1   
    39   22   37 1   
    40   23   38 1   
@<TRIPOS>SUBSTRUCTURE
     1 A46         1 TEMP              0 ****  ****    0 ROOT
