@<TRIPOS>MOLECULE
A46
   38    40     1     0     0
SMALL
bcc


@<TRIPOS>ATOM
      1 C4         -0.1200   -0.3470    0.1050 ca        1 A46      0.068600
      2 N1         -0.8700   -0.4170   -1.0820 n         1 A46     -0.469100
      3 C6         -2.2400   -0.6460   -1.1750 c         1 A46      0.696300
      4 C7         -2.7990   -0.7180   -2.5490 cc        1 A46     -0.154300
      5 O1         -2.9820   -0.7800   -0.1880 o         1 A46     -0.564100
      6 N2         -2.2970    0.0160   -3.6480 na        1 A46     -0.175400
      7 C8         -3.8560   -1.5330   -2.9490 cd        1 A46     -0.086200
      8 C11        -3.1190   -0.2690   -4.7460 ca        1 A46     -0.035200
      9 C12        -4.0820   -1.2730   -4.3530 ca        1 A46     -0.108800
     10 C13        -3.0850    0.2200   -6.0620 ca        1 A46     -0.138000
     11 C14        -4.9830   -1.7790   -5.2900 ca        1 A46     -0.064000
     12 C15        -3.9950   -0.2950   -6.9700 ca        1 A46     -0.094000
     13 C16        -4.9290   -1.2820   -6.5870 ca        1 A46     -0.011600
     14 CL1        -6.0150   -1.8730   -7.7570 cl        1 A46     -0.094400
     15 C2          1.2880   -0.4790    0.0230 ca        1 A46     -0.166500
     16 C1          2.0730   -0.3720    1.1630 ca        1 A46     -0.092000
     17 C5          1.4900   -0.1400    2.4130 ca        1 A46     -0.155300
     18 C9          0.1020   -0.0140    2.5000 ca        1 A46     -0.092000
     19 C10        -0.7020   -0.1110    1.3690 ca        1 A46     -0.166500
     20 C3          2.3520   -0.0390    3.6320 c3        1 A46      0.148400
     21 C17         2.5670   -1.4190    4.2760 c3        1 A46      0.141400
     22 O2          1.7660    0.7640    4.6510 oh        1 A46     -0.609800
     23 O3          3.4900   -1.3380    5.3390 oh        1 A46     -0.599800
     24 HN1        -0.3310   -0.5320   -1.9130 hn        1 A46      0.320500
     25 HN2        -1.8040    0.8660   -3.5480 hn        1 A46      0.295700
     26 H8         -4.4060   -2.2310   -2.3220 ha        1 A46      0.177000
     27 H13        -2.3580    0.9860   -6.3640 ha        1 A46      0.142000
     28 H14        -5.7120   -2.5500   -5.0010 ha        1 A46      0.155000
     29 H15        -3.9930    0.0710   -8.0090 ha        1 A46      0.150000
     30 H2          1.7770   -0.6680   -0.9450 ha        1 A46      0.152500
     31 H1          3.1660   -0.4760    1.0800 ha        1 A46      0.142500
     32 H9         -0.3630    0.1630    3.4840 ha        1 A46      0.142500
     33 H10        -1.7950   -0.0110    1.4750 ha        1 A46      0.152500
     34 H3          3.3550    0.4020    3.3580 h1        1 A46      0.052700
     35 H17         3.0290   -2.1190    3.5320 h1        1 A46      0.056700
     36 H17A        1.5850   -1.8250    4.6370 h1        1 A46      0.056700
     37 HO2         1.5660    1.6210    4.2560 ho        1 A46      0.411000
     38 HO3         3.1350   -0.7020    5.9740 ho        1 A46      0.415000
@<TRIPOS>BOND
     1    1    2 1   
     2    1   15 ar  
     3    1   19 ar  
     4    2    3 1   
     5    2   24 1   
     6    3    4 1   
     7    3    5 2   
     8    4    6 1   
     9    4    7 2   
    10    6    8 1   
    11    6   25 1   
    12    7    9 1   
    13    7   26 1   
    14    8    9 ar  
    15    8   10 ar  
    16    9   11 ar  
    17   10   12 ar  
    18   10   27 1   
    19   11   13 ar  
    20   11   28 1   
    21   12   13 ar  
    22   12   29 1   
    23   13   14 1   
    24   15   16 ar  
    25   15   30 1   
    26   16   17 ar  
    27   16   31 1   
    28   17   18 ar  
    29   17   20 1   
    30   18   19 ar  
    31   18   32 1   
    32   19   33 1   
    33   20   21 1   
    34   20   22 1   
    35   20   34 1   
    36   21   23 1   
    37   21   35 1   
    38   21   36 1   
    39   22   37 1   
    40   23   38 1   
@<TRIPOS>SUBSTRUCTURE
     1 A46         1 TEMP              0 ****  ****    0 ROOT
