@<TRIPOS>MOLECULE
A47
   38    40     1     0     0
SMALL
bcc


@<TRIPOS>ATOM
      1 O3P        -4.0550    1.7590    1.5690 o         1 A47     -0.929833
      2 P          -4.7770    0.5810    0.9820 p5        1 A47      1.330900
      3 O1P        -6.2240    0.7300    0.6310 o         1 A47     -0.929833
      4 O2P        -4.3380   -0.7540    1.5510 o         1 A47     -0.929833
      5 O5'        -3.9860    0.4440   -0.5730 os        1 A47     -0.552200
      6 C5'        -2.6250    0.3730   -0.4850 c3        1 A47      0.227400
      7 C4'        -2.1400   -1.0840   -0.6790 c3        1 A47      0.051100
      8 O4'        -0.8870   -1.0910   -1.4180 os        1 A47     -0.434600
      9 C3'        -1.9110   -1.8470    0.6410 c3        1 A47      0.156100
     10 O3'        -2.8180   -2.9160    0.7770 oh        1 A47     -0.671800
     11 C2'        -0.4890   -2.4210    0.5370 c3        1 A47     -0.130400
     12 C1'         0.1510   -1.6840   -0.6580 c3        1 A47      0.253800
     13 N9          1.1170   -0.6520   -0.2670 na        1 A47     -0.259000
     14 C8          0.8420    0.6710    0.1370 cc        1 A47      0.475700
     15 N7          1.9450    1.4100    0.3690 nd        1 A47     -0.595100
     16 C5          3.0200    0.5530    0.1060 ca        1 A47     -0.175200
     17 C6          4.4340    0.7150    0.1610 ca        1 A47      0.623200
     18 N6          4.9560    1.9410    0.7140 nh        1 A47     -0.551400
     19 N1          5.2440   -0.3200   -0.1970 nb        1 A47     -0.755000
     20 C2          4.6410   -1.4860   -0.5700 ca        1 A47      0.624900
     21 N3          3.3310   -1.8010   -0.6550 nb        1 A47     -0.696000
     22 C4          2.5100   -0.7640   -0.3110 ca        1 A47      0.422800
     23 O1          6.1280    2.3470    0.1860 os        1 A47     -0.240100
     24 C1          7.2880    1.9650    0.9470 c3        1 A47      0.126700
     25 H5'1       -2.2640    0.7660    0.5100 h1        1 A47     -0.005300
     26 H5'2       -2.1550    0.9860   -1.3120 h1        1 A47     -0.005300
     27 H4'        -2.8660   -1.6360   -1.3330 h1        1 A47      0.082700
     28 H3'        -2.0120   -1.1550    1.5230 h1        1 A47      0.105700
     29 HA         -3.6640   -2.4990    1.0670 ho        1 A47      0.501000
     30 H2'1       -0.5270   -3.5140    0.3070 hc        1 A47      0.054700
     31 H2'2        0.0720   -2.2810    1.4880 hc        1 A47      0.054700
     32 H1'         0.7030   -2.3850   -1.3500 h2        1 A47      0.072700
     33 H8         -0.2080    1.0190    0.2320 h5        1 A47      0.131800
     34 H6          4.2910    2.6910    0.5200 hn        1 A47      0.416800
     35 H2          5.3430   -2.2990   -0.8480 h5        1 A47      0.032100
     36 H1C1        8.1220    2.4240    0.3590 h1        1 A47      0.038367
     37 H1C2        7.2460    2.3920    1.9770 h1        1 A47      0.038367
     38 H1C3        7.3950    0.8550    0.9880 h1        1 A47      0.038367
@<TRIPOS>BOND
     1    1    2 1   
     2    2    3 1   
     3    2    4 1   
     4    2    5 1   
     5    5    6 1   
     6    6    7 1   
     7    6   25 1   
     8    6   26 1   
     9    7    8 1   
    10    7    9 1   
    11    7   27 1   
    12    8   12 1   
    13    9   10 1   
    14    9   11 1   
    15    9   28 1   
    16   10   29 1   
    17   11   12 1   
    18   11   30 1   
    19   11   31 1   
    20   12   13 1   
    21   12   32 1   
    22   13   14 1   
    23   13   22 1   
    24   14   15 2   
    25   14   33 1   
    26   15   16 1   
    27   16   17 ar  
    28   16   22 ar  
    29   17   18 1   
    30   17   19 ar  
    31   18   23 1   
    32   18   34 1   
    33   19   20 ar  
    34   20   21 ar  
    35   20   35 1   
    36   21   22 ar  
    37   23   24 1   
    38   24   36 1   
    39   24   37 1   
    40   24   38 1   
@<TRIPOS>SUBSTRUCTURE
     1 A47         1 TEMP              0 ****  ****    0 ROOT
