@<TRIPOS>MOLECULE
A47
   38    35     1     0     0
SMALL
bcc


@<TRIPOS>ATOM
      1 O3P        -5.6300   -2.2730    2.5210 o         1 A47     -0.910000
      2 P          -4.1850   -2.3040    1.9460 p4        1 A47      1.693200
      3 O1P        -3.3560   -3.3850    2.6930 os        1 A47     -1.266000
      4 O2P        -4.2350   -2.6330    0.4970 o         1 A47     -0.958800
      5 O5'        -3.4720   -0.8190    2.1520 os        1 A47     -0.578200
      6 C5'        -2.1020   -0.6780    1.8220 c3        1 A47      0.203400
      7 C4'        -1.4310    0.2470    2.8290 c3        1 A47      0.063100
      8 O4'         0.1630    0.2140    2.6260 os        1 A47     -0.437600
      9 C3'        -1.7940    1.4540    2.6260 c3        1 A47      0.124100
     10 O3'        -1.7940    2.2010    3.8930 oh        1 A47     -0.663800
     11 C2'        -0.7220    2.0400    1.6590 c3        1 A47     -0.119400
     12 C1'         0.4180    1.0180    1.6460 c3        1 A47      0.257800
     13 N9          0.4280    0.2930    0.3970 n3        1 A47     -0.113400
     14 C8          1.0610   -0.9140    0.5160 c1        1 A47      0.256400
     15 N7          1.7610   -1.1130   -0.5770 ne        1 A47     -0.449400
     16 C5          1.5760   -0.0200   -1.4110 cg        1 A47     -0.121000
     17 C6          2.0560    0.2730   -2.6990 c1        1 A47      0.471600
     18 N6          3.0270   -0.6640   -3.2250 n3        1 A47     -0.415300
     19 N1          1.6870    1.4120   -3.3110 n1        1 A47     -0.555800
     20 C2          0.8540    2.2770   -2.6880 c1        1 A47      0.336300
     21 N3          0.3870    1.9950   -1.4360 n1        1 A47     -0.502800
     22 C4          0.7630    0.8250   -0.8030 c1        1 A47     -0.030300
     23 O1          3.3370   -0.6510   -4.5660 os        1 A47     -0.240100
     24 C1          4.1290   -1.7500   -4.8780 c3        1 A47      0.127700
     25 H5'1       -2.0240   -0.3090    0.9530 h1        1 A47      0.015700
     26 H5'2       -1.6560   -1.5780    1.8430 h1        1 A47      0.015700
     27 H4'        -1.6520   -0.0140    3.7060 h1        1 A47      0.042700
     28 H3'        -2.6810    1.4830    2.2080 h1        1 A47      0.153700
     29 HA         -2.4330    2.7370    3.9010 ho        1 A47      0.484000
     30 H2'1       -1.1110    2.1510    0.7270 hc        1 A47      0.051700
     31 H2'2       -0.4140    2.8570    1.9810 hc        1 A47      0.051700
     32 H1'         1.2980    1.4740    1.7890 h2        1 A47      0.069700
     33 H8          0.9080   -1.6260    1.2960 DU        1 A47      0.317000
     34 H6          3.4140   -1.2850   -2.6690 hn        1 A47      0.418800
     35 H2          0.5350    3.1460   -3.1820 ha        1 A47      0.105500
     36 H1C1        5.0090   -1.4910   -4.9250 h1        1 A47      0.036033
     37 H1C2        3.8600   -2.1060   -5.7160 h1        1 A47      0.036033
     38 H1C3        4.0210   -2.4810   -4.1370 h1        1 A47      0.036033
@<TRIPOS>BOND
     1    1    2 1   
     2    2    4 2   
     3    2    5 1   
     4    5    6 1   
     5    6    7 1   
     6    6   25 1   
     7    6   26 1   
     8    7    8 1   
     9    7    9 1   
    10    7   27 1   
    11    8   12 1   
    12    9   10 1   
    13    9   11 1   
    14    9   28 1   
    15   10   29 1   
    16   11   12 1   
    17   11   30 1   
    18   11   31 1   
    19   12   13 1   
    20   12   32 1   
    21   13   14 2   
    22   13   22 1   
    23   14   15 2   
    24   15   16 1   
    25   16   22 3   
    26   17   18 1   
    27   17   19 3   
    28   18   23 1   
    29   18   34 1   
    30   20   21 3   
    31   20   35 1   
    32   23   24 1   
    33   24   36 1   
    34   24   37 1   
    35   24   38 1   
@<TRIPOS>SUBSTRUCTURE
     1 A47         1 TEMP              0 ****  ****    0 ROOT
