@<TRIPOS>MOLECULE
A49
   64    67     1     0     0
SMALL
bcc


@<TRIPOS>ATOM
      1 O1          0.6210    3.0320    1.5940 o         1 A49     -0.391100
      2 C13         1.5620    2.2810    1.7800 c         1 A49      0.604100
      3 N1          2.1320    1.6560    0.5200 n4        1 A49     -0.757400
      4 C31         2.2270    1.8890    3.0400 cx        1 A49     -0.277000
      5 C10         3.2510    2.8480    3.6350 cx        1 A49     -0.066900
      6 C12         1.9050    2.7390    4.2620 cx        1 A49     -0.066900
      7 C26         2.4760    0.4060    3.2170 c3        1 A49      0.179800
      8 N2          1.3740   -0.4370    2.7510 n3        1 A49     -0.765600
      9 C17         1.7690   -1.8470    2.7370 c3        1 A49      0.154800
     10 C16         0.6560   -2.7900    2.2800 c3        1 A49     -0.101900
     11 C19         0.1560   -0.2320    3.5340 c3        1 A49      0.154800
     12 C20        -1.0090   -1.1070    3.0780 c3        1 A49     -0.101900
     13 C14        -0.5970   -2.5840    3.1310 c3        1 A49      0.134500
     14 N12        -1.7480   -3.4940    2.7400 n4        1 A49     -0.563200
     15 C15        -1.6180   -4.8130    3.3820 cx        1 A49     -0.002500
     16 C25        -2.8450   -5.6000    3.8030 cx        1 A49     -0.097900
     17 C24        -1.9640   -4.9950    4.8490 cx        1 A49     -0.097900
     18 C11        -1.9610   -3.5570    1.2240 c         1 A49      0.591700
     19 O13        -2.3010   -2.4880    0.7330 o         1 A49     -0.438100
     20 C4         -1.8260   -4.8400    0.5270 ca        1 A49     -0.187600
     21 C3         -2.9280   -5.2800   -0.2240 ca        1 A49     -0.082500
     22 C2         -2.8280   -6.4450   -0.9810 ca        1 A49     -0.093500
     23 C5         -0.6280   -5.5640    0.5020 ca        1 A49     -0.082500
     24 C6         -0.5330   -6.7240   -0.2600 ca        1 A49     -0.093500
     25 C1         -1.6320   -7.1730   -1.0070 ca        1 A49     -0.019300
     26 C7         -1.5280   -8.4230   -1.8430 c3        1 A49      0.171100
     27 C9         -2.5930   -9.4460   -1.4760 c3        1 A49     -0.138100
     28 O10        -0.2260   -8.9530   -1.6670 oh        1 A49     -0.583800
     29 C8         -1.6750   -8.0630   -3.3910 c3        1 A49      0.596900
     30 F23        -1.3350   -9.1250   -4.1860 f         1 A49     -0.222967
     31 F21        -2.9450   -7.7130   -3.7630 f         1 A49     -0.222967
     32 F22        -0.8790   -7.0320   -3.8070 f         1 A49     -0.222967
     33 HN1         1.7290    2.1050   -0.3130 hn        1 A49      0.472467
     34 HN1A        1.9040    0.6550    0.5030 hn        1 A49      0.472467
     35 H10         4.1310    2.4050    4.1410 hc        1 A49      0.114450
     36 H10A        3.5150    3.7670    3.0770 hc        1 A49      0.114450
     37 H12         1.7920    2.2230    5.2350 hc        1 A49      0.114450
     38 H12A        1.1830    3.5730    4.1490 hc        1 A49      0.114450
     39 H26         3.3980    0.1220    2.6310 h1        1 A49      0.071200
     40 H26A        2.7100    0.2280    4.3100 h1        1 A49      0.071200
     41 H17         2.1260   -2.1830    3.7550 h1        1 A49      0.063950
     42 H17A        2.6310   -1.9580    2.0190 h1        1 A49      0.063950
     43 H16         0.4220   -2.6140    1.1960 hc        1 A49      0.081450
     44 H16A        1.0400   -3.8390    2.3940 hc        1 A49      0.081450
     45 H19        -0.1480    0.8490    3.4160 h1        1 A49      0.063950
     46 H19A        0.3380   -0.4160    4.6340 h1        1 A49      0.063950
     47 H20        -1.3220   -0.8270    2.0370 hc        1 A49      0.081450
     48 H20A       -1.8740   -0.9100    3.7650 hc        1 A49      0.081450
     49 H14        -0.3520   -2.8520    4.2060 hx        1 A49      0.108700
     50 H15        -0.7440   -5.3650    2.9690 hx        1 A49      0.141700
     51 H25        -2.8280   -6.6950    3.6330 hc        1 A49      0.111700
     52 H25A       -3.8580   -5.1820    3.6460 hc        1 A49      0.111700
     53 H24        -2.3440   -4.1420    5.4420 hc        1 A49      0.111700
     54 H24A       -1.2990   -5.6450    5.4520 hc        1 A49      0.111700
     55 H3         -3.8660   -4.7000   -0.2330 ha        1 A49      0.148000
     56 H2         -3.6930   -6.7770   -1.5850 ha        1 A49      0.186500
     57 H5          0.2590   -5.2090    1.0490 ha        1 A49      0.148000
     58 H6          0.4160   -7.2910   -0.2900 ha        1 A49      0.186500
     59 H9         -3.6140   -9.0110   -1.5960 hc        1 A49      0.075700
     60 H9A        -2.5060  -10.3370   -2.1480 hc        1 A49      0.075700
     61 H9B        -2.4500   -9.7780   -0.4200 hc        1 A49      0.075700
     62 HO10       -0.1900   -9.8000   -2.1380 ho        1 A49      0.447000
     63 H13         3.1500    1.7650    0.5050 hn        1 A49      0.472467
     64 H121       -2.6000   -3.0460    3.1180 hn        1 A49      0.451800
@<TRIPOS>BOND
     1    1    2 2   
     2    2    3 1   
     3    2    4 1   
     4    3   33 1   
     5    3   34 1   
     6    3   63 1   
     7    4    5 1   
     8    4    6 1   
     9    4    7 1   
    10    5    6 1   
    11    5   35 1   
    12    5   36 1   
    13    6   37 1   
    14    6   38 1   
    15    7    8 1   
    16    7   39 1   
    17    7   40 1   
    18    8    9 1   
    19    8   11 1   
    20    9   10 1   
    21    9   41 1   
    22    9   42 1   
    23   10   13 1   
    24   10   43 1   
    25   10   44 1   
    26   11   12 1   
    27   11   45 1   
    28   11   46 1   
    29   12   13 1   
    30   12   47 1   
    31   12   48 1   
    32   13   14 1   
    33   13   49 1   
    34   14   15 1   
    35   14   18 1   
    36   14   64 1   
    37   15   16 1   
    38   15   17 1   
    39   15   50 1   
    40   16   17 1   
    41   16   51 1   
    42   16   52 1   
    43   17   53 1   
    44   17   54 1   
    45   18   19 2   
    46   18   20 1   
    47   20   21 ar  
    48   20   23 ar  
    49   21   22 ar  
    50   21   55 1   
    51   22   25 ar  
    52   22   56 1   
    53   23   24 ar  
    54   23   57 1   
    55   24   25 ar  
    56   24   58 1   
    57   25   26 1   
    58   26   27 1   
    59   26   28 1   
    60   26   29 1   
    61   27   59 1   
    62   27   60 1   
    63   27   61 1   
    64   28   62 1   
    65   29   30 1   
    66   29   31 1   
    67   29   32 1   
@<TRIPOS>SUBSTRUCTURE
     1 A49         1 TEMP              0 ****  ****    0 ROOT
