@<TRIPOS>MOLECULE
A49
   62    62     1     0     0
SMALL
bcc


@<TRIPOS>ATOM
      1 O1          3.2760    0.7210    7.2650 o         1 A49     -0.376000
      2 C13         2.3000    0.7830    6.5370 c1        1 A49      0.336000
      3 N1          1.3570   -0.2960    6.5100 n2        1 A49     -0.405000
      4 C31         2.0680    2.0240    5.6720 cx        1 A49     -0.150000
      5 C10         0.5210    2.5150    6.2070 cx        1 A49     -0.187500
      6 C12         1.8320    3.2220    6.8710 cx        1 A49     -0.187500
      7 C26         3.0650    1.6360    4.1100 c3        1 A49     -0.032000
      8 N2          2.1950    1.0480    3.1140 n3        1 A49     -0.271000
      9 C17         1.6220    2.1140    2.2680 c3        1 A49     -0.069000
     10 C16         0.8070    1.5610    1.1030 c3        1 A49     -0.169500
     11 C19         2.9450    0.0390    2.3380 c3        1 A49     -0.069000
     12 C20         2.1350   -0.5220    1.1740 c3        1 A49     -0.169500
     13 C14         1.5610    0.5490    0.3150 c3        1 A49      0.035000
     14 N12         0.6440   -0.0690   -0.6760 n         1 A49     -0.307000
     15 C15         0.3030   -1.4710   -0.5690 cx        1 A49     -0.041000
     16 C25        -1.1820   -1.7940   -0.6080 cx        1 A49     -0.209000
     17 C24        -0.4200   -1.8800    0.7040 cx        1 A49     -0.209000
     18 C11         0.0900    0.7350   -1.7550 c2        1 A49      0.346000
     19 O13         0.3800    1.9160   -1.8420 o         1 A49     -0.354000
     20 C4         -0.7010    0.0550   -2.8880 c2        1 A49     -0.089000
     21 C3         -2.0820   -0.0900   -2.7820 c2        1 A49     -0.089000
     22 C2         -2.8150   -0.5970   -3.8540 c1        1 A49     -0.115000
     23 C5         -0.0520   -0.3080   -4.0670 c1        1 A49     -0.098000
     24 C6         -0.7850   -0.8150   -5.1390 c1        1 A49     -0.114000
     25 C1         -2.1660   -0.9590   -5.0320 c1        1 A49     -0.112000
     26 C7         -2.9650   -1.5270   -6.1990 c3        1 A49      0.111000
     27 C9         -2.8890   -3.0400   -6.1750 c3        1 A49     -0.211000
     28 O10        -2.4260   -1.0470   -7.4170 oh        1 A49     -0.297000
     29 C8         -4.4090   -1.0920   -6.0810 c3        1 A49      0.374000
     30 F23        -5.0470   -1.3400   -7.2390 f         1 A49     -0.163000
     31 F21        -5.0020   -1.7740   -5.0880 f         1 A49     -0.163000
     32 F22        -4.4600    0.2230   -5.8140 f         1 A49     -0.163000
     33 HN1         1.6030   -1.1280    6.8120 hn        1 A49      0.219000
     34 HN1A        0.4970   -0.1450    6.2340 hn        1 A49      0.219000
     35 H10         0.0480    1.8750    6.7810 hc        1 A49      0.120250
     36 H10A        0.0110    3.0710    5.5790 hc        1 A49      0.120250
     37 H12         2.0060    4.1470    6.5870 hc        1 A49      0.120250
     38 H12A        2.0420    2.9500    7.7900 hc        1 A49      0.120250
     39 H26         3.4540    2.4660    3.7560 h1        1 A49      0.086500
     40 H26A        3.7850    1.0050    4.3300 h1        1 A49      0.086500
     41 H17         1.0400    2.6820    2.8220 h1        1 A49      0.077250
     42 H17A        2.3560    2.6640    1.9090 h1        1 A49      0.077250
     43 H16        -0.0100    1.1440    1.4560 hc        1 A49      0.095250
     44 H16A        0.5550    2.3040    0.5090 hc        1 A49      0.095250
     45 H19         3.7640    0.4550    1.9840 h1        1 A49      0.077250
     46 H19A        3.1970   -0.7010    2.9370 h1        1 A49      0.077250
     47 H20         2.7210   -1.0920    0.6240 hc        1 A49      0.095250
     48 H20A        1.4040   -1.0690    1.5310 hc        1 A49      0.095250
     49 H14         2.2930    1.0000   -0.1650 h1        1 A49      0.115000
     50 H15         0.8980   -2.1510   -0.9600 h1        1 A49      0.116000
     51 H25        -1.7810   -1.0250   -0.7010 hc        1 A49      0.118750
     52 H25A       -1.4220   -2.6550   -1.0200 hc        1 A49      0.118750
     53 H24        -0.2310   -2.7890    1.0290 hc        1 A49      0.118750
     54 H24A       -0.5940   -1.1590    1.3450 hc        1 A49      0.118750
     55 H3         -2.5400    0.1660   -1.9520 ha        1 A49      0.154000
     56 H2         -3.7880   -0.6980   -3.7780 ha        1 A49      0.152000
     57 H5          0.9220   -0.2060   -4.1430 ha        1 A49      0.145000
     58 H6         -0.3270   -1.0700   -5.9690 ha        1 A49      0.147000
     59 H9         -2.8290   -3.3510   -5.2460 hc        1 A49      0.105333
     60 H9A        -3.6960   -3.4160   -6.5940 hc        1 A49      0.105333
     61 H9B        -2.0940   -3.3360   -6.6720 hc        1 A49      0.105333
     62 HO10       -2.9870   -0.4570   -7.7780 ho        1 A49      0.219000
@<TRIPOS>BOND
     1    1    2 1   
     2    2    4 1   
     3    3   33 1   
     4    3   34 1   
     5    4    5 1   
     6    4    6 1   
     7    4    7 1   
     8    5    6 1   
     9    5   35 1   
    10    5   36 1   
    11    6   37 1   
    12    6   38 1   
    13    7    8 1   
    14    7   39 1   
    15    7   40 1   
    16    8    9 1   
    17    8   11 1   
    18    9   10 1   
    19    9   41 1   
    20    9   42 1   
    21   10   13 1   
    22   10   43 1   
    23   10   44 1   
    24   11   12 1   
    25   11   45 1   
    26   11   46 1   
    27   12   13 1   
    28   12   47 1   
    29   12   48 1   
    30   13   14 1   
    31   13   49 1   
    32   14   15 1   
    33   14   18 1   
    34   15   16 1   
    35   15   17 1   
    36   15   50 1   
    37   16   17 1   
    38   16   51 1   
    39   16   52 1   
    40   17   53 1   
    41   17   54 1   
    42   18   19 1   
    43   18   20 1   
    44   20   21 1   
    45   20   23 1   
    46   21   22 1   
    47   21   55 1   
    48   22   56 1   
    49   23   57 1   
    50   24   25 1   
    51   24   58 1   
    52   25   26 1   
    53   26   27 1   
    54   26   28 1   
    55   26   29 1   
    56   27   59 1   
    57   27   60 1   
    58   27   61 1   
    59   28   62 1   
    60   29   30 1   
    61   29   31 1   
    62   29   32 1   
@<TRIPOS>SUBSTRUCTURE
     1 A49         1 TEMP              0 ****  ****    0 ROOT
