@<TRIPOS>MOLECULE
A49
   64    67     1     0     0
SMALL
bcc


@<TRIPOS>ATOM
      1 O1          0.6350   -3.0370   -1.6330 o         1 A49     -0.391100
      2 C13         1.5810   -2.2840   -1.7870 c         1 A49      0.604100
      3 N1          2.1150   -1.6670   -0.5070 n4        1 A49     -0.757400
      4 C31         2.2790   -1.8800   -3.0260 cx        1 A49     -0.277000
      5 C10         3.3210   -2.8330   -3.5990 cx        1 A49     -0.066900
      6 C12         1.9930   -2.7230   -4.2630 cx        1 A49     -0.066900
      7 C26         2.5290   -0.3960   -3.1850 c3        1 A49      0.179800
      8 N2          1.4130    0.4420   -2.7430 n3        1 A49     -0.765600
      9 C17         1.8040    1.8510   -2.7070 c3        1 A49      0.154800
     10 C16         0.6770    2.7890   -2.2730 c3        1 A49     -0.101900
     11 C19         0.2170    0.2390   -3.5590 c3        1 A49      0.154800
     12 C20        -0.9610    1.1090   -3.1290 c3        1 A49     -0.101900
     13 C14        -0.5520    2.5870   -3.1590 c3        1 A49      0.134500
     14 N12        -1.7150    3.4910   -2.7930 n4        1 A49     -0.563200
     15 C15        -1.5710    4.8150   -3.4210 cx        1 A49     -0.002500
     16 C25        -2.7880    5.6030   -3.8700 cx        1 A49     -0.097900
     17 C24        -1.8770    5.0080   -4.8960 cx        1 A49     -0.097900
     18 C11        -1.9690    3.5430   -1.2830 c         1 A49      0.591700
     19 O13        -2.3190    2.4690   -0.8090 o         1 A49     -0.438100
     20 C4         -1.8560    4.8210   -0.5740 ca        1 A49     -0.187600
     21 C3         -2.9790    5.2530    0.1510 ca        1 A49     -0.082500
     22 C2         -2.9030    6.4130    0.9180 ca        1 A49     -0.093500
     23 C5         -0.6610    5.5480   -0.5110 ca        1 A49     -0.082500
     24 C6         -0.5900    6.7030    0.2620 ca        1 A49     -0.093500
     25 C1         -1.7100    7.1440    0.9820 ca        1 A49     -0.019300
     26 C7         -1.6320    8.3870    1.8300 c3        1 A49      0.171100
     27 C9         -2.6900    9.4110    1.4420 c3        1 A49     -0.138100
     28 O10        -0.3270    8.9220    1.6920 oh        1 A49     -0.583800
     29 C8         -1.8200    8.0160    3.3700 c3        1 A49      0.596900
     30 F23        -1.5050    9.0730    4.1820 f         1 A49     -0.222967
     31 F21        -3.0990    7.6600    3.7060 f         1 A49     -0.222967
     32 F22        -1.0330    6.9840    3.8010 f         1 A49     -0.222967
     33 HN1         1.6890   -2.1230    0.3110 hn        1 A49      0.472467
     34 HN1A        1.8870   -0.6670   -0.4900 hn        1 A49      0.472467
     35 H10         3.5720   -3.7560   -3.0400 hc        1 A49      0.114450
     36 H10A        4.2140   -2.3850   -4.0770 hc        1 A49      0.114450
     37 H12         1.9060   -2.2000   -5.2340 hc        1 A49      0.114450
     38 H12A        1.2700   -3.5590   -4.1750 hc        1 A49      0.114450
     39 H26         2.7930   -0.2090   -4.2700 h1        1 A49      0.071200
     40 H26A        3.4350   -0.1140   -2.5720 h1        1 A49      0.071200
     41 H17         2.1880    2.1960   -3.7130 h1        1 A49      0.063950
     42 H17A        2.6470    1.9590   -1.9660 h1        1 A49      0.063950
     43 H16         0.4150    2.6040   -1.1980 hc        1 A49      0.081450
     44 H16A        1.0620    3.8390   -2.3690 hc        1 A49      0.081450
     45 H19         0.4290    0.4330   -4.6530 h1        1 A49      0.063950
     46 H19A       -0.0870   -0.8420   -3.4580 h1        1 A49      0.063950
     47 H20        -1.8080    0.9150   -3.8400 hc        1 A49      0.081450
     48 H20A       -1.3020    0.8200   -2.0980 hc        1 A49      0.081450
     49 H14        -0.2780    2.8640   -4.2250 hx        1 A49      0.108700
     50 H15        -0.7090    5.3670   -2.9810 hx        1 A49      0.141700
     51 H25        -3.8030    5.1820   -3.7430 hc        1 A49      0.111700
     52 H25A       -2.7780    6.6970   -3.6920 hc        1 A49      0.111700
     53 H24        -1.1970    5.6630   -5.4750 hc        1 A49      0.111700
     54 H24A       -2.2390    4.1580   -5.5060 hc        1 A49      0.111700
     55 H3         -3.9160    4.6710    0.1300 ha        1 A49      0.148000
     56 H2         -3.7850    6.7380    1.5010 ha        1 A49      0.186500
     57 H5          0.2410    5.1990   -1.0360 ha        1 A49      0.148000
     58 H6          0.3570    7.2710    0.3230 ha        1 A49      0.186500
     59 H9         -2.6230   10.2970    2.1220 hc        1 A49      0.075700
     60 H9A        -3.7120    8.9720    1.5310 hc        1 A49      0.075700
     61 H9B        -2.5190    9.7500    0.3920 hc        1 A49      0.075700
     62 HO10       -0.3060    9.7660    2.1700 ho        1 A49      0.447000
     63 H13         3.1320   -1.7770   -0.4660 hn        1 A49      0.472467
     64 H121       -2.5560    3.0450   -3.1970 hn        1 A49      0.451800
@<TRIPOS>BOND
     1    1    2 2   
     2    2    3 1   
     3    2    4 1   
     4    3   33 1   
     5    3   34 1   
     6    3   63 1   
     7    4    5 1   
     8    4    6 1   
     9    4    7 1   
    10    5    6 1   
    11    5   35 1   
    12    5   36 1   
    13    6   37 1   
    14    6   38 1   
    15    7    8 1   
    16    7   39 1   
    17    7   40 1   
    18    8    9 1   
    19    8   11 1   
    20    9   10 1   
    21    9   41 1   
    22    9   42 1   
    23   10   13 1   
    24   10   43 1   
    25   10   44 1   
    26   11   12 1   
    27   11   45 1   
    28   11   46 1   
    29   12   13 1   
    30   12   47 1   
    31   12   48 1   
    32   13   14 1   
    33   13   49 1   
    34   14   15 1   
    35   14   18 1   
    36   14   64 1   
    37   15   16 1   
    38   15   17 1   
    39   15   50 1   
    40   16   17 1   
    41   16   51 1   
    42   16   52 1   
    43   17   53 1   
    44   17   54 1   
    45   18   19 2   
    46   18   20 1   
    47   20   21 ar  
    48   20   23 ar  
    49   21   22 ar  
    50   21   55 1   
    51   22   25 ar  
    52   22   56 1   
    53   23   24 ar  
    54   23   57 1   
    55   24   25 ar  
    56   24   58 1   
    57   25   26 1   
    58   26   27 1   
    59   26   28 1   
    60   26   29 1   
    61   27   59 1   
    62   27   60 1   
    63   27   61 1   
    64   28   62 1   
    65   29   30 1   
    66   29   31 1   
    67   29   32 1   
@<TRIPOS>SUBSTRUCTURE
     1 A49         1 TEMP              0 ****  ****    0 ROOT
