@<TRIPOS>MOLECULE
A49
   64    67     1     0     0
SMALL
bcc


@<TRIPOS>ATOM
      1 O1          0.9570   -3.0840   -1.7640 o         1 A49     -0.391100
      2 C13         1.8440   -2.2910   -2.0220 c         1 A49      0.604100
      3 N1          2.5340   -1.6940   -0.8080 nz        1 A49     -0.757400
      4 C31         2.3450   -1.8190   -3.3300 cx        1 A49     -0.277000
      5 C10         3.3500   -2.6950   -4.0680 cx        1 A49     -0.067400
      6 C12         1.9400   -2.6480   -4.5430 cx        1 A49     -0.067400
      7 C26         2.4900   -0.3190   -3.4740 c3        1 A49      0.179800
      8 N2          1.4090    0.4430   -2.8480 n3        1 A49     -0.765600
      9 C17         1.7220    1.8740   -2.8420 c3        1 A49      0.155300
     10 C16         0.6200    2.7370   -2.2260 c3        1 A49     -0.101900
     11 C19         0.1140    0.1770   -3.4730 c3        1 A49      0.155300
     12 C20        -1.0320    0.9800   -2.8640 c3        1 A49     -0.101900
     13 C14        -0.7060    2.4760   -2.9450 c3        1 A49      0.134500
     14 N12        -1.8480    3.3310   -2.4270 nx        1 A49     -0.566200
     15 C15        -1.8540    4.6440   -3.0960 cx        1 A49     -0.000500
     16 C25        -3.1530    5.2820   -3.5520 cx        1 A49     -0.100900
     17 C24        -2.1900    4.7630   -4.5720 cx        1 A49     -0.100900
     18 C11        -1.8320    3.4300   -0.8950 c         1 A49      0.595700
     19 O13        -1.9160    2.3530   -0.3230 o         1 A49     -0.429100
     20 C4         -1.7250    4.7610   -0.2850 ca        1 A49     -0.192600
     21 C3         -2.7730    5.6850   -0.3770 ca        1 A49     -0.082000
     22 C2         -2.7020    6.8810    0.3320 ca        1 A49     -0.092000
     23 C5         -0.6030    5.0420    0.5090 ca        1 A49     -0.082000
     24 C6         -0.5320    6.2460    1.2040 ca        1 A49     -0.092000
     25 C1         -1.5850    7.1700    1.1280 ca        1 A49     -0.019300
     26 C7         -1.5240    8.4620    1.9000 c3        1 A49      0.170100
     27 C9         -1.6590    9.6770    0.9910 c3        1 A49     -0.137100
     28 O10        -0.2940    8.4870    2.6030 oh        1 A49     -0.581800
     29 C8         -2.6880    8.5110    2.9910 c3        1 A49      0.596900
     30 F23        -2.5080    9.5480    3.8670 f         1 A49     -0.222300
     31 F21        -3.9380    8.6870    2.4620 f         1 A49     -0.222300
     32 F22        -2.7770    7.3900    3.7690 f         1 A49     -0.222300
     33 HN1         2.2850   -0.7020   -0.7290 hn        1 A49      0.472467
     34 HN1A        2.2380   -2.1850    0.0450 hn        1 A49      0.472467
     35 H10         4.1440   -2.1840   -4.6480 hc        1 A49      0.114200
     36 H10A        3.7250   -3.6150   -3.5780 hc        1 A49      0.114200
     37 H12         1.6930   -2.1080   -5.4780 hc        1 A49      0.114200
     38 H12A        1.2820   -3.5260   -4.3860 hc        1 A49      0.114200
     39 H26         3.4590   -0.0020   -2.9900 h1        1 A49      0.071200
     40 H26A        2.5820   -0.0910   -4.5790 h1        1 A49      0.071200
     41 H17         1.9330    2.2520   -3.8860 h1        1 A49      0.063700
     42 H17A        2.6580    2.0210   -2.2310 h1        1 A49      0.063700
     43 H16         0.9230    3.8120   -2.3330 hc        1 A49      0.081950
     44 H16A        0.5210    2.5060   -1.1320 hc        1 A49      0.081950
     45 H19        -0.1120   -0.9200   -3.3340 h1        1 A49      0.063700
     46 H19A        0.1450    0.3790   -4.5850 h1        1 A49      0.063700
     47 H20        -1.9640    0.7410   -3.4420 hc        1 A49      0.081950
     48 H20A       -1.2000    0.6750   -1.7960 hc        1 A49      0.081950
     49 H14        -0.5840    2.7590   -4.0370 hx        1 A49      0.107700
     50 H15        -1.0530    5.2950   -2.6750 hx        1 A49      0.146700
     51 H25        -4.1150    4.7540   -3.4060 hc        1 A49      0.111700
     52 H25A       -3.2630    6.3740   -3.4030 hc        1 A49      0.111700
     53 H24        -1.5900    5.4750   -5.1740 hc        1 A49      0.111700
     54 H24A       -2.4630    3.8650   -5.1570 hc        1 A49      0.111700
     55 H3         -3.6640    5.4660   -0.9860 ha        1 A49      0.145500
     56 H2         -3.5460    7.5930    0.2870 ha        1 A49      0.186000
     57 H5          0.2120    4.3080    0.6010 ha        1 A49      0.145500
     58 H6          0.3470    6.4690    1.8360 ha        1 A49      0.186000
     59 H9         -2.6170    9.6340    0.4200 hc        1 A49      0.074033
     60 H9A        -1.6530   10.6100    1.6070 hc        1 A49      0.074033
     61 H9B        -0.8000    9.7110    0.2780 hc        1 A49      0.074033
     62 HO10       -0.2320    9.3450    3.0520 ho        1 A49      0.447000
     63 H13         3.5500   -1.7740   -0.9110 hn        1 A49      0.472467
     64 H121       -2.7190    2.8370   -2.6780 hn        1 A49      0.450800
@<TRIPOS>BOND
     1    1    2 2   
     2    2    3 1   
     3    2    4 1   
     4    3   33 1   
     5    3   34 1   
     6    3   63 1   
     7    4    5 1   
     8    4    6 1   
     9    4    7 1   
    10    5    6 1   
    11    5   35 1   
    12    5   36 1   
    13    6   37 1   
    14    6   38 1   
    15    7    8 1   
    16    7   39 1   
    17    7   40 1   
    18    8    9 1   
    19    8   11 1   
    20    9   10 1   
    21    9   41 1   
    22    9   42 1   
    23   10   13 1   
    24   10   43 1   
    25   10   44 1   
    26   11   12 1   
    27   11   45 1   
    28   11   46 1   
    29   12   13 1   
    30   12   47 1   
    31   12   48 1   
    32   13   14 1   
    33   13   49 1   
    34   14   15 1   
    35   14   18 1   
    36   14   64 1   
    37   15   16 1   
    38   15   17 1   
    39   15   50 1   
    40   16   17 1   
    41   16   51 1   
    42   16   52 1   
    43   17   53 1   
    44   17   54 1   
    45   18   19 2   
    46   18   20 1   
    47   20   21 ar  
    48   20   23 ar  
    49   21   22 ar  
    50   21   55 1   
    51   22   25 ar  
    52   22   56 1   
    53   23   24 ar  
    54   23   57 1   
    55   24   25 ar  
    56   24   58 1   
    57   25   26 1   
    58   26   27 1   
    59   26   28 1   
    60   26   29 1   
    61   27   59 1   
    62   27   60 1   
    63   27   61 1   
    64   28   62 1   
    65   29   30 1   
    66   29   31 1   
    67   29   32 1   
@<TRIPOS>SUBSTRUCTURE
     1 A49         1 TEMP              0 ****  ****    0 ROOT
