@<TRIPOS>MOLECULE
A49
   62    65     1     0     0
SMALL
bcc


@<TRIPOS>ATOM
      1 O1         -1.7660    3.1650    1.9760 o         1 A49     -0.627100
      2 C13        -1.7330    3.1310    0.7270 c         1 A49      0.695100
      3 N1         -2.4120    2.1550    0.0390 n         1 A49     -0.637000
      4 C31        -1.0150    4.1910   -0.0650 cx        1 A49     -0.210000
      5 C10        -1.7430    5.4960   -0.3010 cx        1 A49     -0.105400
      6 C12        -0.6180    5.4440    0.6830 cx        1 A49     -0.105400
      7 C26        -0.1230    3.6930   -1.1800 c3        1 A49      0.207800
      8 N2          0.5730    2.4530   -0.8750 n3        1 A49     -0.742600
      9 C17         1.2650    1.9090   -2.0360 c3        1 A49      0.168800
     10 C16         1.8780    0.5370   -1.7580 c3        1 A49     -0.097400
     11 C19         1.4510    2.5460    0.2840 c3        1 A49      0.168800
     12 C20         2.0790    1.2050    0.6530 c3        1 A49     -0.097400
     13 C14         2.8250    0.6080   -0.5500 c3        1 A49      0.114700
     14 N12         3.5060   -0.6560   -0.2700 n         1 A49     -0.436800
     15 C15         4.9360   -0.5930   -0.3500 cx        1 A49      0.031700
     16 C25         5.8610   -1.7870   -0.2250 cx        1 A49     -0.137400
     17 C24         5.8830   -0.7180    0.8290 cx        1 A49     -0.137400
     18 C11         2.8850   -1.6890    0.4410 c         1 A49      0.671700
     19 O13         3.5260   -2.4420    1.2000 o         1 A49     -0.581100
     20 C4          1.4290   -1.9610    0.2200 ca        1 A49     -0.104600
     21 C3          0.9970   -2.5040   -0.9930 ca        1 A49     -0.096000
     22 C2         -0.3550   -2.7800   -1.1890 ca        1 A49     -0.111500
     23 C5          0.5150   -1.7600    1.2590 ca        1 A49     -0.096000
     24 C6         -0.8380   -2.0230    1.0530 ca        1 A49     -0.111500
     25 C1         -1.2870   -2.5080   -0.1810 ca        1 A49     -0.127300
     26 C7         -2.7530   -2.7590   -0.4040 c3        1 A49      0.197100
     27 C9         -3.3180   -3.7610    0.5950 c3        1 A49     -0.094100
     28 O10        -3.0370   -3.2730   -1.6910 oh        1 A49     -0.566800
     29 C8         -3.5710   -1.3940   -0.2850 c3        1 A49      0.582900
     30 F23        -4.9120   -1.5520   -0.5170 f         1 A49     -0.237633
     31 F21        -3.5000   -0.7610    0.9270 f         1 A49     -0.237633
     32 F22        -3.1780   -0.4440   -1.1960 f         1 A49     -0.237633
     33 HN1        -2.7930    1.3960    0.5550 hn        1 A49      0.308000
     34 HN1A       -2.1970    1.9840   -0.9120 hn        1 A49      0.308000
     35 H10        -1.5950    6.0090   -1.2680 hc        1 A49      0.082700
     36 H10A       -2.7790    5.5980    0.0700 hc        1 A49      0.082700
     37 H12        -0.8460    5.4900    1.7650 hc        1 A49      0.082700
     38 H12A        0.3430    5.9270    0.4330 hc        1 A49      0.082700
     39 H26        -0.7700    3.5010   -2.0860 h1        1 A49      0.037200
     40 H26A        0.5990    4.5210   -1.4530 h1        1 A49      0.037200
     41 H17         0.5150    1.7990   -2.8700 h1        1 A49      0.038700
     42 H17A        2.0780    2.6050   -2.4000 h1        1 A49      0.038700
     43 H16         1.0600   -0.2040   -1.5710 hc        1 A49      0.059200
     44 H16A        2.4420    0.2100   -2.6690 hc        1 A49      0.059200
     45 H19         2.2760    3.3000    0.1160 h1        1 A49      0.038700
     46 H19A        0.8300    2.9040    1.1560 h1        1 A49      0.038700
     47 H20         2.7910    1.3720    1.5020 hc        1 A49      0.059200
     48 H20A        1.2800    0.5030    1.0040 hc        1 A49      0.059200
     49 H14         3.6260    1.3650   -0.8250 h1        1 A49      0.055700
     50 H15         5.2300    0.1440   -1.1380 h1        1 A49      0.082700
     51 H25         5.4580   -2.7810    0.0390 hc        1 A49      0.081450
     52 H25A        6.6950   -1.8550   -0.9460 hc        1 A49      0.081450
     53 H24         6.7380   -0.0230    0.8860 hc        1 A49      0.081450
     54 H24A        5.4740   -0.9670    1.8250 hc        1 A49      0.081450
     55 H3          1.7230   -2.7090   -1.7950 ha        1 A49      0.151500
     56 H2         -0.6790   -3.2260   -2.1430 ha        1 A49      0.148000
     57 H5          0.8620   -1.3940    2.2380 ha        1 A49      0.151500
     58 H6         -1.5560   -1.8330    1.8670 ha        1 A49      0.148000
     59 H9         -3.2300   -3.3490    1.6270 hc        1 A49      0.067700
     60 H9A        -4.3920   -3.9590    0.3590 hc        1 A49      0.067700
     61 H9B        -2.7490   -4.7180    0.5220 hc        1 A49      0.067700
     62 HO10       -2.7310   -2.6240   -2.3410 ho        1 A49      0.417000
@<TRIPOS>BOND
     1    1    2 2   
     2    2    3 1   
     3    2    4 1   
     4    3   33 1   
     5    3   34 1   
     6    4    5 1   
     7    4    6 1   
     8    4    7 1   
     9    5    6 1   
    10    5   35 1   
    11    5   36 1   
    12    6   37 1   
    13    6   38 1   
    14    7    8 1   
    15    7   39 1   
    16    7   40 1   
    17    8    9 1   
    18    8   11 1   
    19    9   10 1   
    20    9   41 1   
    21    9   42 1   
    22   10   13 1   
    23   10   43 1   
    24   10   44 1   
    25   11   12 1   
    26   11   45 1   
    27   11   46 1   
    28   12   13 1   
    29   12   47 1   
    30   12   48 1   
    31   13   14 1   
    32   13   49 1   
    33   14   15 1   
    34   14   18 1   
    35   15   16 1   
    36   15   17 1   
    37   15   50 1   
    38   16   17 1   
    39   16   51 1   
    40   16   52 1   
    41   17   53 1   
    42   17   54 1   
    43   18   19 2   
    44   18   20 1   
    45   20   21 ar  
    46   20   23 ar  
    47   21   22 ar  
    48   21   55 1   
    49   22   25 ar  
    50   22   56 1   
    51   23   24 ar  
    52   23   57 1   
    53   24   25 ar  
    54   24   58 1   
    55   25   26 1   
    56   26   27 1   
    57   26   28 1   
    58   26   29 1   
    59   27   59 1   
    60   27   60 1   
    61   27   61 1   
    62   28   62 1   
    63   29   30 1   
    64   29   31 1   
    65   29   32 1   
@<TRIPOS>SUBSTRUCTURE
     1 A49         1 TEMP              0 ****  ****    0 ROOT
