@<TRIPOS>MOLECULE
A4C
  102    95     1     0     0
SMALL
bcc


@<TRIPOS>ATOM
      1 OD1        -6.0860   -6.6720    4.6130 o         1 A4C     -0.367000
      2 CD1        -6.1230   -5.6200    3.9800 c1        1 A4C      0.357000
      3 ND1        -7.3360   -4.9420    3.8250 n2        1 A4C     -0.359000
      4 CD2        -8.5380   -5.4840    4.3860 c3        1 A4C     -0.033000
      5 CD3        -9.6890   -4.5360    4.1150 c3        1 A4C     -0.078000
      6 ND2       -10.9450   -5.2240    4.3260 n3        1 A4C     -0.267000
      7 CD8       -11.6730   -4.5900    5.4750 c3        1 A4C     -0.116000
      8 CD7       -11.7560   -5.1210    3.1280 c3        1 A4C     -0.116000
      9 C4         -4.8560   -5.1090    3.2550 c2        1 A4C     -0.106000
     10 C3         -4.9360   -4.5630    1.9950 c1        1 A4C     -0.058000
     11 C2         -3.8090   -3.9820    1.4140 c1        1 A4C     -0.120333
     12 C12        -3.6300   -5.0810    3.9660 c2        1 A4C      0.068000
     13 C11        -2.5260   -4.5120    3.4000 c1        1 A4C     -0.140000
     14 C1         -2.6080   -3.9530    2.1070 c1        1 A4C     -0.120333
     15 N10        -3.5540   -5.6390    5.2580 n1        1 A4C     -0.174000
     16 C14        -2.3560   -5.6130    5.9620 c1        1 A4C      0.053000
     17 C5         -2.2880   -6.1750    7.2530 c2        1 A4C     -0.120000
     18 C6         -1.0890   -6.1540    7.9620 c1        1 A4C     -0.107000
     19 C7          0.0470   -5.5770    7.3980 c1        1 A4C     -0.120333
     20 C13        -1.2270   -5.0380    5.3960 c1        1 A4C     -0.107000
     21 C8         -0.0140   -5.0170    6.1170 c1        1 A4C     -0.120333
     22 C9         -1.2960   -4.4840    4.1170 c2        1 A4C      0.118000
     23 N9         -0.2650   -4.1750    3.1400 n3        1 A4C     -0.281000
     24 CX1         0.6560   -3.0930    3.3860 c3        1 A4C     -0.061000
     25 CX2         1.6330   -2.9830    2.2350 c3        1 A4C     -0.195000
     26 CX3         2.1310   -1.5540    2.1310 c3        1 A4C     -0.154000
     27 OD2         5.3540    4.1920   -6.7770 o         1 A4C     -0.369000
     28 CD4         5.8870    4.8430   -5.9400 c1        1 A4C      0.358000
     29 ND3         6.5950    6.0010   -6.3030 n2        1 A4C     -0.359000
     30 CD5         6.1620    6.7770   -7.4230 c3        1 A4C     -0.033000
     31 CD6         6.6900    8.2120   -7.2970 c3        1 A4C     -0.078000
     32 ND4         5.6830    9.1370   -7.8050 n3        1 A4C     -0.267000
     33 CD0         5.2860   10.0490   -6.7540 c3        1 A4C     -0.116000
     34 CD9         6.2230    9.8900   -8.9360 c3        1 A4C     -0.116000
     35 C25         5.9680    4.2990   -4.4360 c2        1 A4C     -0.107000
     36 C26         7.1370    3.6900   -3.9730 c2        1 A4C     -0.057000
     37 C15         7.0830    2.8000   -2.8950 c1        1 A4C     -0.145000
     38 C27         4.7410    4.0160   -3.8190 c1        1 A4C      0.068000
     39 C16         4.6890    3.1290   -2.7450 c1        1 A4C     -0.142000
     40 C17         5.8630    2.5200   -2.2820 c1        1 A4C     -0.094000
     41 N12         3.5610    4.5440   -4.3460 n1        1 A4C     -0.174000
     42 C18         2.3310    4.1850   -3.7990 c1        1 A4C      0.053000
     43 C19         1.1480    4.7160   -4.3290 c2        1 A4C     -0.120000
     44 C20        -0.0950    4.3560   -3.7770 c1        1 A4C     -0.107000
     45 C21        -0.1520    3.4640   -2.6970 c1        1 A4C     -0.120333
     46 C22         2.2750    3.2920   -2.7180 c1        1 A4C     -0.111000
     47 C23         1.0330    2.9310   -2.1660 c1        1 A4C     -0.120333
     48 C24         3.4460    2.7660   -2.1920 c2        1 A4C      0.128000
     49 N11         3.8710    1.7750   -1.2160 n3        1 A4C     -0.295000
     50 CX4         3.0580    0.6020   -0.9770 c3        1 A4C     -0.053000
     51 CX5         3.1320    0.2050    0.5500 c3        1 A4C     -0.165000
     52 CX6         2.7120   -1.3160    0.7120 c3        1 A4C     -0.160000
     53 HND1       -7.3560   -4.1210    3.3850 hn        1 A4C      0.228500
     54 HD21       -8.4220   -5.6000    5.3940 h1        1 A4C      0.103500
     55 HD22       -8.7220   -6.3330    3.9870 h1        1 A4C      0.103500
     56 HD31       -9.6400   -4.2180    3.1870 h1        1 A4C      0.073250
     57 HD32       -9.6320   -3.7970    4.7040 h1        1 A4C      0.073250
     58 HD81      -11.7390   -3.6130    5.3240 h1        1 A4C      0.070333
     59 HD82      -11.1870   -4.7590    6.3010 h1        1 A4C      0.070333
     60 HD83      -12.5990   -4.9820    5.5450 h1        1 A4C      0.070333
     61 HD71      -11.3080   -5.6150    2.3740 h1        1 A4C      0.070333
     62 HD72      -11.8550   -4.2060    2.8930 h1        1 A4C      0.070333
     63 HD73      -12.6280   -5.5080    3.2950 h1        1 A4C      0.070333
     64 H3         -5.7680   -4.5840    1.5160 ha        1 A4C      0.157000
     65 H2         -3.8650   -3.5950    0.5160 ha        1 A4C      0.137167
     66 H1         -1.8190   -3.5450    1.7020 ha        1 A4C      0.137167
     67 H5         -3.0460   -6.5620    7.6340 ha        1 A4C      0.151000
     68 H6         -1.0460   -6.5470    8.8630 ha        1 A4C      0.137000
     69 H7          0.8830   -5.5640    7.8970 ha        1 A4C      0.137167
     70 H8          0.8030   -4.6020    5.7100 ha        1 A4C      0.137167
     71 HN9        -0.1740   -4.6990    2.3810 hn        1 A4C      0.189000
     72 HX11        1.1720   -3.2740    4.2560 h1        1 A4C      0.101500
     73 HX12        0.1610   -2.2610    3.4720 h1        1 A4C      0.101500
     74 HX21        1.1750   -3.2400    1.3820 hc        1 A4C      0.086500
     75 HX22        2.3730   -3.5670    2.3860 hc        1 A4C      0.086500
     76 HX31        2.8510   -1.3980    2.8220 hc        1 A4C      0.084000
     77 HX32        1.3770   -0.9280    2.2910 hc        1 A4C      0.084000
     78 HND3        7.3740    6.2250   -5.8580 hn        1 A4C      0.228500
     79 HD51        6.5080    6.3660   -8.2680 h1        1 A4C      0.103500
     80 HD52        5.1860    6.7930   -7.4460 h1        1 A4C      0.103500
     81 HD61        7.4990    8.3040   -7.8080 h1        1 A4C      0.073250
     82 HD62        6.8760    8.4150   -6.3440 h1        1 A4C      0.073250
     83 HD01        6.1070   10.4730   -6.3460 h1        1 A4C      0.070333
     84 HD02        4.7890    9.5500   -6.0550 h1        1 A4C      0.070333
     85 HD03        4.7050   10.7520   -7.1320 h1        1 A4C      0.070333
     86 HD91        6.3880    9.3080   -9.6470 h1        1 A4C      0.070333
     87 HD92        7.0490   10.3210   -8.6740 h1        1 A4C      0.070333
     88 HD93        5.5710   10.5740   -9.2170 h1        1 A4C      0.070333
     89 H26         7.9900    3.8850   -4.4000 ha        1 A4C      0.157000
     90 H15         7.9630    2.3420   -2.5460 ha        1 A4C      0.141000
     91 H17         5.8260    1.9050   -1.5370 ha        1 A4C      0.124000
     92 H19         1.1870    5.3390   -5.0830 ha        1 A4C      0.152000
     93 H20        -0.9150    4.7250   -4.1450 ha        1 A4C      0.137000
     94 H21        -1.0210    3.2120   -2.3120 ha        1 A4C      0.137167
     95 H23         0.9960    2.3020   -1.4040 ha        1 A4C      0.137167
     96 HN11        4.7190    1.8430   -0.8240 hn        1 A4C      0.192000
     97 HX41        3.3890   -0.1350   -1.5180 h1        1 A4C      0.085000
     98 HX42        2.1370    0.7910   -1.2190 h1        1 A4C      0.085000
     99 HX51        4.0330    0.3260    0.8700 hc        1 A4C      0.090000
    100 HX52        2.5080    0.7870    1.0780 hc        1 A4C      0.090000
    101 HX61        3.5580   -1.9310    0.5710 hc        1 A4C      0.083500
    102 HX62        2.0370   -1.5360    0.0430 hc        1 A4C      0.083500
@<TRIPOS>BOND
     1    1    2 1   
     2    2    9 1   
     3    3    4 1   
     4    3   53 1   
     5    4    5 1   
     6    4   54 1   
     7    4   55 1   
     8    5    6 1   
     9    5   56 1   
    10    5   57 1   
    11    6    7 1   
    12    6    8 1   
    13    7   58 1   
    14    7   59 1   
    15    7   60 1   
    16    8   61 1   
    17    8   62 1   
    18    8   63 1   
    19    9   10 1   
    20    9   12 1   
    21   10   64 1   
    22   11   14 1   
    23   11   65 1   
    24   12   13 1   
    25   12   15 1   
    26   13   22 1   
    27   14   66 1   
    28   16   17 1   
    29   16   20 1   
    30   17   18 1   
    31   17   67 1   
    32   18   68 1   
    33   19   21 1   
    34   19   69 1   
    35   20   22 1   
    36   21   70 1   
    37   22   23 1   
    38   23   24 1   
    39   23   71 1   
    40   24   25 1   
    41   24   72 1   
    42   24   73 1   
    43   25   26 1   
    44   25   74 1   
    45   25   75 1   
    46   26   52 1   
    47   26   76 1   
    48   26   77 1   
    49   27   28 1   
    50   28   35 1   
    51   29   30 1   
    52   29   78 1   
    53   30   31 1   
    54   30   79 1   
    55   30   80 1   
    56   31   32 1   
    57   31   81 1   
    58   31   82 1   
    59   32   33 1   
    60   32   34 1   
    61   33   83 1   
    62   33   84 1   
    63   33   85 1   
    64   34   86 1   
    65   34   87 1   
    66   34   88 1   
    67   35   36 1   
    68   35   38 1   
    69   36   37 1   
    70   36   89 1   
    71   37   90 1   
    72   38   41 1   
    73   39   40 1   
    74   39   48 1   
    75   40   91 1   
    76   42   43 1   
    77   42   46 1   
    78   43   44 1   
    79   43   92 1   
    80   44   93 1   
    81   45   47 1   
    82   45   94 1   
    83   46   48 1   
    84   47   95 1   
    85   48   49 1   
    86   49   50 1   
    87   49   96 1   
    88   50   51 1   
    89   50   97 1   
    90   50   98 1   
    91   51   52 1   
    92   51   99 1   
    93   51  100 1   
    94   52  101 1   
    95   52  102 1   
@<TRIPOS>SUBSTRUCTURE
     1 A4C         1 TEMP              0 ****  ****    0 ROOT
