@<TRIPOS>MOLECULE
A4C
  106   111     1     0     0
SMALL
bcc


@<TRIPOS>ATOM
      1 OD1         1.9480   -1.5150    1.8810 o         1 A4C     -0.527600
      2 CD1         1.8790   -0.7030    0.9540 c         1 A4C      0.597200
      3 ND1         0.6870    0.2350    1.0500 n4        1 A4C     -0.709800
      4 CD2        -0.4770   -0.3580    1.7440 c3        1 A4C      0.100800
      5 CD3        -0.3490   -0.3600    3.2850 c3        1 A4C      0.077300
      6 ND2        -1.0220   -1.5290    3.9360 n4        1 A4C     -0.674400
      7 CD8        -0.1480   -2.7380    3.9200 c3        1 A4C      0.079100
      8 CD7        -1.4120   -1.1920    5.3370 c3        1 A4C      0.079100
      9 C4          2.7840   -0.5510   -0.1640 ca        1 A4C     -0.335400
     10 C3          3.9980   -1.2460   -0.0620 ca        1 A4C      0.060500
     11 C2          4.9310   -1.2160   -1.0970 ca        1 A4C     -0.208500
     12 C12         2.4790    0.2020   -1.3650 ca        1 A4C      0.553600
     13 C11         3.4890    0.2600   -2.3960 ca        1 A4C     -0.288800
     14 C1          4.6780   -0.4780   -2.2420 ca        1 A4C      0.031500
     15 N10         1.2840    0.8060   -1.4850 nb        1 A4C     -0.880000
     16 C14         0.9330    1.3750   -2.6810 ca        1 A4C      0.516100
     17 C5         -0.3980    1.8760   -2.8490 ca        1 A4C     -0.226800
     18 C6         -0.8200    2.3420   -4.0700 ca        1 A4C     -0.040000
     19 C7          0.0460    2.3130   -5.1870 ca        1 A4C     -0.132500
     20 C13         1.8460    1.4720   -3.7800 ca        1 A4C     -0.244300
     21 C8          1.3440    1.8870   -5.0420 ca        1 A4C     -0.081500
     22 C9          3.2210    1.0950   -3.5570 ca        1 A4C      0.348600
     23 N9          4.2580    1.5100   -4.3210 nh        1 A4C     -0.706600
     24 CX1         4.2980    2.5810   -5.2900 c3        1 A4C      0.190800
     25 CX2         4.5740    2.1240   -6.7260 c3        1 A4C     -0.102400
     26 CX3         4.7570    3.3350   -7.6220 c3        1 A4C     -0.080400
     27 OD2        11.6000    4.9730  -15.7270 o         1 A4C     -0.527600
     28 ND3         9.9410    6.2410  -16.7330 n4        1 A4C     -0.709800
     29 CD5        10.4170    5.7810  -18.0550 c3        1 A4C      0.100800
     30 CD6        11.8610    6.2280  -18.3710 c3        1 A4C      0.077300
     31 ND4        12.3560    5.7290  -19.6920 n4        1 A4C     -0.674400
     32 CD0        13.5140    6.5540  -20.1520 c3        1 A4C      0.079100
     33 CD9        12.7440    4.2920  -19.6280 c3        1 A4C      0.079100
     34 C25         9.6150    5.2860  -14.3970 ca        1 A4C     -0.335400
     35 C26        10.2510    4.8940  -13.2140 ca        1 A4C      0.060500
     36 C15         9.5310    4.7610  -12.0250 ca        1 A4C     -0.208500
     37 C27         8.1830    5.5170  -14.4080 ca        1 A4C      0.553600
     38 C16         7.4440    5.2210  -13.1990 ca        1 A4C     -0.288800
     39 C17         8.1570    4.9300  -12.0210 ca        1 A4C      0.031500
     40 N12         7.5990    5.9960  -15.5170 nb        1 A4C     -0.880000
     41 C18         6.2670    6.3210  -15.5000 ca        1 A4C      0.516100
     42 C19         5.6890    6.9500  -16.6480 ca        1 A4C     -0.226800
     43 C20         4.3710    7.3380  -16.6430 ca        1 A4C     -0.040000
     44 C21         3.5670    7.1290  -15.5010 ca        1 A4C     -0.132500
     45 C22         5.4350    6.0510  -14.3700 ca        1 A4C     -0.244300
     46 C23         4.0880    6.5010  -14.3940 ca        1 A4C     -0.081500
     47 C24         6.0030    5.3090  -13.2570 ca        1 A4C      0.348600
     48 N11         5.1650    4.7120  -12.3790 nh        1 A4C     -0.706600
     49 CX4         5.4280    3.6860  -11.3980 c3        1 A4C      0.190800
     50 CX5         5.1950    4.1300   -9.9500 c3        1 A4C     -0.102400
     51 CX6         5.0800    2.9190   -9.0440 c3        1 A4C     -0.080400
     52 HND1        0.9920    1.0880    1.5290 hn        1 A4C      0.497550
     53 HD21       -0.6050   -1.4070    1.3430 hx        1 A4C      0.114950
     54 HD22       -1.3900    0.2430    1.4560 hx        1 A4C      0.114950
     55 HD31       -0.8210    0.5850    3.6880 hx        1 A4C      0.129200
     56 HD32        0.7360   -0.3810    3.6040 hx        1 A4C      0.129200
     57 HD81        0.2520   -2.9020    2.8820 hx        1 A4C      0.118617
     58 HD82        0.7150   -2.5880    4.6240 hx        1 A4C      0.118617
     59 HD83       -0.7500   -3.6290    4.2490 hx        1 A4C      0.118617
     60 HD71       -2.1640   -0.3570    5.3300 hx        1 A4C      0.118617
     61 HD72       -1.8680   -2.1030    5.8150 hx        1 A4C      0.118617
     62 HD73       -0.5020   -0.8820    5.9180 hx        1 A4C      0.118617
     63 H3          4.2130   -1.8340    0.8510 ha        1 A4C      0.174500
     64 H2          5.8690   -1.7890   -1.0000 ha        1 A4C      0.178500
     65 H1          5.4360   -0.5130   -3.0440 ha        1 A4C      0.151000
     66 H5         -1.0880    1.8690   -1.9920 ha        1 A4C      0.140500
     67 H6         -1.8480    2.7230   -4.1970 ha        1 A4C      0.167500
     68 H7         -0.3370    2.6240   -6.1710 ha        1 A4C      0.166500
     69 H8          1.9870    1.8170   -5.9340 ha        1 A4C      0.140500
     70 HN9         5.1550    1.1050   -4.1380 hn        1 A4C      0.452800
     71 HX11        5.1420    3.2660   -4.9690 h1        1 A4C      0.078450
     72 HX12        3.3500    3.1870   -5.2480 h1        1 A4C      0.078450
     73 HX21        3.7300    1.4930   -7.1070 hc        1 A4C      0.059450
     74 HX22        5.5020    1.4930   -6.7570 hc        1 A4C      0.059450
     75 HX31        3.8200    3.9530   -7.6130 hc        1 A4C      0.053450
     76 HX32        5.5850    3.9800   -7.2230 hc        1 A4C      0.053450
     77 HND3        8.8510    6.1860  -16.6750 hn        1 A4C      0.497550
     78 HD51        9.7100    6.1940  -18.8340 hx        1 A4C      0.114950
     79 HD52       10.3490    4.6540  -18.0660 hx        1 A4C      0.114950
     80 HD61       11.9110    7.3570  -18.3880 hx        1 A4C      0.129200
     81 HD62       12.5670    5.8490  -17.5700 hx        1 A4C      0.129200
     82 HD01       13.1860    7.6200  -20.2920 hx        1 A4C      0.118617
     83 HD02       14.3380    6.5050  -19.3900 hx        1 A4C      0.118617
     84 HD03       13.8860    6.1460  -21.1320 hx        1 A4C      0.118617
     85 HD91       11.8660    3.6770  -19.2980 hx        1 A4C      0.118617
     86 HD92       13.5930    4.1600  -18.9040 hx        1 A4C      0.118617
     87 HD93       13.0740    3.9550  -20.6510 hx        1 A4C      0.118617
     88 H26        11.3410    4.7080  -13.2170 ha        1 A4C      0.174500
     89 H15        10.0670    4.5260  -11.0910 ha        1 A4C      0.178500
     90 H17         7.6260    4.8720  -11.0540 ha        1 A4C      0.151000
     91 H19         6.3150    7.1320  -17.5350 ha        1 A4C      0.140500
     92 H20         3.9290    7.8270  -17.5290 ha        1 A4C      0.167500
     93 H21         2.5220    7.4790  -15.5070 ha        1 A4C      0.166500
     94 H23         3.4370    6.3860  -13.5130 ha        1 A4C      0.140500
     95 HN11        4.1890    4.9210  -12.4750 hn        1 A4C      0.452800
     96 HX41        6.4670    3.2720  -11.5200 h1        1 A4C      0.078450
     97 HX42        4.7110    2.8380  -11.6290 h1        1 A4C      0.078450
     98 HX51        6.0350    4.7860   -9.6050 hc        1 A4C      0.059450
     99 HX52        4.2510    4.7340   -9.8770 hc        1 A4C      0.059450
    100 HX61        6.0420    2.3410   -9.0600 hc        1 A4C      0.053450
    101 HX62        4.2740    2.2360   -9.4240 hc        1 A4C      0.053450
    102 HD13        0.4320    0.5130    0.0370 hn        1 A4C      0.497550
    103 HD23       -1.8820   -1.7460    3.4120 hn        1 A4C      0.454800
    104 HD33       10.2050    7.2180  -16.5790 hn        1 A4C      0.497550
    105 HD41       11.6010    5.8280  -20.3870 hn        1 A4C      0.454800
    106 CD4        10.4660    5.4260  -15.5620 c         1 A4C      0.597200
@<TRIPOS>BOND
     1    1    2 2   
     2    2    3 1   
     3    2    9 1   
     4    3    4 1   
     5    3   52 1   
     6    3  102 1   
     7    4    5 1   
     8    4   53 1   
     9    4   54 1   
    10    5    6 1   
    11    5   55 1   
    12    5   56 1   
    13    6    7 1   
    14    6    8 1   
    15    6  103 1   
    16    7   57 1   
    17    7   58 1   
    18    7   59 1   
    19    8   60 1   
    20    8   61 1   
    21    8   62 1   
    22    9   10 ar  
    23    9   12 ar  
    24   10   11 ar  
    25   10   63 1   
    26   11   14 ar  
    27   11   64 1   
    28   12   13 ar  
    29   12   15 ar  
    30   13   14 ar  
    31   13   22 ar  
    32   14   65 1   
    33   15   16 ar  
    34   16   17 ar  
    35   16   20 ar  
    36   17   18 ar  
    37   17   66 1   
    38   18   19 ar  
    39   18   67 1   
    40   19   21 ar  
    41   19   68 1   
    42   20   21 ar  
    43   20   22 ar  
    44   21   69 1   
    45   22   23 1   
    46   23   24 1   
    47   23   70 1   
    48   24   25 1   
    49   24   71 1   
    50   24   72 1   
    51   25   26 1   
    52   25   73 1   
    53   25   74 1   
    54   26   51 1   
    55   26   75 1   
    56   26   76 1   
    57   27  106 2   
    58   28   29 1   
    59   28   77 1   
    60   28  104 1   
    61   28  106 1   
    62   29   30 1   
    63   29   78 1   
    64   29   79 1   
    65   30   31 1   
    66   30   80 1   
    67   30   81 1   
    68   31   32 1   
    69   31   33 1   
    70   31  105 1   
    71   32   82 1   
    72   32   83 1   
    73   32   84 1   
    74   33   85 1   
    75   33   86 1   
    76   33   87 1   
    77   34   35 ar  
    78   34   37 ar  
    79   34  106 1   
    80   35   36 ar  
    81   35   88 1   
    82   36   39 ar  
    83   36   89 1   
    84   37   38 ar  
    85   37   40 ar  
    86   38   39 ar  
    87   38   47 ar  
    88   39   90 1   
    89   40   41 ar  
    90   41   42 ar  
    91   41   45 ar  
    92   42   43 ar  
    93   42   91 1   
    94   43   44 ar  
    95   43   92 1   
    96   44   46 ar  
    97   44   93 1   
    98   45   46 ar  
    99   45   47 ar  
   100   46   94 1   
   101   47   48 1   
   102   48   49 1   
   103   48   95 1   
   104   49   50 1   
   105   49   96 1   
   106   49   97 1   
   107   50   51 1   
   108   50   98 1   
   109   50   99 1   
   110   51  100 1   
   111   51  101 1   
@<TRIPOS>SUBSTRUCTURE
     1 A4C         1 TEMP              0 ****  ****    0 ROOT
