@<TRIPOS>MOLECULE
A4C
  102   107     1     0     0
SMALL
bcc


@<TRIPOS>ATOM
      1 OD1        10.9210    1.7170   -2.3410 o         1 A4C     -0.613100
      2 CD1        10.0810    1.6560   -1.4200 c         1 A4C      0.685200
      3 ND1        10.4570    1.5350   -0.0990 n         1 A4C     -0.549900
      4 CD2        11.8170    1.2750    0.2870 c3        1 A4C      0.083500
      5 CD3        12.3610    2.3540    1.2550 c3        1 A4C      0.152800
      6 ND2        13.6270    1.9710    1.8650 n3        1 A4C     -0.738600
      7 CD8        14.7000    1.8100    0.9090 c3        1 A4C      0.155100
      8 CD7        13.9840    2.8420    2.9630 c3        1 A4C      0.155100
      9 C4          8.6200    1.8100   -1.7130 ca        1 A4C     -0.195900
     10 C3          8.2190    2.8970   -2.4400 ca        1 A4C     -0.055000
     11 C2          6.8500    3.0800   -2.7710 ca        1 A4C     -0.152500
     12 C12         7.6650    0.8040   -1.2910 ca        1 A4C      0.461600
     13 C11         6.2860    0.9770   -1.6740 ca        1 A4C     -0.195300
     14 C1          5.9190    2.1520   -2.4000 ca        1 A4C     -0.086000
     15 N10         8.0960   -0.2470   -0.5610 nb        1 A4C     -0.701500
     16 C14         7.2100   -1.2100   -0.2160 ca        1 A4C      0.449600
     17 C5          7.6810   -2.3410    0.5530 ca        1 A4C     -0.181300
     18 C6          6.8400   -3.3640    0.8740 ca        1 A4C     -0.109000
     19 C7          5.4830   -3.3480    0.4480 ca        1 A4C     -0.140000
     20 C13         5.8220   -1.1700   -0.5900 ca        1 A4C     -0.190300
     21 C8          4.9940   -2.2890   -0.2610 ca        1 A4C     -0.102500
     22 C9          5.3480   -0.0310   -1.3030 ca        1 A4C      0.211100
     23 N9          4.0010    0.0440   -1.6920 nh        1 A4C     -0.740600
     24 CX1         2.9920    0.1360   -0.6560 c3        1 A4C      0.184800
     25 CX2         1.6530   -0.4590   -1.0950 c3        1 A4C     -0.086900
     26 CX3         0.6380   -0.3150    0.0190 c3        1 A4C     -0.080400
     27 OD2        -9.3450    1.4480   -2.6150 o         1 A4C     -0.613100
     28 ND3       -10.1510    1.1990   -0.4790 n         1 A4C     -0.549900
     29 CD5       -11.5330    1.1580   -0.8730 c3        1 A4C      0.083500
     30 CD6       -12.3520    2.3100   -0.2400 c3        1 A4C      0.152800
     31 ND4       -13.7880    2.1330   -0.4080 n3        1 A4C     -0.738600
     32 CD0       -14.5460    3.0420    0.4240 c3        1 A4C      0.155100
     33 CD9       -14.2110    2.1560   -1.7900 c3        1 A4C      0.155100
     34 C25        -7.7260    1.1860   -0.8800 ca        1 A4C     -0.195900
     35 C26        -6.8670    2.2060   -1.1870 ca        1 A4C     -0.055000
     36 C15        -5.5200    2.1800   -0.7360 ca        1 A4C     -0.152500
     37 C27        -7.2730    0.0390   -0.1190 ca        1 A4C      0.461600
     38 C16        -5.8830   -0.0150    0.2570 ca        1 A4C     -0.195300
     39 C17        -5.0470    1.1060   -0.0380 ca        1 A4C     -0.086000
     40 N12        -8.1580   -0.9300    0.2050 nb        1 A4C     -0.701500
     41 C18        -7.7220   -2.0060    0.8980 ca        1 A4C      0.449600
     42 C19        -8.6820   -3.0280    1.2610 ca        1 A4C     -0.181300
     43 C20        -8.2880   -4.1460    1.9310 ca        1 A4C     -0.109000
     44 C21        -6.9230   -4.3370    2.2830 ca        1 A4C     -0.140000
     45 C22        -6.3470   -2.1920    1.2780 ca        1 A4C     -0.190300
     46 C23        -5.9880   -3.3940    1.9660 ca        1 A4C     -0.102500
     47 C24        -5.4100   -1.1740    0.9370 ca        1 A4C      0.211100
     48 N11        -4.0620   -1.2600    1.3240 nh        1 A4C     -0.740600
     49 CX4        -3.0580   -1.3350    0.2810 c3        1 A4C      0.184800
     50 CX5        -1.7140   -0.7580    0.7270 c3        1 A4C     -0.086900
     51 CX6        -0.7010   -0.8930   -0.3900 c3        1 A4C     -0.080400
     52 HND1        9.7590    1.3770    0.5880 hn        1 A4C      0.319000
     53 HD21       12.4610    1.2480   -0.6390 h1        1 A4C      0.065200
     54 HD22       11.8740    0.2650    0.7860 h1        1 A4C      0.065200
     55 HD31       11.6180    2.5070    2.0890 h1        1 A4C      0.034200
     56 HD32       12.4470    3.3300    0.6930 h1        1 A4C      0.034200
     57 HD81       14.4340    0.9800    0.2030 h1        1 A4C      0.032033
     58 HD82       14.9040    2.7390    0.3090 h1        1 A4C      0.032033
     59 HD83       15.6380    1.5250    1.4540 h1        1 A4C      0.032033
     60 HD71       14.1560    3.9080    2.6480 h1        1 A4C      0.032033
     61 HD72       13.1620    2.8250    3.7260 h1        1 A4C      0.032033
     62 HD73       14.9220    2.4560    3.4410 h1        1 A4C      0.032033
     63 H3          8.9600    3.6380   -2.7830 ha        1 A4C      0.155000
     64 H2          6.5590    3.9790   -3.3350 ha        1 A4C      0.140500
     65 H1          4.8670    2.3320   -2.6690 ha        1 A4C      0.134500
     66 H5          8.7390   -2.3570    0.8630 ha        1 A4C      0.153500
     67 H6          7.2010   -4.2250    1.4580 ha        1 A4C      0.138000
     68 H7          4.8420   -4.2080    0.6920 ha        1 A4C      0.135500
     69 H8          3.9500   -2.3070   -0.6140 ha        1 A4C      0.132500
     70 HN9         3.8320    0.6810   -2.4420 hn        1 A4C      0.398800
     71 HX11        3.3490   -0.4040    0.2660 h1        1 A4C      0.045450
     72 HX12        2.8240    1.2150   -0.3640 h1        1 A4C      0.045450
     73 HX21        1.2810    0.0620   -2.0150 hc        1 A4C      0.050700
     74 HX22        1.7830   -1.5420   -1.3540 hc        1 A4C      0.050700
     75 HX31        1.0090   -0.8390    0.9390 hc        1 A4C      0.044450
     76 HX32        0.5140    0.7690    0.2820 hc        1 A4C      0.044450
     77 HND3       -9.9440    0.9430    0.4570 hn        1 A4C      0.319000
     78 HD51      -11.5960    1.2320   -1.9960 h1        1 A4C      0.065200
     79 HD52      -11.9780    0.1710   -0.5570 h1        1 A4C      0.065200
     80 HD61      -12.1430    2.3430    0.8670 h1        1 A4C      0.034200
     81 HD62      -11.9980    3.2870   -0.6820 h1        1 A4C      0.034200
     82 HD01      -14.3820    4.1240    0.1650 h1        1 A4C      0.032033
     83 HD02      -15.6370    2.8100    0.3100 h1        1 A4C      0.032033
     84 HD03      -14.2570    2.8840    1.4960 h1        1 A4C      0.032033
     85 HD91      -15.3240    2.0200   -1.8360 h1        1 A4C      0.032033
     86 HD92      -13.9480    3.1130   -2.3200 h1        1 A4C      0.032033
     87 HD93      -13.7260    1.3030   -2.3330 h1        1 A4C      0.032033
     88 H26        -7.2160    3.0600   -1.7910 ha        1 A4C      0.155000
     89 H15        -4.8720    3.0400   -0.9600 ha        1 A4C      0.140500
     90 H17        -4.0060    1.1120    0.3270 ha        1 A4C      0.134500
     91 H19        -9.7360   -2.8760    0.9780 ha        1 A4C      0.153500
     92 H20        -9.0180   -4.9230    2.2080 ha        1 A4C      0.138000
     93 H21        -6.6370   -5.2590    2.8120 ha        1 A4C      0.135500
     94 H23        -4.9400   -3.5800    2.2430 ha        1 A4C      0.132500
     95 HN11       -3.8970   -1.9250    2.0520 hn        1 A4C      0.398800
     96 HX41       -3.4160   -0.7720   -0.6270 h1        1 A4C      0.045450
     97 HX42       -2.8970   -2.4090   -0.0360 h1        1 A4C      0.045450
     98 HX51       -1.3450   -1.2950    1.6390 hc        1 A4C      0.050700
     99 HX52       -1.8350    0.3230    1.0020 hc        1 A4C      0.050700
    100 HX61       -1.0740   -0.3650   -1.3060 hc        1 A4C      0.044450
    101 HX62       -0.5760   -1.9750   -0.6600 hc        1 A4C      0.044450
    102 CD4        -9.1280    1.2610   -1.3990 c         1 A4C      0.685200
@<TRIPOS>BOND
     1    1    2 2   
     2    2    3 1   
     3    2    9 1   
     4    3    4 1   
     5    3   52 1   
     6    4    5 1   
     7    4   53 1   
     8    4   54 1   
     9    5    6 1   
    10    5   55 1   
    11    5   56 1   
    12    6    7 1   
    13    6    8 1   
    14    7   57 1   
    15    7   58 1   
    16    7   59 1   
    17    8   60 1   
    18    8   61 1   
    19    8   62 1   
    20    9   10 ar  
    21    9   12 ar  
    22   10   11 ar  
    23   10   63 1   
    24   11   14 ar  
    25   11   64 1   
    26   12   13 ar  
    27   12   15 ar  
    28   13   14 ar  
    29   13   22 ar  
    30   14   65 1   
    31   15   16 ar  
    32   16   17 ar  
    33   16   20 ar  
    34   17   18 ar  
    35   17   66 1   
    36   18   19 ar  
    37   18   67 1   
    38   19   21 ar  
    39   19   68 1   
    40   20   21 ar  
    41   20   22 ar  
    42   21   69 1   
    43   22   23 1   
    44   23   24 1   
    45   23   70 1   
    46   24   25 1   
    47   24   71 1   
    48   24   72 1   
    49   25   26 1   
    50   25   73 1   
    51   25   74 1   
    52   26   51 1   
    53   26   75 1   
    54   26   76 1   
    55   27  102 2   
    56   28   29 1   
    57   28   77 1   
    58   28  102 1   
    59   29   30 1   
    60   29   78 1   
    61   29   79 1   
    62   30   31 1   
    63   30   80 1   
    64   30   81 1   
    65   31   32 1   
    66   31   33 1   
    67   32   82 1   
    68   32   83 1   
    69   32   84 1   
    70   33   85 1   
    71   33   86 1   
    72   33   87 1   
    73   34   35 ar  
    74   34   37 ar  
    75   34  102 1   
    76   35   36 ar  
    77   35   88 1   
    78   36   39 ar  
    79   36   89 1   
    80   37   38 ar  
    81   37   40 ar  
    82   38   39 ar  
    83   38   47 ar  
    84   39   90 1   
    85   40   41 ar  
    86   41   42 ar  
    87   41   45 ar  
    88   42   43 ar  
    89   42   91 1   
    90   43   44 ar  
    91   43   92 1   
    92   44   46 ar  
    93   44   93 1   
    94   45   46 ar  
    95   45   47 ar  
    96   46   94 1   
    97   47   48 1   
    98   48   49 1   
    99   48   95 1   
   100   49   50 1   
   101   49   96 1   
   102   49   97 1   
   103   50   51 1   
   104   50   98 1   
   105   50   99 1   
   106   51  100 1   
   107   51  101 1   
@<TRIPOS>SUBSTRUCTURE
     1 A4C         1 TEMP              0 ****  ****    0 ROOT
