@<TRIPOS>MOLECULE
A4D
   32    27     1     0     0
SMALL
bcc


@<TRIPOS>ATOM
      1 N1         -2.5060   -0.3530   -3.9670 n1        1 A4D     -0.268000
      2 C2         -1.1210   -0.4210   -3.9800 c1        1 A4D      0.028000
      3 N3         -0.4170   -0.2320   -2.8290 n1        1 A4D     -0.206000
      4 C4         -1.0730    0.0240   -1.6640 c1        1 A4D     -0.081500
      5 C5         -2.4240    0.0900   -1.6530 c1        1 A4D     -0.081500
      6 C6         -3.1460   -0.1050   -2.8380 c1        1 A4D      0.244000
      7 N6         -4.5590    0.0980   -3.1860 n3        1 A4D     -0.358000
      8 N7         -2.8230    0.3560   -0.3730 n1        1 A4D     -0.154000
      9 C8         -1.7180    0.4540    0.4000 c1        1 A4D     -0.062000
     10 N9         -0.6310    0.2500   -0.3910 n1        1 A4D     -0.154000
     11 OAB         3.4710    0.8430    1.1810 oh        1 A4D     -0.312000
     12 OAC         2.0360    1.7980   -0.6610 oh        1 A4D     -0.306000
     13 SAD         1.3320   -2.5340    3.7750 sh        1 A4D     -0.011000
     14 CAG         1.6460   -0.9090    3.4350 c3        1 A4D     -0.285000
     15 OAK         0.7120   -0.9600    1.2850 os        1 A4D     -0.261000
     16 CAO         2.1870    0.7520    1.5830 c3        1 A4D     -0.036000
     17 CAP         1.2570    1.1550    0.4590 c3        1 A4D     -0.030000
     18 CAQ         1.8300   -0.7290    1.9140 c3        1 A4D      0.033000
     19 CAR         0.7030    0.0160    0.0430 c2        1 A4D      0.123000
     20 H2         -0.6590   -0.6020   -4.7980 ha        1 A4D      0.191000
     21 HN6        -4.8820   -0.1850   -4.0210 hn        1 A4D      0.245000
     22 HN6A       -5.1550    0.5120   -2.5560 hn        1 A4D      0.245000
     23 H8         -1.7040    0.6120    1.3860 DU        1 A4D      0.198000
     24 HOAB        3.9540    1.1990    1.8250 ho        1 A4D      0.219000
     25 HOAC        2.5950    1.1900   -1.0270 ho        1 A4D      0.223000
     26 HSAD        1.3710   -2.7060    4.9540 hs        1 A4D      0.038000
     27 HAG         2.4440   -0.6390    3.8860 h1        1 A4D      0.116000
     28 HAGA        0.9190   -0.3770    3.7320 h1        1 A4D      0.116000
     29 HAO         2.0330    1.3300    2.3790 h1        1 A4D      0.118000
     30 HAP         0.6020    1.7360    0.7750 h1        1 A4D      0.142000
     31 HAQ         2.5090   -1.3060    1.5970 h1        1 A4D      0.155000
     32 HAR         1.2160   -0.3560   -0.6660 h4        1 A4D      0.172000
@<TRIPOS>BOND
     1    1    6 1   
     2    2    3 1   
     3    2   20 1   
     4    4    5 1   
     5    6    7 1   
     6    7   21 1   
     7    7   22 1   
     8    8    9 1   
     9    9   10 1   
    10   11   16 1   
    11   11   24 1   
    12   12   17 1   
    13   12   25 1   
    14   13   14 1   
    15   13   26 1   
    16   14   18 1   
    17   14   27 1   
    18   14   28 1   
    19   15   18 1   
    20   15   19 1   
    21   16   17 1   
    22   16   18 1   
    23   16   29 1   
    24   17   19 1   
    25   17   30 1   
    26   18   31 1   
    27   19   32 1   
@<TRIPOS>SUBSTRUCTURE
     1 A4D         1 TEMP              0 ****  ****    0 ROOT
