@<TRIPOS>MOLECULE
A4D
   33    32     1     0     0
SMALL
bcc


@<TRIPOS>ATOM
      1 N1         -0.2600   -0.2490   -0.1920 n1        1 A4D     -1.172500
      2 C2          0.1880   -0.2670   -1.2970 c1        1 A4D      0.631800
      3 N3          2.4420    0.1700    1.2970 n2        1 A4D     -0.657100
      4 C4          1.5810    0.1040    2.2340 ce        1 A4D      0.638500
      5 C5          0.0450   -0.0670    2.2120 ce        1 A4D      0.049400
      6 C6         -0.7350   -0.2260    1.0930 cf        1 A4D      0.497700
      7 N6         -2.2040   -0.3880    1.2480 n4        1 A4D     -0.713400
      8 N7         -0.3590   -0.0320    3.5480 nh        1 A4D     -0.596800
      9 C8          0.7290    0.1230    4.4150 c1        1 A4D      0.254800
     10 N9          1.8860    0.1970    3.6630 nh        1 A4D     -0.473000
     11 OAB         6.8890    1.0070    5.9310 oh        1 A4D     -0.488100
     12 OAC         5.8440    1.4040    2.9590 oh        1 A4D     -0.586800
     13 OAK         3.3480    0.3530    5.3990 os        1 A4D     -0.231700
     14 CAO         5.6500    1.0770    5.3380 c2        1 A4D      0.045900
     15 CAP         5.4810    2.0130    4.1760 c3        1 A4D      0.150600
     16 CAQ         4.6790    0.2970    5.8750 c2        1 A4D      0.005900
     17 CAR         3.2230    0.2750    4.0680 c1        1 A4D      0.197600
     18 H2          2.1450    0.1000    0.3500 hn        1 A4D      0.440400
     19 HN6        -2.5910    0.4430    1.7100 hn        1 A4D      0.468133
     20 HN6A       -2.6660   -0.4990    0.3360 hn        1 A4D      0.468133
     21 H8         -1.2880   -0.1130    3.8770 hn        1 A4D      0.468800
     22 HOAB        7.5270    1.4250    5.3300 ho        1 A4D      0.446000
     23 HOAC        5.1770    0.7270    2.7620 ho        1 A4D      0.429000
     24 HSAD        6.2890   -2.2570    6.1570 hs        1 A4D      0.215800
     25 HAO         6.1790    2.8910    4.2800 h1        1 A4D      0.065700
     26 HAP         1.4280    0.3140    6.8740 ha        1 A4D      0.001000
     27 HAQ         1.8130    0.3960    7.4260 ha        1 A4D      0.001000
     28 HAR         4.4210    2.3860    4.1410 h1        1 A4D      0.065700
     29 H63        -2.3960   -1.2210    1.8150 hn        1 A4D      0.468133
     30 CAG         4.8020   -0.6090    7.0320 c3        1 A4D      0.055900
     31 HAG         3.8530   -0.6030    7.6320 h1        1 A4D      0.108200
     32 SAD         5.0360   -2.3040    6.5800 sh        1 A4D     -0.362900
     33 HAGA        5.6400   -0.2500    7.6830 h1        1 A4D      0.108200
@<TRIPOS>BOND
     1    1    2 3   
     2    1    6 1   
     3    3    4 2   
     4    3   18 1   
     5    4    5 1   
     6    4   10 1   
     7    5    6 2   
     8    5    8 1   
     9    6    7 1   
    10    7   19 1   
    11    7   20 1   
    12    7   29 1   
    13    8    9 3   
    14    8   21 1   
    15    9   10 1   
    16   10   17 3   
    17   11   14 1   
    18   11   22 1   
    19   12   15 1   
    20   12   23 1   
    21   13   16 1   
    22   13   17 1   
    23   14   15 1   
    24   14   16 2   
    25   15   25 1   
    26   15   28 1   
    27   16   30 1   
    28   24   32 1   
    29   26   27 1   
    30   30   31 1   
    31   30   32 1   
    32   30   33 1   
@<TRIPOS>SUBSTRUCTURE
     1 A4D         1 TEMP              0 ****  ****    0 ROOT
