@<TRIPOS>MOLECULE
A4D
   32    34     1     0     0
SMALL
bcc


@<TRIPOS>ATOM
      1 N1         -4.5140    0.4770    0.8640 nb        1 A4D     -0.795000
      2 C2         -3.7760   -0.4030    1.5870 ca        1 A4D      0.690900
      3 N3         -2.5070   -0.8420    1.4030 nb        1 A4D     -0.732000
      4 C4         -1.9140   -0.2830    0.3070 ca        1 A4D      0.478800
      5 C5         -2.5750    0.6770   -0.5700 ca        1 A4D     -0.240200
      6 C6         -3.9250    1.0420   -0.2460 ca        1 A4D      0.766200
      7 N6         -4.6070    1.9320   -1.0300 nh        1 A4D     -0.962500
      8 N7         -1.7070    1.0610   -1.6050 nc        1 A4D     -0.535100
      9 C8         -0.5770    0.3800   -1.3810 cd        1 A4D      0.394700
     10 N9         -0.6380   -0.4810   -0.2520 na        1 A4D     -0.285000
     11 OAB         3.7160   -1.9580   -0.8260 oh        1 A4D     -0.597800
     12 OAC         1.5480   -3.2610   -0.1430 oh        1 A4D     -0.582800
     13 OAK         1.3190   -0.3610    1.0870 os        1 A4D     -0.402600
     14 CAO         2.5880   -1.1090   -0.8210 c3        1 A4D      0.084100
     15 CAP         1.3220   -1.9830   -0.6950 c3        1 A4D      0.125100
     16 CAQ         2.5670   -0.1740    0.4080 c3        1 A4D      0.100100
     17 CAR         0.4390   -1.2250    0.3500 c3        1 A4D      0.244800
     18 H2         -4.2990   -0.8290    2.4720 h5        1 A4D      0.054100
     19 HN6        -5.5360    2.1920   -0.8110 hn        1 A4D      0.450300
     20 HN6A       -4.1530    2.3270   -1.8140 hn        1 A4D      0.450300
     21 H8          0.3260    0.4320   -2.0000 h5        1 A4D      0.064800
     22 HOAB        4.4930   -1.3870   -0.9050 ho        1 A4D      0.431000
     23 HOAC        2.3800   -3.5990   -0.5030 ho        1 A4D      0.436000
     24 HSAD        4.9800    1.7220    0.6720 hs        1 A4D      0.210800
     25 HAO         2.5560   -0.5130   -1.7750 h1        1 A4D      0.057700
     26 HAP         0.8190   -2.0990   -1.6920 h1        1 A4D      0.070700
     27 HAQ         3.3580   -0.4850    1.1480 h1        1 A4D      0.083700
     28 HAR         0.0070   -1.9360    1.1190 h2        1 A4D      0.147700
     29 CAG         2.7260    1.2900    0.0510 c3        1 A4D     -0.024300
     30 HAG         2.4330    1.9150    0.9300 h1        1 A4D      0.092700
     31 SAD         4.3620    1.6630   -0.4960 sh        1 A4D     -0.371900
     32 HAGA        2.0500    1.5680   -0.7970 h1        1 A4D      0.092700
@<TRIPOS>BOND
     1    1    2 ar  
     2    1    6 ar  
     3    2    3 ar  
     4    2   18 1   
     5    3    4 ar  
     6    4    5 ar  
     7    4   10 1   
     8    5    6 ar  
     9    5    8 1   
    10    6    7 1   
    11    7   19 1   
    12    7   20 1   
    13    8    9 2   
    14    9   10 1   
    15    9   21 1   
    16   10   17 1   
    17   11   14 1   
    18   11   22 1   
    19   12   15 1   
    20   12   23 1   
    21   13   16 1   
    22   13   17 1   
    23   14   15 1   
    24   14   16 1   
    25   14   25 1   
    26   15   17 1   
    27   15   26 1   
    28   16   27 1   
    29   16   29 1   
    30   17   28 1   
    31   24   31 1   
    32   29   30 1   
    33   29   31 1   
    34   29   32 1   
@<TRIPOS>SUBSTRUCTURE
     1 A4D         1 TEMP              0 ****  ****    0 ROOT
