@<TRIPOS>MOLECULE
A4D
   32    32     1     0     0
SMALL
bcc


@<TRIPOS>ATOM
      1 N1         -0.5980    0.1830   -0.4700 n2        1 A4D     -0.339000
      2 C2         -0.4120    0.1970   -1.6410 c1        1 A4D      0.157000
      3 N3          2.3370    0.6810    0.4370 n2        1 A4D     -0.233000
      4 C4          1.6640    0.5750    1.5230 c2        1 A4D      0.111000
      5 C5          0.1810    0.3380    1.7960 c2        1 A4D     -0.024000
      6 C6         -0.8410    0.1620    0.9000 c2        1 A4D      0.081000
      7 N6         -2.1700   -0.0400    1.3860 n3        1 A4D     -0.305000
      8 N7          0.0530    0.3370    3.2080 n3        1 A4D     -0.269000
      9 C8          1.2630    0.5350    3.8260 c1        1 A4D      0.076000
     10 N9          2.2320    0.7050    2.8540 n3        1 A4D     -0.281000
     11 OAB         5.7400    0.3810    5.9500 oh        1 A4D     -0.315000
     12 OAC         5.1240    2.2400    4.3120 oh        1 A4D     -0.320000
     13 OAK         4.2050   -0.5970    3.1190 os        1 A4D     -0.268000
     14 CAO         4.4690    0.1970    5.3770 c3        1 A4D      0.017000
     15 CAP         4.0180    1.3770    4.4840 c3        1 A4D     -0.026000
     16 CAQ         4.4150   -1.0380    4.4630 c3        1 A4D     -0.066000
     17 CAR         3.6550    0.7280    3.1070 c3        1 A4D      0.138000
     18 H2          1.8410    0.5850   -0.4200 hn        1 A4D      0.177000
     19 HN6        -2.7990    0.6570    1.0330 hn        1 A4D      0.174500
     20 HN6A       -2.5060   -0.9550    1.1500 hn        1 A4D      0.174500
     21 H8         -0.8130    0.2210    3.6710 hn        1 A4D      0.277000
     22 HOAB        6.3470    0.6600    5.2500 ho        1 A4D      0.222000
     23 HOAC        4.7870    3.0560    3.9230 ho        1 A4D      0.215000
     24 HSAD        7.5370   -1.0400    9.3860 hs        1 A4D     -0.358000
     25 HAO         4.1770    1.2490    2.2510 h2        1 A4D      0.154000
     26 HAP         5.3840   -1.5990    4.4540 h1        1 A4D      0.105000
     27 HAQ         3.7760    0.0810    6.2550 h1        1 A4D      0.137000
     28 HAR         3.1520    1.9190    4.9450 h1        1 A4D      0.125000
     29 CAG         5.4320   -1.4290   10.0150 c1        1 A4D     -1.007000
     30 HAG         4.6870   -2.1380   10.2770 ha        1 A4D      0.204000
     31 SAD         6.3800   -0.5060    9.6770 sh        1 A4D      1.161000
     32 HAGA        3.5730   -1.7170    4.7500 h1        1 A4D      0.105000
@<TRIPOS>BOND
     1    1    2 1   
     2    1    6 1   
     3    3    4 1   
     4    3   18 1   
     5    4    5 1   
     6    4   10 1   
     7    5    6 1   
     8    5    8 1   
     9    6    7 1   
    10    7   19 1   
    11    7   20 1   
    12    8    9 1   
    13    8   21 1   
    14    9   10 1   
    15   10   17 1   
    16   11   14 1   
    17   11   22 1   
    18   12   15 1   
    19   12   23 1   
    20   13   16 1   
    21   13   17 1   
    22   14   15 1   
    23   14   16 1   
    24   14   27 1   
    25   15   17 1   
    26   15   28 1   
    27   16   26 1   
    28   16   32 1   
    29   17   25 1   
    30   24   31 1   
    31   29   30 1   
    32   29   31 1   
@<TRIPOS>SUBSTRUCTURE
     1 A4D         1 TEMP              0 ****  ****    0 ROOT
