@<TRIPOS>MOLECULE
A4D
   32    31     1     0     0
SMALL
bcc


@<TRIPOS>ATOM
      1 N1         -0.5630    0.7790    0.0850 n2        1 A4D     -0.340000
      2 C2         -0.3230    1.5310   -0.7990 c1        1 A4D      0.158000
      3 N3          2.2020    0.8980    1.5070 n2        1 A4D     -0.250000
      4 C4          1.5010    0.0710    2.1920 c2        1 A4D      0.098000
      5 C5          0.0670   -0.4250    2.0650 c2        1 A4D     -0.022000
      6 C6         -0.8670   -0.1090    1.1130 c2        1 A4D      0.083000
      7 N6         -2.1660   -0.7020    1.1840 n8        1 A4D     -0.305000
      8 N7         -0.1260   -1.3110    3.1550 n7        1 A4D     -0.279000
      9 C8          1.0070   -1.4380    3.9230 c1        1 A4D      0.132000
     10 N9          1.9990   -0.6410    3.3670 n3        1 A4D     -0.209000
     11 OAB         6.0870    0.2340    3.9030 oh        1 A4D     -0.341000
     12 OAC         5.3640    2.4220    2.8510 oh        1 A4D     -0.333000
     13 OAK         3.3990   -0.1850    5.1520 os        1 A4D      0.083000
     14 CAO         5.5150    1.0980    4.8800 c3        1 A4D      0.025000
     15 CAP         4.9150    2.3400    4.1880 c3        1 A4D     -0.057000
     16 CAQ         4.4930    0.3580    5.6550 c2        1 A4D     -0.267000
     17 CAR         3.2870   -0.4680    3.8440 c2        1 A4D     -0.114000
     18 H2          1.7700    1.3240    0.7190 hn        1 A4D      0.179000
     19 HN6        -2.3550   -1.2610    0.3730 hn        1 A4D      0.175000
     20 HN6A       -2.8780   -0.0050    1.2940 hn        1 A4D      0.175000
     21 H8         -0.9780   -1.7880    3.3130 hn        1 A4D      0.277000
     22 HOAB        6.7470    0.7530    3.4220 ho        1 A4D      0.218000
     23 HOAC        4.8720    1.7640    2.3410 ho        1 A4D      0.216000
     24 HSAD        4.3330   -2.8460    9.9230 hs        1 A4D     -0.354000
     25 HAO         5.2890    3.2770    4.6780 h1        1 A4D      0.096500
     26 HAP         4.1110   -0.2550    3.1420 h5        1 A4D      0.204000
     27 HAQ         6.3240    1.4270    5.5950 h1        1 A4D      0.095000
     28 HAR         3.7950    2.3160    4.2330 h1        1 A4D      0.096500
     29 CAG         4.8540   -0.9100    8.9480 c1        1 A4D     -1.007000
     30 HAG         4.6480    0.0870    6.7130 h4        1 A4D      0.201000
     31 SAD         4.3770   -2.1820    8.8000 sh        1 A4D      1.160000
     32 HAGA        5.2260    0.0760    9.0800 ha        1 A4D      0.204000
@<TRIPOS>BOND
     1    1    2 1   
     2    1    6 1   
     3    3    4 1   
     4    3   18 1   
     5    4    5 1   
     6    4   10 1   
     7    5    6 1   
     8    5    8 1   
     9    6    7 1   
    10    7   19 1   
    11    7   20 1   
    12    8    9 1   
    13    8   21 1   
    14    9   10 1   
    15   10   17 1   
    16   11   14 1   
    17   11   22 1   
    18   12   15 1   
    19   12   23 1   
    20   13   16 1   
    21   13   17 1   
    22   14   15 1   
    23   14   16 1   
    24   14   27 1   
    25   15   25 1   
    26   15   28 1   
    27   16   30 1   
    28   17   26 1   
    29   24   31 1   
    30   29   31 1   
    31   29   32 1   
@<TRIPOS>SUBSTRUCTURE
     1 A4D         1 TEMP              0 ****  ****    0 ROOT
