@<TRIPOS>MOLECULE
A4F
   38    41     1     0     0
SMALL
bcc


@<TRIPOS>ATOM
      1 O5          1.4290   -2.5370   -0.3800 o         1 A4F     -0.808800
      2 C17         1.3930   -1.2770   -0.2800 c         1 A4F      0.906200
      3 O4          0.7970   -0.6320    0.6170 o         1 A4F     -0.808800
      4 C18         2.1140   -0.4940   -1.3800 ca        1 A4F     -0.046600
      5 C19         1.4560   -0.3980   -2.6090 ca        1 A4F     -0.174000
      6 C20         2.0310    0.2750   -3.7040 ca        1 A4F      0.119600
      7 N1          1.3310    0.4240   -4.9150 nv        1 A4F     -0.809200
      8 C16         3.3090    0.8600   -3.5370 ca        1 A4F     -0.214000
      9 C15         3.9510    0.7780   -2.3120 ca        1 A4F     -0.091000
     10 C14         3.3760    0.0980   -1.2240 ca        1 A4F     -0.123000
     11 C1          4.1460    0.0700    0.0220 cc        1 A4F      0.181000
     12 C13         4.6900   -1.1710    0.5300 ca        1 A4F     -0.216300
     13 C12         4.3690   -2.4340   -0.0080 ca        1 A4F      0.003000
     14 C11         4.9470   -3.5910    0.4890 ca        1 A4F     -0.189000
     15 C10         5.8550   -3.5080    1.5620 ca        1 A4F      0.165100
     16 O3          6.4060   -4.6910    1.9990 oh        1 A4F     -0.500100
     17 C9          6.1780   -2.2820    2.1470 ca        1 A4F     -0.333300
     18 C8          5.5770   -1.1250    1.6250 ca        1 A4F      0.396000
     19 O2          5.9430    0.0440    2.2650 os        1 A4F     -0.398800
     20 C2          4.4630    1.2330    0.6840 cd        1 A4F     -0.242100
     21 C7          5.3670    1.2280    1.8190 cd        1 A4F      0.343700
     22 C6          5.7400    2.3520    2.4900 cc        1 A4F     -0.334200
     23 C3          3.9270    2.5280    0.3240 cd        1 A4F     -0.017200
     24 C4          4.2720    3.6570    0.9740 cc        1 A4F     -0.273200
     25 C5          5.2200    3.6560    2.0950 c         1 A4F      0.581500
     26 O1          5.5610    4.7070    2.6720 o         1 A4F     -0.602100
     27 H2          0.4650   -0.8700   -2.7000 ha        1 A4F      0.144000
     28 H3          1.9330    0.4790   -5.7080 hn        1 A4F      0.371300
     29 H4          0.6170   -0.2630   -5.0370 hn        1 A4F      0.371300
     30 H5          3.7910    1.3910   -4.3700 ha        1 A4F      0.117000
     31 H6          4.9380    1.2520   -2.1900 ha        1 A4F      0.121000
     32 H7          3.5980   -2.5020   -0.8030 ha        1 A4F      0.206000
     33 H8          4.6830   -4.5750    0.0770 ha        1 A4F      0.156000
     34 H9          6.9420   -4.4980    2.7810 ho        1 A4F      0.414000
     35 H10         6.8670   -2.2070    2.9980 ha        1 A4F      0.145000
     36 H11         6.4330    2.3120    3.3400 ha        1 A4F      0.151000
     37 H12         3.2000    2.5430   -0.5080 ha        1 A4F      0.152000
     38 H13         3.8480    4.6330    0.6980 ha        1 A4F      0.139000
@<TRIPOS>BOND
     1    1    2 1   
     2    2    3 1   
     3    2    4 1   
     4    4    5 ar  
     5    4   10 ar  
     6    5    6 ar  
     7    5   27 1   
     8    6    7 1   
     9    6    8 ar  
    10    7   28 1   
    11    7   29 1   
    12    8    9 ar  
    13    8   30 1   
    14    9   10 ar  
    15    9   31 1   
    16   10   11 1   
    17   11   12 1   
    18   11   20 2   
    19   12   13 ar  
    20   12   18 ar  
    21   13   14 ar  
    22   13   32 1   
    23   14   15 ar  
    24   14   33 1   
    25   15   16 1   
    26   15   17 ar  
    27   16   34 1   
    28   17   18 ar  
    29   17   35 1   
    30   18   19 1   
    31   19   21 1   
    32   20   21 1   
    33   20   23 1   
    34   21   22 2   
    35   22   25 1   
    36   22   36 1   
    37   23   24 2   
    38   23   37 1   
    39   24   25 1   
    40   24   38 1   
    41   25   26 2   
@<TRIPOS>SUBSTRUCTURE
     1 A4F         1 TEMP              0 ****  ****    0 ROOT
