@<TRIPOS>MOLECULE
A4F
   38    41     1     0     0
SMALL
bcc


@<TRIPOS>ATOM
      1 O5          0.7320   -0.7510    0.4610 o         1 A4F     -0.808800
      2 C17         1.4510   -1.4020   -0.3380 c         1 A4F      0.906200
      3 O4          1.5990   -2.6560   -0.3410 o         1 A4F     -0.808800
      4 C18         2.1800   -0.6240   -1.4380 ca        1 A4F     -0.046600
      5 C19         1.5510   -0.5690   -2.6840 ca        1 A4F     -0.175000
      6 C20         2.1180    0.1300   -3.7670 ca        1 A4F      0.119600
      7 N1          1.5140    0.1150   -5.0370 nh        1 A4F     -0.809200
      8 C16         3.3510    0.7940   -3.5670 ca        1 A4F     -0.214000
      9 C15         3.9710    0.7400   -2.3290 ca        1 A4F     -0.091000
     10 C14         3.4060    0.0320   -1.2530 ca        1 A4F     -0.124000
     11 C1          4.1440    0.0500    0.0130 cc        1 A4F      0.182000
     12 C13         4.7390   -1.1590    0.5400 ca        1 A4F     -0.218300
     13 C12         4.4970   -2.4390    0.0000 ca        1 A4F      0.008000
     14 C11         5.1210   -3.5630    0.5160 ca        1 A4F     -0.189000
     15 C10         5.9980   -3.4290    1.6110 ca        1 A4F      0.166100
     16 O3          6.5980   -4.5800    2.0660 oh        1 A4F     -0.500100
     17 C9          6.2430   -2.1860    2.1980 ca        1 A4F     -0.334300
     18 C8          5.5960   -1.0630    1.6560 ca        1 A4F      0.396000
     19 O2          5.8850    0.1260    2.2990 os        1 A4F     -0.398800
     20 C2          4.3850    1.2310    0.6760 cd        1 A4F     -0.245100
     21 C7          5.2590    1.2760    1.8330 cd        1 A4F      0.344700
     22 C6          5.5570    2.4210    2.5070 cc        1 A4F     -0.335200
     23 C3          3.7920    2.4950    0.2960 cd        1 A4F     -0.017200
     24 C4          4.0620    3.6420    0.9490 cc        1 A4F     -0.273200
     25 C5          4.9800    3.6950    2.0930 c         1 A4F      0.582500
     26 O1          5.2510    4.7650    2.6730 o         1 A4F     -0.603100
     27 H2          0.5920   -1.0980   -2.7990 ha        1 A4F      0.144000
     28 H3          1.6940    0.9430   -5.5640 hn        1 A4F      0.370800
     29 H4          0.5390   -0.0960   -5.0000 hn        1 A4F      0.370800
     30 H5          3.8240    1.3490   -4.3890 ha        1 A4F      0.117000
     31 H6          4.9290    1.2640   -2.1850 ha        1 A4F      0.122000
     32 H7          3.7490   -2.5490   -0.8130 ha        1 A4F      0.207000
     33 H8          4.9200   -4.5600    0.1020 ha        1 A4F      0.156000
     34 H9          7.1070   -4.3560    2.8590 ho        1 A4F      0.414000
     35 H10         6.9060   -2.0720    3.0640 ha        1 A4F      0.145000
     36 H11         6.2300    2.4210    3.3740 ha        1 A4F      0.151000
     37 H12         3.0860    2.4690   -0.5530 ha        1 A4F      0.150000
     38 H13         3.5940    4.5950    0.6580 ha        1 A4F      0.138000
@<TRIPOS>BOND
     1    1    2 1   
     2    2    3 1   
     3    2    4 1   
     4    4    5 ar  
     5    4   10 ar  
     6    5    6 ar  
     7    5   27 1   
     8    6    7 1   
     9    6    8 ar  
    10    7   28 1   
    11    7   29 1   
    12    8    9 ar  
    13    8   30 1   
    14    9   10 ar  
    15    9   31 1   
    16   10   11 1   
    17   11   12 1   
    18   11   20 2   
    19   12   13 ar  
    20   12   18 ar  
    21   13   14 ar  
    22   13   32 1   
    23   14   15 ar  
    24   14   33 1   
    25   15   16 1   
    26   15   17 ar  
    27   16   34 1   
    28   17   18 ar  
    29   17   35 1   
    30   18   19 1   
    31   19   21 1   
    32   20   21 1   
    33   20   23 1   
    34   21   22 2   
    35   22   25 1   
    36   22   36 1   
    37   23   24 2   
    38   23   37 1   
    39   24   25 1   
    40   24   38 1   
    41   25   26 2   
@<TRIPOS>SUBSTRUCTURE
     1 A4F         1 TEMP              0 ****  ****    0 ROOT
