@<TRIPOS>MOLECULE
A4S
   48    50     1     0     0
SMALL
bcc


@<TRIPOS>ATOM
      1 C01         0.0000    0.0000    0.0000 ca        1 A4S     -0.215500
      2 C02         1.3810    0.0000    0.0000 ca        1 A4S     -0.055500
      3 C03         2.0740    0.0000    1.1970 ca        1 A4S     -0.228000
      4 C04         1.3870    0.0000    2.3970 ca        1 A4S     -0.055500
      5 C05         0.0070    0.0000    2.4040 ca        1 A4S     -0.215500
      6 C06        -0.6920    0.0000    1.2040 ca        1 A4S      0.007000
      7 N07        -2.0890    0.0060    1.2080 nu        1 A4S      0.060000
      8 C08        -2.8180    0.0060    2.4780 c3        1 A4S     -0.009000
      9 C09        -4.3000    0.0130    2.2070 c2        1 A4S     -0.182000
     10 C10        -4.9680   -1.1150    2.1840 c2        1 A4S     -0.557000
     11 C11        -6.4180   -1.1240    1.7780 DU        1 A4S     -0.076000
     12 C12        -6.6230   -2.1230    0.6380 c3        1 A4S     -0.024000
     13 C13        -8.0740   -2.1320    0.2310 c2        1 A4S     -0.046000
     14 C14        -8.4800   -1.3870   -0.7660 c2        1 A4S     -0.522000
     15 C15        -9.9310   -1.3960   -1.1730 DU        1 A4S      0.155000
     16 O16       -10.3740   -0.0550   -1.3870 os        1 A4S     -0.605000
     17 P17       -11.8770    0.3120   -1.8320 p5        1 A4S      1.397000
     18 O18       -12.9000   -0.1000   -0.6590 o         1 A4S     -0.697500
     19 O19       -11.9850    1.8950   -2.1060 os        1 A4S     -0.937000
     20 O20       -12.2200   -0.4270   -3.0690 o         1 A4S     -0.697500
     21 P21       -13.0670    2.8320   -2.8450 p5        1 A4S      1.057500
     22 O22       -12.9290    2.6560   -4.4390 o         1 A4S     -0.646833
     23 O23       -14.4300    2.4390   -2.4210 o         1 A4S     -0.646833
     24 O24       -12.8050    4.3700   -2.4480 o         1 A4S     -0.646833
     25 C25        -9.0590   -2.9980    0.9740 c3        1 A4S     -0.134000
     26 C26        -5.0160    1.3170    1.9620 c3        1 A4S     -0.094000
     27 H1         -0.5420    0.0000   -0.9380 ha        1 A4S      0.114000
     28 H2          1.9220   -0.0000   -0.9390 ha        1 A4S      0.077500
     29 H3          3.1580    0.0000    1.1940 ha        1 A4S      0.083000
     30 H4          1.9330    0.0000    3.3320 ha        1 A4S      0.077500
     31 H5         -0.5300   -0.0540    3.3440 ha        1 A4S      0.114000
     32 H6         -2.5920    0.0050    0.3430 hn        1 A4S      0.096000
     33 H7         -2.5510    0.8880    3.0480 h1        1 A4S      0.038500
     34 H8         -2.5590   -0.8810    3.0440 h1        1 A4S      0.038500
     35 H10        -5.7560   -0.8790    2.8880 DU        1 A4S      0.215000
     36 H12        -6.7070   -0.1340    1.4470 ha        1 A4S      0.041000
     37 H13        -7.0280   -1.4130    2.6260 ha        1 A4S      0.041000
     38 H14        -6.3350   -3.1130    0.9700 hc        1 A4S      0.048000
     39 H15        -6.0120   -1.8340   -0.2090 hc        1 A4S      0.048000
     40 H17        -8.9460   -2.1700   -1.3510 DU        1 A4S      0.327000
     41 H19       -10.5230   -1.8510   -0.3880 ha        1 A4S      0.003000
     42 H20       -10.0460   -1.9640   -2.0880 ha        1 A4S      0.003000
     43 H24        -8.5300   -3.6110    1.6930 hc        1 A4S      0.044000
     44 H25        -9.5820   -3.6350    0.2710 hc        1 A4S      0.044000
     45 H26        -9.7740   -2.3690    1.4920 hc        1 A4S      0.044000
     46 H27        -4.3340    2.1410    2.1350 hc        1 A4S      0.039667
     47 H28        -5.3690    1.3480    0.9380 hc        1 A4S      0.039667
     48 H29        -5.8590    1.3980    2.6370 hc        1 A4S      0.039667
@<TRIPOS>BOND
     1    1    2 1   
     2    1    6 1   
     3    1   27 1   
     4    2    3 1   
     5    2   28 1   
     6    3    4 1   
     7    3   29 1   
     8    4    5 1   
     9    4   30 1   
    10    5    6 1   
    11    5   31 1   
    12    6    7 1   
    13    7    8 1   
    14    7   32 1   
    15    8    9 1   
    16    8   33 1   
    17    8   34 1   
    18    9   10 1   
    19    9   26 1   
    20   10   11 1   
    21   10   35 1   
    22   11   12 1   
    23   11   35 1   
    24   11   36 1   
    25   11   37 1   
    26   12   13 1   
    27   12   38 1   
    28   12   39 1   
    29   13   14 1   
    30   13   25 1   
    31   14   15 1   
    32   14   40 1   
    33   15   16 1   
    34   15   40 1   
    35   15   41 1   
    36   15   42 1   
    37   16   17 1   
    38   17   18 1   
    39   17   19 1   
    40   17   20 1   
    41   19   21 1   
    42   21   22 1   
    43   21   23 1   
    44   21   24 1   
    45   25   43 1   
    46   25   44 1   
    47   25   45 1   
    48   26   46 1   
    49   26   47 1   
    50   26   48 1   
@<TRIPOS>SUBSTRUCTURE
     1 A4S         1 TEMP              0 ****  ****    0 ROOT
