@<TRIPOS>MOLECULE
A4V
   29    31     1     0     0
SMALL
bcc


@<TRIPOS>ATOM
      1 N1         -0.3770    1.4640    0.2980 na        1 A4V     -0.286500
      2 C1         -1.4140    2.0590    1.0630 cc        1 A4V      0.439700
      3 N2         -2.5300    1.3150    1.1090 nd        1 A4V     -0.505100
      4 C2         -2.2440    0.1700    0.3570 cd        1 A4V     -0.147900
      5 C3         -3.0340   -0.9920    0.0430 cc        1 A4V      0.818200
      6 N3         -4.2970   -1.1250    0.4860 nh        1 A4V     -0.867500
      7 N4         -2.4380   -1.9860   -0.7460 nc        1 A4V     -0.741000
      8 C4         -1.1960   -1.8290   -1.1750 cd        1 A4V      0.621400
      9 N5         -0.3470   -0.7520   -0.9400 na        1 A4V     -0.206900
     10 C5         -0.8860    0.2540   -0.1560 cd        1 A4V      0.074700
     11 C6          2.4870   -0.9280    0.4760 ca        1 A4V     -0.118500
     12 C7          3.5180   -0.4610    1.2910 ca        1 A4V     -0.120000
     13 C8          4.1080    0.7770    1.0320 ca        1 A4V     -0.091000
     14 C9          3.6660    1.5500   -0.0430 ca        1 A4V     -0.120000
     15 C10         2.6320    1.0910   -0.8570 ca        1 A4V     -0.118500
     16 C11         2.0390   -0.1520   -0.5980 ca        1 A4V     -0.169300
     17 C12         0.9890   -0.6770   -1.5240 c3        1 A4V      0.070600
     18 H1         -1.2740    3.0380    1.5470 h5        1 A4V      0.111800
     19 H2         -4.7000   -0.4040    1.0470 hn        1 A4V      0.484300
     20 H3         -4.8430   -1.9310    0.2670 hn        1 A4V      0.484300
     21 H4         -0.7810   -2.6570   -1.8020 h5        1 A4V      0.095100
     22 H6          3.8730   -1.0760    2.1330 ha        1 A4V      0.157500
     23 H7          4.9310    1.1400    1.6700 ha        1 A4V      0.159000
     24 H8          4.1430    2.5200   -0.2570 ha        1 A4V      0.157500
     25 H9          2.3080    1.6920   -1.7210 ha        1 A4V      0.141500
     26 H10         1.2760   -1.7190   -1.8540 h1        1 A4V      0.091700
     27 H11         0.9190   -0.0220   -2.4440 h1        1 A4V      0.091700
     28 H12         0.5490    1.7990    0.1690 hn        1 A4V      0.347700
     29 H5          2.0380   -1.9130    0.6740 ha        1 A4V      0.141500
@<TRIPOS>BOND
     1    1    2 1   
     2    1   10 2   
     3    1   28 1   
     4    2    3 2   
     5    2   18 1   
     6    3    4 1   
     7    4    5 2   
     8    4   10 1   
     9    5    6 1   
    10    5    7 1   
    11    6   19 1   
    12    6   20 1   
    13    7    8 2   
    14    8    9 1   
    15    8   21 1   
    16    9   10 1   
    17    9   17 1   
    18   11   12 ar  
    19   11   16 ar  
    20   11   29 1   
    21   12   13 ar  
    22   12   22 1   
    23   13   14 ar  
    24   13   23 1   
    25   14   15 ar  
    26   14   24 1   
    27   15   16 ar  
    28   15   25 1   
    29   16   17 1   
    30   17   26 1   
    31   17   27 1   
@<TRIPOS>SUBSTRUCTURE
     1 A4V         1 TEMP              0 ****  ****    0 ROOT
