@<TRIPOS>MOLECULE
A4V
   29    31     1     0     0
SMALL
bcc


@<TRIPOS>ATOM
      1 N1         -0.1170   -1.0430    0.4610 na        1 A4V     -0.286500
      2 C1          1.2860   -1.2340    0.5600 cc        1 A4V      0.439700
      3 N2          1.8090   -0.7370    1.6910 nd        1 A4V     -0.505100
      4 C2          0.7260   -0.1950    2.3930 cd        1 A4V     -0.147900
      5 C3          0.6480    0.4710    3.6670 cc        1 A4V      0.818200
      6 N3          1.7420    0.6800    4.4210 nv        1 A4V     -0.867500
      7 N4         -0.6170    0.8960    4.0980 nc        1 A4V     -0.741000
      8 C4         -1.6780    0.6850    3.3350 cd        1 A4V      0.621400
      9 N5         -1.7180    0.0620    2.0920 na        1 A4V     -0.206900
     10 C5         -0.4940   -0.3870    1.6250 cd        1 A4V      0.074700
     11 C6         -3.4190   -2.5240    1.3930 ca        1 A4V     -0.118500
     12 C7         -3.6580   -3.7360    0.7460 ca        1 A4V     -0.119500
     13 C8         -3.6220   -3.8040   -0.6470 ca        1 A4V     -0.091000
     14 C9         -3.3440   -2.6590   -1.3960 ca        1 A4V     -0.119500
     15 C10        -3.0990   -1.4460   -0.7530 ca        1 A4V     -0.118500
     16 C11        -3.1350   -1.3760    0.6450 ca        1 A4V     -0.169300
     17 C12        -2.9540   -0.0560    1.3250 c3        1 A4V      0.070600
     18 H1          1.8490   -1.7390   -0.2410 h5        1 A4V      0.111800
     19 H2          1.6850    1.1420    5.3030 hn        1 A4V      0.484300
     20 H3          2.6320    0.3680    4.0940 hn        1 A4V      0.484300
     21 H4         -2.6550    1.0520    3.7350 h5        1 A4V      0.095100
     22 H6         -3.8860   -4.6370    1.3370 ha        1 A4V      0.157500
     23 H7         -3.8220   -4.7600   -1.1580 ha        1 A4V      0.159000
     24 H8         -3.3320   -2.7090   -2.4960 ha        1 A4V      0.157500
     25 H9         -2.9100   -0.5400   -1.3510 ha        1 A4V      0.141500
     26 H10        -3.8150    0.1120    2.0370 h1        1 A4V      0.091700
     27 H11        -2.9590    0.7780    0.5610 h1        1 A4V      0.091700
     28 H12        -0.7250   -1.3730   -0.2530 hn        1 A4V      0.347700
     29 H5         -3.4660   -2.4720    2.4920 ha        1 A4V      0.141500
@<TRIPOS>BOND
     1    1    2 1   
     2    1   10 2   
     3    1   28 1   
     4    2    3 2   
     5    2   18 1   
     6    3    4 1   
     7    4    5 2   
     8    4   10 1   
     9    5    6 1   
    10    5    7 1   
    11    6   19 1   
    12    6   20 1   
    13    7    8 2   
    14    8    9 1   
    15    8   21 1   
    16    9   10 1   
    17    9   17 1   
    18   11   12 ar  
    19   11   16 ar  
    20   11   29 1   
    21   12   13 ar  
    22   12   22 1   
    23   13   14 ar  
    24   13   23 1   
    25   14   15 ar  
    26   14   24 1   
    27   15   16 ar  
    28   15   25 1   
    29   16   17 1   
    30   17   26 1   
    31   17   27 1   
@<TRIPOS>SUBSTRUCTURE
     1 A4V         1 TEMP              0 ****  ****    0 ROOT
