@<TRIPOS>MOLECULE
A4V
   29    21     1     0     0
SMALL
bcc


@<TRIPOS>ATOM
      1 N1          2.2290    0.1380   -1.8480 n2        1 A4V     -0.208000
      2 C1          3.5870    0.0330   -1.8240 c1        1 A4V     -0.014000
      3 N2          3.9820    0.0630   -0.5500 n2        1 A4V     -0.075000
      4 C2          2.8710    0.1870    0.2330 c1        1 A4V     -0.217000
      5 C3          2.7050    0.2600    1.6210 c1        1 A4V      0.297000
      6 N3          3.7040    0.1920    2.6390 n2        1 A4V     -0.265000
      7 N4          1.4830    0.3730    2.1410 n2        1 A4V     -0.219000
      8 C4          0.3850    0.4190    1.3160 c1        1 A4V      0.142000
      9 N5          0.5430    0.3490   -0.0370 n1        1 A4V     -0.162000
     10 C5          1.7970    0.2320   -0.5740 c1        1 A4V      0.086000
     11 C6         -2.8770    0.8470    0.0140 c1        1 A4V     -0.105000
     12 C7         -4.0760    0.2030    0.2890 c1        1 A4V     -0.108750
     13 C8         -4.2080   -1.1360    0.0350 c1        1 A4V     -0.108750
     14 C9         -3.1500   -1.8460   -0.4940 c1        1 A4V     -0.108750
     15 C10        -1.9560   -1.2060   -0.7670 c1        1 A4V     -0.108750
     16 C11        -1.8230    0.1390   -0.5130 c1        1 A4V     -0.167000
     17 C12        -0.5190    0.8570   -0.8610 c1        1 A4V      0.010000
     18 H1          4.1590    0.0270   -2.5850 DU        1 A4V      0.265500
     19 H2          3.5360    0.5320    3.4610 hn        1 A4V      0.279500
     20 H3          4.5000   -0.2210    2.4700 hn        1 A4V      0.279500
     21 H4         -0.5060    0.5020    1.6970 ha        1 A4V      0.247000
     22 H5         -2.7840    1.7800    0.1900 ha        1 A4V      0.141000
     23 H6         -4.8210    0.7010    0.6610 ha        1 A4V      0.153250
     24 H7         -5.0620   -1.5940    0.2310 ha        1 A4V      0.153250
     25 H8         -3.2430   -2.7920   -0.6730 ha        1 A4V      0.153250
     26 H9         -1.2190   -1.7000   -1.1350 ha        1 A4V      0.153250
     27 H10        -0.6230    1.8180   -0.7040 ha        1 A4V      0.120000
     28 H11        -0.3000    0.7000   -1.8160 ha        1 A4V      0.120000
     29 H12         1.6880    0.1430   -2.6180 DU        1 A4V      0.265500
@<TRIPOS>BOND
     1    1    2 1   
     2    1   10 1   
     3    2    3 1   
     4    3    4 1   
     5    4    5 1   
     6    5    7 1   
     7    6   19 1   
     8    6   20 1   
     9    7    8 1   
    10    8   21 1   
    11    9   10 1   
    12   11   16 1   
    13   11   22 1   
    14   12   13 1   
    15   12   23 1   
    16   13   24 1   
    17   14   15 1   
    18   14   25 1   
    19   15   26 1   
    20   17   27 1   
    21   17   28 1   
@<TRIPOS>SUBSTRUCTURE
     1 A4V         1 TEMP              0 ****  ****    0 ROOT
