@<TRIPOS>MOLECULE
A4V
   30    32     1     0     0
SMALL
bcc


@<TRIPOS>ATOM
      1 N1         -0.2360   -1.2960    0.5820 na        1 A4V     -0.281500
      2 C1          1.1770   -1.4550    0.5910 cc        1 A4V      0.555700
      3 N2          1.7840   -0.8290    1.6130 nd        1 A4V     -0.539100
      4 C2          0.7590   -0.2160    2.3400 cd        1 A4V     -0.024900
      5 C3          0.7280    0.5760    3.4930 cc        1 A4V      0.588200
      6 N3          1.9800    0.9210    4.1850 n4        1 A4V     -0.822300
      7 N4         -0.4580    1.0500    3.9900 nc        1 A4V     -0.640000
      8 C4         -1.5950    0.7460    3.3540 cd        1 A4V      0.586400
      9 N5         -1.7200   -0.0250    2.2000 na        1 A4V     -0.105900
     10 C5         -0.5530   -0.5150    1.6820 cd        1 A4V      0.102700
     11 C6         -3.4420   -2.7040    1.3910 ca        1 A4V     -0.111000
     12 C7         -3.6920   -3.8330    0.6120 ca        1 A4V     -0.118000
     13 C8         -3.6830   -3.7390   -0.7810 ca        1 A4V     -0.062000
     14 C9         -3.4170   -2.5130   -1.3980 ca        1 A4V     -0.118000
     15 C10        -3.1630   -1.3810   -0.6270 ca        1 A4V     -0.111000
     16 C11        -3.1730   -1.4740    0.7750 ca        1 A4V     -0.221300
     17 C12        -3.0560   -0.2390    1.5950 c3        1 A4V      0.059600
     18 H1          1.6930   -2.0480   -0.1950 h5        1 A4V      0.150800
     19 H2          2.3560    1.7990    3.7890 hn        1 A4V      0.503800
     20 H3          2.6700    0.1630    4.0450 hn        1 A4V      0.503800
     21 H4         -2.5410    1.1600    3.7980 h5        1 A4V      0.141100
     22 H7         -3.9060   -4.6290   -1.3960 ha        1 A4V      0.180000
     23 H8         -3.4340   -2.4360   -2.4990 ha        1 A4V      0.176500
     24 H9         -3.0070   -0.4080   -1.1210 ha        1 A4V      0.148500
     25 H10        -3.7950   -0.2790    2.4510 h1        1 A4V      0.122200
     26 H11        -3.2690    0.6800    0.9680 h1        1 A4V      0.122200
     27 H12        -0.8890   -1.6940   -0.0690 hn        1 A4V      0.383700
     28 H5         -3.4860   -2.7800    2.4890 ha        1 A4V      0.148500
     29 H33         1.8180    1.0560    5.1980 hn        1 A4V      0.503800
     30 H6         -3.9200   -4.7970    1.0990 ha        1 A4V      0.176500
@<TRIPOS>BOND
     1    1    2 1   
     2    1   10 2   
     3    1   27 1   
     4    2    3 2   
     5    2   18 1   
     6    3    4 1   
     7    4    5 2   
     8    4   10 1   
     9    5    6 1   
    10    5    7 1   
    11    6   19 1   
    12    6   20 1   
    13    6   29 1   
    14    7    8 2   
    15    8    9 1   
    16    8   21 1   
    17    9   10 1   
    18    9   17 1   
    19   11   12 ar  
    20   11   16 ar  
    21   11   28 1   
    22   12   13 ar  
    23   12   30 1   
    24   13   14 ar  
    25   13   22 1   
    26   14   15 ar  
    27   14   23 1   
    28   15   16 ar  
    29   15   24 1   
    30   16   17 1   
    31   17   25 1   
    32   17   26 1   
@<TRIPOS>SUBSTRUCTURE
     1 A4V         1 TEMP              0 ****  ****    0 ROOT
