@<TRIPOS>MOLECULE
A4V
   29    31     1     0     0
SMALL
bcc


@<TRIPOS>ATOM
      1 N1         -0.1340   -0.9360    0.4460 na        1 A4V     -0.286500
      2 C1          1.2770   -1.0760    0.5140 cc        1 A4V      0.439700
      3 N2          1.7980   -0.6250    1.6650 nd        1 A4V     -0.505100
      4 C2          0.7060   -0.1680    2.4130 cd        1 A4V     -0.147900
      5 C3          0.6230    0.4190    3.7240 cc        1 A4V      0.818200
      6 N3          1.7190    0.6270    4.4740 nh        1 A4V     -0.867500
      7 N4         -0.6510    0.7680    4.1970 nc        1 A4V     -0.741000
      8 C4         -1.7150    0.5580    3.4380 cd        1 A4V      0.621400
      9 N5         -1.7500    0.0080    2.1600 na        1 A4V     -0.206900
     10 C5         -0.5180   -0.3640    1.6520 cd        1 A4V      0.074700
     11 C6         -3.3600   -2.5990    1.3350 ca        1 A4V     -0.118500
     12 C7         -3.5620   -3.7800    0.6210 ca        1 A4V     -0.119500
     13 C8         -3.5450   -3.7660   -0.7740 ca        1 A4V     -0.091000
     14 C9         -3.3250   -2.5680   -1.4580 ca        1 A4V     -0.119500
     15 C10        -3.1170   -1.3870   -0.7490 ca        1 A4V     -0.118500
     16 C11        -3.1340   -1.3990    0.6510 ca        1 A4V     -0.169300
     17 C12        -2.9940   -0.1150    1.4050 c3        1 A4V      0.070600
     18 H1          1.8470   -1.5110   -0.3220 h5        1 A4V      0.111800
     19 H2          1.6590    1.0350    5.3830 hn        1 A4V      0.484300
     20 H3          2.6150    0.3710    4.1170 hn        1 A4V      0.484300
     21 H4         -2.7000    0.8620    3.8720 h5        1 A4V      0.095100
     22 H6         -3.7450   -4.7230    1.1610 ha        1 A4V      0.157500
     23 H7         -3.7160   -4.6980   -1.3370 ha        1 A4V      0.159000
     24 H8         -3.3290   -2.5540   -2.5600 ha        1 A4V      0.157500
     25 H9         -2.9740   -0.4400   -1.2950 ha        1 A4V      0.141500
     26 H10        -3.0430    0.7610    0.6910 h1        1 A4V      0.091700
     27 H11        -3.8490   -0.0230    2.1370 h1        1 A4V      0.091700
     28 H12        -0.7400   -1.2470   -0.2780 hn        1 A4V      0.347700
     29 H5         -3.3920   -2.6130    2.4350 ha        1 A4V      0.141500
@<TRIPOS>BOND
     1    1    2 1   
     2    1   10 2   
     3    1   28 1   
     4    2    3 2   
     5    2   18 1   
     6    3    4 1   
     7    4    5 2   
     8    4   10 1   
     9    5    6 1   
    10    5    7 1   
    11    6   19 1   
    12    6   20 1   
    13    7    8 2   
    14    8    9 1   
    15    8   21 1   
    16    9   10 1   
    17    9   17 1   
    18   11   12 ar  
    19   11   16 ar  
    20   11   29 1   
    21   12   13 ar  
    22   12   22 1   
    23   13   14 ar  
    24   13   23 1   
    25   14   15 ar  
    26   14   24 1   
    27   15   16 ar  
    28   15   25 1   
    29   16   17 1   
    30   17   26 1   
    31   17   27 1   
@<TRIPOS>SUBSTRUCTURE
     1 A4V         1 TEMP              0 ****  ****    0 ROOT
