@<TRIPOS>MOLECULE
A51
   25    23     1     0     0
SMALL
bcc


@<TRIPOS>ATOM
      1 C1         -4.3590    0.3680   -0.5770 c3        1 A51     -0.026000
      2 C2         -3.3020    0.2040    0.5170 c3        1 A51     -0.122000
      3 C3         -2.0350    0.1540   -0.2520 c2        1 A51     -0.338000
      4 C4         -2.3910    0.1830   -1.7030 c2        1 A51      0.356000
      5 O5         -3.6740    0.6730   -1.8060 os        1 A51     -0.247000
      6 O6         -1.6660   -0.1670   -2.6410 o         1 A51     -0.338000
      7 C7         -0.7920    0.0930    0.2590 c1        1 A51      0.106000
      8 N8          0.3540    0.0490   -0.6280 n2        1 A51     -0.263000
      9 C9          1.6970   -0.0960   -0.0750 c2        1 A51      0.074000
     10 C10         2.0050   -1.1870    0.7030 c1        1 A51     -0.178000
     11 C11         3.2850   -1.3230    1.2390 c1        1 A51     -0.126500
     12 C12         4.2460   -0.3610    0.9880 c1        1 A51     -0.126500
     13 C13         3.9350    0.7390    0.2040 c1        1 A51     -0.095000
     14 C14         2.6620    0.8730   -0.3290 c2        1 A51     -0.171000
     15 H1         -4.9720    1.1000   -0.3450 h1        1 A51      0.100000
     16 H1A        -4.8660   -0.4740   -0.6790 h1        1 A51      0.100000
     17 H2         -3.2800    0.8250    1.2560 hc        1 A51      0.096000
     18 H2A        -3.4710   -0.6220    0.9740 hc        1 A51      0.096000
     19 H7         -0.6580    0.0760    1.2580 ha        1 A51      0.153000
     20 HN8         0.2450    0.2270   -1.5360 hn        1 A51      0.266000
     21 H10         1.3280   -1.8640    0.8790 ha        1 A51      0.132000
     22 H11         3.4990   -2.0840    1.7810 ha        1 A51      0.136000
     23 H12         5.1450   -0.4560    1.3630 ha        1 A51      0.136000
     24 H13         4.6220    1.4270    0.0240 ha        1 A51      0.137000
     25 H14         2.4440    1.6400   -0.8760 ha        1 A51      0.143000
@<TRIPOS>BOND
     1    1    2 1   
     2    1    5 1   
     3    1   15 1   
     4    1   16 1   
     5    2    3 1   
     6    2   17 1   
     7    2   18 1   
     8    3    4 1   
     9    3    7 1   
    10    4    5 1   
    11    4    6 1   
    12    7   19 1   
    13    8    9 1   
    14    8   20 1   
    15    9   10 1   
    16    9   14 1   
    17   10   21 1   
    18   11   12 1   
    19   11   22 1   
    20   12   23 1   
    21   13   14 1   
    22   13   24 1   
    23   14   25 1   
@<TRIPOS>SUBSTRUCTURE
     1 A51         1 TEMP              0 ****  ****    0 ROOT
