@<TRIPOS>MOLECULE
A51
   25    26     1     0     0
SMALL
bcc


@<TRIPOS>ATOM
      1 C1         -0.0460    0.1700   -0.0540 c3        1 A51      0.127400
      2 C2          1.4270   -0.2670   -0.0030 c3        1 A51     -0.051200
      3 C3          1.8190   -0.0470    1.4170 ce        1 A51     -0.350400
      4 C4          0.6510    0.4780    2.1310 c         1 A51      0.743800
      5 O5         -0.4280    0.6020    1.2690 os        1 A51     -0.412900
      6 O6          0.4560    0.8130    3.2950 o         1 A51     -0.589500
      7 C7          3.0180   -0.2710    2.0090 c2        1 A51      0.180000
      8 N8          4.1140   -0.7740    1.3590 nu        1 A51     -0.636400
      9 C9          5.3710   -0.9650    1.9560 ca        1 A51      0.152600
     10 C10         6.5110   -1.0840    1.1260 ca        1 A51     -0.173000
     11 C11         7.7650   -1.2970    1.6870 ca        1 A51     -0.095500
     12 C12         7.9190   -1.3930    3.0700 ca        1 A51     -0.154000
     13 C13         6.8010   -1.2810    3.8930 ca        1 A51     -0.095500
     14 C14         5.5340   -1.0740    3.3540 ca        1 A51     -0.173000
     15 H1         -0.2090    1.0430   -0.7340 h1        1 A51      0.059700
     16 H1A        -0.7320   -0.6710   -0.3260 h1        1 A51      0.059700
     17 H2          1.5320   -1.3410   -0.2980 hc        1 A51      0.054200
     18 H2A         2.0470    0.3470   -0.7020 hc        1 A51      0.054200
     19 H7          3.1390   -0.0460    3.0900 h4        1 A51      0.172000
     20 HN8         4.0660   -0.8910    0.3700 hn        1 A51      0.440800
     21 H10         6.4150   -1.0100    0.0320 ha        1 A51      0.137500
     22 H11         8.6430   -1.3870    1.0290 ha        1 A51      0.137000
     23 H12         8.9150   -1.5570    3.5060 ha        1 A51      0.138000
     24 H13         6.9130   -1.3600    4.9860 ha        1 A51      0.137000
     25 H14         4.6710   -1.0090    4.0330 ha        1 A51      0.137500
@<TRIPOS>BOND
     1    1    2 1   
     2    1    5 1   
     3    1   15 1   
     4    1   16 1   
     5    2    3 1   
     6    2   17 1   
     7    2   18 1   
     8    3    4 1   
     9    3    7 2   
    10    4    5 1   
    11    4    6 2   
    12    7    8 1   
    13    7   19 1   
    14    8    9 1   
    15    8   20 1   
    16    9   10 ar  
    17    9   14 ar  
    18   10   11 ar  
    19   10   21 1   
    20   11   12 ar  
    21   11   22 1   
    22   12   13 ar  
    23   12   23 1   
    24   13   14 ar  
    25   13   24 1   
    26   14   25 1   
@<TRIPOS>SUBSTRUCTURE
     1 A51         1 TEMP              0 ****  ****    0 ROOT
