@<TRIPOS>MOLECULE
A51
   25    26     1     0     0
SMALL
bcc


@<TRIPOS>ATOM
      1 C1         -0.0460    0.1570   -0.0610 c3        1 A51      0.127400
      2 C2          1.4270   -0.2780   -0.0070 c3        1 A51     -0.051200
      3 C3          1.8190   -0.0500    1.4120 ce        1 A51     -0.350400
      4 C4          0.6500    0.4780    2.1230 c         1 A51      0.743800
      5 O5         -0.4290    0.5960    1.2600 os        1 A51     -0.412900
      6 O6          0.4540    0.8200    3.2850 o         1 A51     -0.589500
      7 C7          3.0180   -0.2700    2.0070 c2        1 A51      0.180000
      8 N8          4.1150   -0.7750    1.3590 nh        1 A51     -0.636400
      9 C9          5.3710   -0.9630    1.9600 ca        1 A51      0.152600
     10 C10         6.5130   -1.0820    1.1310 ca        1 A51     -0.173000
     11 C11         7.7660   -1.2910    1.6940 ca        1 A51     -0.095500
     12 C12         7.9180   -1.3820    3.0780 ca        1 A51     -0.153000
     13 C13         6.7990   -1.2690    3.9000 ca        1 A51     -0.095500
     14 C14         5.5330   -1.0660    3.3580 ca        1 A51     -0.173000
     15 H1         -0.7300   -0.6860   -0.3280 h1        1 A51      0.059700
     16 H1A        -0.2090    1.0260   -0.7460 h1        1 A51      0.059700
     17 H2          1.5340   -1.3540   -0.2950 hc        1 A51      0.054200
     18 H2A         2.0480    0.3330   -0.7090 hc        1 A51      0.054200
     19 H7          3.1380   -0.0380    3.0870 h4        1 A51      0.172000
     20 HN8         4.0680   -0.8970    0.3720 hn        1 A51      0.440800
     21 H10         6.4180   -1.0120    0.0370 ha        1 A51      0.137500
     22 H11         8.6450   -1.3830    1.0380 ha        1 A51      0.137000
     23 H12         8.9140   -1.5430    3.5150 ha        1 A51      0.138000
     24 H13         6.9100   -1.3450    4.9920 ha        1 A51      0.137000
     25 H14         4.6690   -1.0000    4.0360 ha        1 A51      0.137500
@<TRIPOS>BOND
     1    1    2 1   
     2    1    5 1   
     3    1   15 1   
     4    1   16 1   
     5    2    3 1   
     6    2   17 1   
     7    2   18 1   
     8    3    4 1   
     9    3    7 2   
    10    4    5 1   
    11    4    6 2   
    12    7    8 1   
    13    7   19 1   
    14    8    9 1   
    15    8   20 1   
    16    9   10 ar  
    17    9   14 ar  
    18   10   11 ar  
    19   10   21 1   
    20   11   12 ar  
    21   11   22 1   
    22   12   13 ar  
    23   12   23 1   
    24   13   14 ar  
    25   13   24 1   
    26   14   25 1   
@<TRIPOS>SUBSTRUCTURE
     1 A51         1 TEMP              0 ****  ****    0 ROOT
