@<TRIPOS>MOLECULE
A51
   26    27     1     0     0
SMALL
bcc


@<TRIPOS>ATOM
      1 C1         -0.1660   -0.1920    0.8140 c3        1 A51      0.124400
      2 C2          1.2470   -0.7570    0.5810 c3        1 A51     -0.111200
      3 C3          2.1610    0.3050    1.0860 ce        1 A51     -0.118400
      4 C4          1.3010    1.4300    1.5770 c         1 A51      0.714800
      5 O5         -0.0250    1.1190    1.4110 os        1 A51     -0.362900
      6 O6          1.6000    2.5060    2.0690 o         1 A51     -0.499500
      7 C7          3.4960    0.3610    1.1410 c2        1 A51     -0.061000
      8 N8          4.3760   -0.7010    0.6640 n4        1 A51     -0.513200
      9 C9          5.4400   -1.0140    1.6310 ca        1 A51     -0.060400
     10 C10         6.5740   -0.1860    1.7000 ca        1 A51     -0.100000
     11 C11         7.5820   -0.4990    2.6100 ca        1 A51     -0.098500
     12 C12         7.4640   -1.6140    3.4420 ca        1 A51     -0.066000
     13 C13         6.3320   -2.4270    3.3690 ca        1 A51     -0.098500
     14 C14         5.3090   -2.1360    2.4680 ca        1 A51     -0.100000
     15 H1         -0.7310   -0.0450   -0.1410 h1        1 A51      0.095700
     16 H1A        -0.7590   -0.8070    1.5370 h1        1 A51      0.095700
     17 H2          1.4110   -0.9600   -0.5080 hc        1 A51      0.088700
     18 H2A         1.3810   -1.7170    1.1430 hc        1 A51      0.088700
     19 H7          4.0430    1.2290    1.5710 hx        1 A51      0.226000
     20 HN8         4.8160   -0.3840   -0.2140 hn        1 A51      0.459800
     21 H10         6.6810    0.6990    1.0530 ha        1 A51      0.156500
     22 H11         8.4770    0.1440    2.6690 ha        1 A51      0.174500
     23 H12         8.2670   -1.8520    4.1610 ha        1 A51      0.175000
     24 H13         6.2390   -3.3070    4.0270 ha        1 A51      0.174500
     25 H14         4.4210   -2.7870    2.4270 ha        1 A51      0.156500
     26 H82         3.8350   -1.5550    0.4700 hn        1 A51      0.459800
@<TRIPOS>BOND
     1    1    2 1   
     2    1    5 1   
     3    1   15 1   
     4    1   16 1   
     5    2    3 1   
     6    2   17 1   
     7    2   18 1   
     8    3    4 1   
     9    3    7 2   
    10    4    5 1   
    11    4    6 2   
    12    7    8 1   
    13    7   19 1   
    14    8    9 1   
    15    8   20 1   
    16    8   26 1   
    17    9   10 ar  
    18    9   14 ar  
    19   10   11 ar  
    20   10   21 1   
    21   11   12 ar  
    22   11   22 1   
    23   12   13 ar  
    24   12   23 1   
    25   13   14 ar  
    26   13   24 1   
    27   14   25 1   
@<TRIPOS>SUBSTRUCTURE
     1 A51         1 TEMP              0 ****  ****    0 ROOT
