@<TRIPOS>MOLECULE
A51
   25    26     1     0     0
SMALL
bcc


@<TRIPOS>ATOM
      1 C1          3.8970   -1.2740   -0.1400 c3        1 A51      0.127400
      2 C2          2.3770   -1.4990   -0.2050 c3        1 A51     -0.051200
      3 C3          1.8030   -0.1400   -0.0000 ce        1 A51     -0.350400
      4 C4          2.9160    0.8000    0.1670 c         1 A51      0.743800
      5 O5          4.1290    0.1330    0.0850 os        1 A51     -0.412900
      6 O6          2.9750    2.0110    0.3580 o         1 A51     -0.589500
      7 C7          0.4990    0.2330    0.0340 c2        1 A51      0.180000
      8 N8         -0.5520   -0.6310   -0.1340 nh        1 A51     -0.636400
      9 C9         -1.9030   -0.2580   -0.0550 ca        1 A51      0.152600
     10 C10        -2.8760   -1.2610    0.1730 ca        1 A51     -0.173000
     11 C11        -4.2240   -0.9260    0.2340 ca        1 A51     -0.095500
     12 C12        -4.6360    0.3970    0.0760 ca        1 A51     -0.154000
     13 C13        -3.6850    1.3890   -0.1520 ca        1 A51     -0.095500
     14 C14        -2.3310    1.0770   -0.2240 ca        1 A51     -0.173000
     15 H1          4.3720   -1.8170    0.7140 h1        1 A51      0.059700
     16 H1A         4.4070   -1.5310   -1.1010 h1        1 A51      0.059700
     17 H2          2.0810   -1.9260   -1.1950 hc        1 A51      0.054200
     18 H2A         2.0470   -2.2100    0.5930 hc        1 A51      0.054200
     19 H7          0.2450    1.3020    0.2020 h4        1 A51      0.172000
     20 HN8        -0.3590   -1.6070   -0.1860 hn        1 A51      0.440800
     21 H10        -2.5750   -2.3110    0.3030 ha        1 A51      0.137500
     22 H11        -4.9690   -1.7160    0.4120 ha        1 A51      0.137000
     23 H12        -5.7040    0.6540    0.1300 ha        1 A51      0.138000
     24 H13        -4.0030    2.4350   -0.2830 ha        1 A51      0.137000
     25 H14        -1.6090    1.8830   -0.4240 ha        1 A51      0.137500
@<TRIPOS>BOND
     1    1    2 1   
     2    1    5 1   
     3    1   15 1   
     4    1   16 1   
     5    2    3 1   
     6    2   17 1   
     7    2   18 1   
     8    3    4 1   
     9    3    7 2   
    10    4    5 1   
    11    4    6 2   
    12    7    8 1   
    13    7   19 1   
    14    8    9 1   
    15    8   20 1   
    16    9   10 ar  
    17    9   14 ar  
    18   10   11 ar  
    19   10   21 1   
    20   11   12 ar  
    21   11   22 1   
    22   12   13 ar  
    23   12   23 1   
    24   13   14 ar  
    25   13   24 1   
    26   14   25 1   
@<TRIPOS>SUBSTRUCTURE
     1 A51         1 TEMP              0 ****  ****    0 ROOT
