@<TRIPOS>MOLECULE
A53
   61    49     1     0     0
SMALL
bcc


@<TRIPOS>ATOM
      1 C1          4.2150    1.1150    5.8310 c1        1 A53     -0.112500
      2 C2          5.3310    0.6720    6.5190 c1        1 A53     -0.175500
      3 C3          5.1800    1.0010    7.8220 c1        1 A53     -0.175500
      4 C4          3.9740    1.6500    7.9610 c1        1 A53     -0.112500
      5 N5          3.3840    1.7150    6.7230 n2        1 A53     -0.133000
      6 C6          3.9240    0.8600    4.3530 c1        1 A53      0.048000
      7 C7          4.2770    1.7920    3.4170 c1        1 A53     -0.167000
      8 C8          4.9300    3.0740    3.6830 c1        1 A53      0.364000
      9 N9          5.1250    3.7350    2.4370 n3        1 A53     -0.327000
     10 C10         4.5850    2.8440    1.3460 c2        1 A53      0.071000
     11 C11         4.0730    1.6800    1.9470 c2        1 A53     -0.086000
     12 O12         5.2240    3.5070    4.7680 o         1 A53     -0.371000
     13 C13         4.5230    2.9970   -0.0240 c1        1 A53     -0.166000
     14 C14         3.9560    2.0040   -0.8070 c1        1 A53     -0.101000
     15 C15         3.4440    0.8410   -0.2050 c1        1 A53     -0.058000
     16 C16         3.5060    0.6880    1.1640 c1        1 A53     -0.068000
     17 C17         2.8900   -0.1510   -1.0490 c1        1 A53     -0.058000
     18 C18         3.6560   -1.2650   -1.4130 c1        1 A53     -0.099000
     19 N19         3.1180   -2.2360   -2.2120 n1        1 A53     -0.106000
     20 C20         1.8050   -2.1160   -2.6650 c1        1 A53     -0.139000
     21 C21         1.0470   -1.0110   -2.3040 c1        1 A53      0.031000
     22 C22         1.5980   -0.0300   -1.4930 c1        1 A53     -0.101000
     23 O23        -0.2730   -0.8200   -2.8650 os        1 A53     -0.212000
     24 C24        -1.1450   -1.9530   -2.7100 c3        1 A53     -0.070000
     25 C25        -2.5600   -1.5810   -3.1830 c3        1 A53     -0.063000
     26 C26        -3.5570   -2.1170   -2.2220 c3        1 A53     -0.077000
     27 N27        -2.7970   -2.1440   -4.4940 n3        1 A53     -0.331000
     28 C28        -4.7750   -1.2000   -2.2000 c2        1 A53     -0.162000
     29 C29        -4.5740    0.1130   -1.7820 c1        1 A53     -0.048000
     30 N30        -5.7650    0.7880   -1.9100 n2        1 A53     -0.219000
     31 C31        -6.7200   -0.1080   -2.4100 c1        1 A53     -0.003000
     32 C32        -6.1070   -1.3290   -2.5870 c1        1 A53     -0.077000
     33 C33        -8.0900    0.0330   -2.6720 c1        1 A53     -0.143000
     34 C34        -8.8340   -1.0660   -3.1120 c1        1 A53     -0.136000
     35 C35        -8.2150   -2.3010   -3.2910 c1        1 A53     -0.136000
     36 C36        -6.8610   -2.4410   -3.0330 c1        1 A53     -0.089000
     37 H2          6.1150    0.1910    6.1210 DU        1 A53      0.199833
     38 H3          5.8240    0.8090    8.5490 DU        1 A53      0.199833
     39 H4          3.5990    2.0060    8.8060 DU        1 A53      0.199833
     40 HN5         2.5920    2.0880    6.5360 DU        1 A53      0.199833
     41 H6          3.4900    0.0270    4.0750 ha        1 A53      0.142000
     42 HN9         5.5180    4.5650    2.3170 hn        1 A53      0.257000
     43 H13         4.8840    3.8140   -0.4460 ha        1 A53      0.143000
     44 H14         3.9130    2.1120   -1.7740 ha        1 A53      0.147500
     45 H16         3.1400   -0.1470    1.5960 ha        1 A53      0.141000
     46 H18         4.5790   -1.3490   -1.0940 ha        1 A53      0.164000
     47 H20         1.4200   -2.8080   -3.2350 ha        1 A53      0.168000
     48 H22         1.0600    0.7560   -1.2360 ha        1 A53      0.147500
     49 H241       -0.8010   -2.7100   -3.2520 h1        1 A53      0.103000
     50 H242       -1.1770   -2.2200   -1.7450 h1        1 A53      0.103000
     51 H25        -2.6470   -0.5890   -3.2290 h1        1 A53      0.114000
     52 H261       -3.1540   -2.1570   -1.3110 hc        1 A53      0.087000
     53 H262       -3.8320   -3.0270   -2.5010 hc        1 A53      0.087000
     54 H271       -2.7200   -1.4850   -5.1270 hn        1 A53      0.147500
     55 H272       -2.1820   -2.7980   -4.6620 hn        1 A53      0.147500
     56 H29        -3.7420    0.4790   -1.4140 DU        1 A53      0.199833
     57 H30        -5.9140    1.6930   -1.7000 DU        1 A53      0.199833
     58 H33        -8.5160    0.8790   -2.5480 ha        1 A53      0.131000
     59 H34        -9.7870   -0.9680   -3.2930 ha        1 A53      0.128000
     60 H35        -8.7410   -3.0770   -3.6020 ha        1 A53      0.128000
     61 H36        -6.4180   -3.3250   -3.1620 ha        1 A53      0.129000
@<TRIPOS>BOND
     1    1    2 1   
     2    1    5 1   
     3    2    3 1   
     4    3    4 1   
     5    4    5 1   
     6    6    7 1   
     7    6   41 1   
     8    7   11 1   
     9    8    9 1   
    10    8   12 1   
    11    9   10 1   
    12    9   42 1   
    13   10   11 1   
    14   10   13 1   
    15   11   16 1   
    16   13   43 1   
    17   14   15 1   
    18   14   44 1   
    19   16   45 1   
    20   17   22 1   
    21   18   19 1   
    22   18   46 1   
    23   20   21 1   
    24   20   47 1   
    25   21   23 1   
    26   22   48 1   
    27   23   24 1   
    28   24   25 1   
    29   24   49 1   
    30   24   50 1   
    31   25   26 1   
    32   25   27 1   
    33   25   51 1   
    34   26   28 1   
    35   26   52 1   
    36   26   53 1   
    37   27   54 1   
    38   27   55 1   
    39   28   29 1   
    40   28   32 1   
    41   29   30 1   
    42   30   31 1   
    43   31   33 1   
    44   32   36 1   
    45   33   58 1   
    46   34   35 1   
    47   34   59 1   
    48   35   60 1   
    49   36   61 1   
@<TRIPOS>SUBSTRUCTURE
     1 A53         1 TEMP              0 ****  ****    0 ROOT
