@<TRIPOS>MOLECULE
A53
   61    66     1     0     0
SMALL
bcc


@<TRIPOS>ATOM
      1 C1          7.9600   -1.2980    0.0090 cc        1 A53     -0.159100
      2 C2          8.3040   -2.5770   -0.5150 cd        1 A53     -0.138000
      3 C3          9.6910   -2.7730   -0.2870 cd        1 A53     -0.215000
      4 C4         10.1690   -1.6160    0.3690 cc        1 A53     -0.126300
      5 N5          9.1250   -0.7350    0.5430 na        1 A53     -0.134100
      6 C6          6.6490   -0.7350   -0.0280 ce        1 A53      0.056800
      7 C7          6.1630    0.4400    0.4150 cd        1 A53     -0.172400
      8 C8          6.8400    1.5830    1.1150 c         1 A53      0.724700
      9 N9          5.8690    2.5770    1.3640 n         1 A53     -0.473100
     10 C10         4.6230    2.1590    0.8760 ca        1 A53      0.061600
     11 C11         4.7570    0.8520    0.2840 ca        1 A53     -0.099800
     12 O12         8.0240    1.7300    1.4580 o         1 A53     -0.648500
     13 C13         3.3910    2.8060    0.9010 ca        1 A53     -0.165000
     14 C14         2.2920    2.1500    0.3370 ca        1 A53     -0.081000
     15 C15         2.4100    0.8820   -0.2440 cp        1 A53     -0.069000
     16 C16         3.6580    0.2280   -0.2700 ca        1 A53     -0.069000
     17 C17         1.2420    0.2320   -0.8260 cp        1 A53     -0.112300
     18 C18         1.3510   -0.5070   -2.0310 ca        1 A53      0.363200
     19 N19         0.3180   -1.1280   -2.6200 nb        1 A53     -0.635000
     20 C20        -0.8910   -1.0440   -2.0330 ca        1 A53      0.318200
     21 C21        -1.1020   -0.3300   -0.8330 ca        1 A53      0.017800
     22 C22        -0.0150    0.3200   -0.2190 ca        1 A53     -0.118000
     23 O23        -2.3050   -0.2290   -0.1740 os        1 A53     -0.308900
     24 C24        -3.4460   -0.7200   -0.8900 c3        1 A53      0.130400
     25 C25        -4.6710   -0.3320   -0.0360 c3        1 A53      0.164500
     26 C26        -5.7690   -1.3850   -0.3050 c3        1 A53     -0.046200
     27 N27        -5.0690    1.0430   -0.2500 n3        1 A53     -0.890800
     28 C28        -6.9900   -1.1190    0.4630 cc        1 A53     -0.152400
     29 C29        -7.3280   -1.6640    1.7040 cd        1 A53     -0.093100
     30 N30        -8.5730   -1.1880    2.1170 na        1 A53     -0.190400
     31 C31        -9.0620   -0.3220    1.1360 ca        1 A53     -0.045200
     32 C32        -8.0850   -0.2550    0.0710 ca        1 A53     -0.095800
     33 C33       -10.2590    0.4090    1.0680 ca        1 A53     -0.141000
     34 C34       -10.4720    1.1930   -0.0540 ca        1 A53     -0.112000
     35 C35        -9.5300    1.2610   -1.0970 ca        1 A53     -0.152000
     36 C36        -8.3430    0.5460   -1.0440 ca        1 A53     -0.093000
     37 H2          7.6170   -3.2650   -0.9990 ha        1 A53      0.152000
     38 H3         10.2810   -3.6410   -0.5610 ha        1 A53      0.156000
     39 H4         11.1780   -1.3820    0.7120 h4        1 A53      0.171000
     40 HN5         9.1800    0.1580    0.9770 hn        1 A53      0.333700
     41 H6          5.9210   -1.4170   -0.5200 ha        1 A53      0.142000
     42 HN9         6.0410    3.4380    1.8120 hn        1 A53      0.343500
     43 H13         3.2750    3.8030    1.3480 ha        1 A53      0.143000
     44 H14         1.3120    2.6530    0.3450 ha        1 A53      0.142000
     45 H16         3.7440   -0.7730   -0.7200 ha        1 A53      0.140000
     46 H18         2.3230   -0.5910   -2.5490 h4        1 A53      0.025100
     47 H20        -1.7110   -1.5700   -2.5490 h4        1 A53      0.024100
     48 H22        -0.1660    0.8730    0.7190 ha        1 A53      0.159000
     49 H241       -3.3660   -1.8360   -0.9720 h1        1 A53      0.043200
     50 H242       -3.4820   -0.2680   -1.9150 h1        1 A53      0.043200
     51 H25        -4.3670   -0.4130    1.0520 h1        1 A53      0.080700
     52 H261       -6.0110   -1.3970   -1.4020 hc        1 A53      0.050700
     53 H262       -5.3640   -2.3970   -0.0360 hc        1 A53      0.050700
     54 H271       -5.3400    1.1880   -1.2040 hn        1 A53      0.351300
     55 H272       -5.8480    1.2650    0.3410 hn        1 A53      0.351300
     56 H29        -6.7650   -2.3640    2.3250 h4        1 A53      0.168000
     57 H30        -9.0320   -1.4210    2.9550 hn        1 A53      0.300700
     58 H33       -10.9990    0.3590    1.8770 ha        1 A53      0.134000
     59 H34       -11.4010    1.7780   -0.1370 ha        1 A53      0.132000
     60 H35        -9.7460    1.8960   -1.9690 ha        1 A53      0.132000
     61 H36        -7.6130    0.6000   -1.8640 ha        1 A53      0.130000
@<TRIPOS>BOND
     1    1    2 2   
     2    1    5 1   
     3    1    6 1   
     4    2    3 1   
     5    2   37 1   
     6    3    4 2   
     7    3   38 1   
     8    4    5 1   
     9    4   39 1   
    10    5   40 1   
    11    6    7 2   
    12    6   41 1   
    13    7    8 1   
    14    7   11 1   
    15    8    9 1   
    16    8   12 2   
    17    9   10 1   
    18    9   42 1   
    19   10   11 ar  
    20   10   13 ar  
    21   11   16 ar  
    22   13   14 ar  
    23   13   43 1   
    24   14   15 ar  
    25   14   44 1   
    26   15   16 ar  
    27   15   17 1   
    28   16   45 1   
    29   17   18 ar  
    30   17   22 ar  
    31   18   19 ar  
    32   18   46 1   
    33   19   20 ar  
    34   20   21 ar  
    35   20   47 1   
    36   21   22 ar  
    37   21   23 1   
    38   22   48 1   
    39   23   24 1   
    40   24   25 1   
    41   24   49 1   
    42   24   50 1   
    43   25   26 1   
    44   25   27 1   
    45   25   51 1   
    46   26   28 1   
    47   26   52 1   
    48   26   53 1   
    49   27   54 1   
    50   27   55 1   
    51   28   29 2   
    52   28   32 1   
    53   29   30 1   
    54   29   56 1   
    55   30   31 1   
    56   30   57 1   
    57   31   32 ar  
    58   31   33 ar  
    59   32   36 ar  
    60   33   34 ar  
    61   33   58 1   
    62   34   35 ar  
    63   34   59 1   
    64   35   36 ar  
    65   35   60 1   
    66   36   61 1   
@<TRIPOS>SUBSTRUCTURE
     1 A53         1 TEMP              0 ****  ****    0 ROOT
