@<TRIPOS>MOLECULE
A53
   62    67     1     0     0
SMALL
bcc


@<TRIPOS>ATOM
      1 C1         -0.3660   -0.1310   -0.1130 cc        1 A53     -0.176100
      2 C2          0.2340   -1.4150    0.0510 cd        1 A53     -0.125000
      3 C3          0.9160   -1.4130    1.2920 cd        1 A53     -0.214000
      4 C4          0.7250   -0.1330    1.8670 cc        1 A53     -0.109300
      5 N5         -0.0450    0.6290    1.0200 na        1 A53     -0.130100
      6 C6         -1.1390    0.2560   -1.2420 ce        1 A53      0.078800
      7 C7         -1.7720    1.4070   -1.5500 cd        1 A53     -0.196400
      8 C8         -1.8780    2.6960   -0.7930 c         1 A53      0.727700
      9 N9         -2.6660    3.5890   -1.5620 ns        1 A53     -0.472100
     10 C10        -3.0580    2.9700   -2.7520 ca        1 A53      0.081600
     11 C11        -2.5340    1.6250   -2.7880 ca        1 A53     -0.087800
     12 O12        -1.4110    3.0300    0.3050 o         1 A53     -0.630500
     13 C13        -3.8280    3.4610   -3.8040 ca        1 A53     -0.171000
     14 C14        -4.0790    2.6140   -4.8870 ca        1 A53     -0.078000
     15 C15        -3.5760    1.3090   -4.9340 cp        1 A53     -0.101000
     16 C16        -2.7920    0.8120   -3.8710 ca        1 A53     -0.068000
     17 C17        -3.8540    0.4570   -6.0810 cp        1 A53     -0.089300
     18 C18        -2.8560   -0.4060   -6.6040 ca        1 A53      0.396200
     19 N19        -3.0450   -1.2220   -7.6530 nb        1 A53     -0.623000
     20 C20        -4.2510   -1.2150   -8.2510 ca        1 A53      0.348200
     21 C21        -5.3010   -0.3900   -7.8020 ca        1 A53     -0.033200
     22 C22        -5.1110    0.4570   -6.7010 ca        1 A53     -0.104000
     23 O23        -6.5310   -0.3110   -8.4480 os        1 A53     -0.372900
     24 C24        -6.9910   -1.5450   -9.0010 c3        1 A53      0.104400
     25 C25        -8.5250   -1.4460   -9.0580 c3        1 A53      0.113500
     26 C26        -9.1050   -2.7090   -9.7160 c3        1 A53     -0.013200
     27 N27        -8.9600   -0.2040   -9.7830 nz        1 A53     -0.833600
     28 C28       -10.5440   -2.5820   -9.9530 cc        1 A53     -0.251400
     29 C29       -11.5760   -3.1140   -9.1670 cd        1 A53     -0.040100
     30 N30       -12.8080   -2.7920   -9.7160 na        1 A53     -0.166400
     31 C31       -12.5950   -2.0680  -10.8960 ca        1 A53     -0.047200
     32 C32       -11.1700   -1.9200  -11.0800 ca        1 A53     -0.118800
     33 C33       -13.5080   -1.5300  -11.8190 ca        1 A53     -0.111000
     34 C34       -12.9920   -0.8650  -12.9190 ca        1 A53     -0.105000
     35 C35       -11.6040   -0.7390  -13.1220 ca        1 A53     -0.117000
     36 C36       -10.6930   -1.2610  -12.2170 ca        1 A53     -0.151000
     37 H2          0.1710   -2.2350   -0.6590 ha        1 A53      0.153000
     38 H3          1.4820   -2.2290    1.7310 ha        1 A53      0.163000
     39 H4          1.0930    0.2590    2.8170 h4        1 A53      0.178000
     40 HN5        -0.3290    1.5690    1.1760 hn        1 A53      0.334700
     41 H6         -1.2180   -0.5630   -1.9910 ha        1 A53      0.137000
     42 HN9        -2.8720    4.5200   -1.3120 hn        1 A53      0.348500
     43 H13        -4.2270    4.4840   -3.7930 ha        1 A53      0.147000
     44 H14        -4.6790    2.9950   -5.7280 ha        1 A53      0.130000
     45 H16        -2.4010   -0.2160   -3.9090 ha        1 A53      0.139000
     46 H18        -1.8460   -0.4310   -6.1510 h4        1 A53      0.045100
     47 H20        -4.3700   -1.8930   -9.1130 h4        1 A53      0.025100
     48 H22        -5.9230    1.1030   -6.3400 ha        1 A53      0.154000
     49 H241       -6.7090   -2.4190   -8.3570 h1        1 A53      0.082700
     50 H242       -6.5490   -1.6700  -10.0260 h1        1 A53      0.082700
     51 H25        -8.9270   -1.3470   -8.0050 hx        1 A53      0.115700
     52 H261       -8.8880   -3.5690   -9.0250 hc        1 A53      0.087200
     53 H262       -8.5710   -2.9090  -10.6860 hc        1 A53      0.087200
     54 H271       -8.5870   -0.2090  -10.7360 hn        1 A53      0.464800
     55 H272       -8.6040    0.6190   -9.2860 hn        1 A53      0.464800
     56 H29       -11.5060   -3.7060   -8.2480 h4        1 A53      0.184000
     57 H30       -13.6880   -3.0990   -9.3880 hn        1 A53      0.321700
     58 H33       -14.5920   -1.6430  -11.6780 ha        1 A53      0.156000
     59 H34       -13.6810   -0.4360  -13.6660 ha        1 A53      0.156000
     60 H35       -11.2440   -0.2280  -14.0290 ha        1 A53      0.149000
     61 H36        -9.6140   -1.2120  -12.4240 ha        1 A53      0.116000
     62 H273       -9.9880   -0.1840   -9.8370 hn        1 A53      0.464800
@<TRIPOS>BOND
     1    1    2 2   
     2    1    5 1   
     3    1    6 1   
     4    2    3 1   
     5    2   37 1   
     6    3    4 2   
     7    3   38 1   
     8    4    5 1   
     9    4   39 1   
    10    5   40 1   
    11    6    7 2   
    12    6   41 1   
    13    7    8 1   
    14    7   11 1   
    15    8    9 1   
    16    8   12 2   
    17    9   10 1   
    18    9   42 1   
    19   10   11 ar  
    20   10   13 ar  
    21   11   16 ar  
    22   13   14 ar  
    23   13   43 1   
    24   14   15 ar  
    25   14   44 1   
    26   15   16 ar  
    27   15   17 1   
    28   16   45 1   
    29   17   18 ar  
    30   17   22 ar  
    31   18   19 ar  
    32   18   46 1   
    33   19   20 ar  
    34   20   21 ar  
    35   20   47 1   
    36   21   22 ar  
    37   21   23 1   
    38   22   48 1   
    39   23   24 1   
    40   24   25 1   
    41   24   49 1   
    42   24   50 1   
    43   25   26 1   
    44   25   27 1   
    45   25   51 1   
    46   26   28 1   
    47   26   52 1   
    48   26   53 1   
    49   27   54 1   
    50   27   55 1   
    51   27   62 1   
    52   28   29 2   
    53   28   32 1   
    54   29   30 1   
    55   29   56 1   
    56   30   31 1   
    57   30   57 1   
    58   31   32 ar  
    59   31   33 ar  
    60   32   36 ar  
    61   33   34 ar  
    62   33   58 1   
    63   34   35 ar  
    64   34   59 1   
    65   35   36 ar  
    66   35   60 1   
    67   36   61 1   
@<TRIPOS>SUBSTRUCTURE
     1 A53         1 TEMP              0 ****  ****    0 ROOT
