@<TRIPOS>MOLECULE
A53
   62    67     1     0     0
SMALL
bcc


@<TRIPOS>ATOM
      1 C1         -0.3930   -0.1400   -0.0880 cc        1 A53     -0.176100
      2 C2          0.1760   -1.4340    0.1040 cd        1 A53     -0.125000
      3 C3          0.8520   -1.4230    1.3480 cd        1 A53     -0.214000
      4 C4          0.6890   -0.1280    1.8970 cc        1 A53     -0.109300
      5 N5         -0.0590    0.6350    1.0310 na        1 A53     -0.130100
      6 C6         -1.1520    0.2440   -1.2290 ce        1 A53      0.078800
      7 C7         -1.7550    1.4030   -1.5620 cd        1 A53     -0.196400
      8 C8         -1.8340    2.7080   -0.8320 c         1 A53      0.727700
      9 N9         -2.5970    3.6050   -1.6220 n         1 A53     -0.472100
     10 C10        -2.9980    2.9720   -2.8010 ca        1 A53      0.081600
     11 C11        -2.5060    1.6140   -2.8080 ca        1 A53     -0.087800
     12 O12        -1.3640    3.0530    0.2620 o         1 A53     -0.630500
     13 C13        -3.7520    3.4600   -3.8670 ca        1 A53     -0.171000
     14 C14        -4.0180    2.5980   -4.9340 ca        1 A53     -0.078000
     15 C15        -3.5460    1.2800   -4.9520 cp        1 A53     -0.101000
     16 C16        -2.7780    0.7860   -3.8760 ca        1 A53     -0.068000
     17 C17        -3.8380    0.4130   -6.0840 cp        1 A53     -0.089300
     18 C18        -2.8590   -0.4840   -6.5850 ca        1 A53      0.396200
     19 N19        -3.0620   -1.3160   -7.6190 nb        1 A53     -0.623000
     20 C20        -4.2640   -1.2920   -8.2230 ca        1 A53      0.348200
     21 C21        -5.2960   -0.4330   -7.7960 ca        1 A53     -0.033200
     22 C22        -5.0910    0.4310   -6.7110 ca        1 A53     -0.104000
     23 O23        -6.5210   -0.3380   -8.4500 os        1 A53     -0.372900
     24 C24        -7.0080   -1.5710   -8.9810 c3        1 A53      0.104400
     25 C25        -8.5390   -1.4370   -9.0490 c3        1 A53      0.113500
     26 C26        -9.1450   -2.6980   -9.6850 c3        1 A53     -0.013200
     27 N27        -8.9410   -0.1990   -9.8010 n4        1 A53     -0.833600
     28 C28       -10.5800   -2.5410   -9.9320 cc        1 A53     -0.251400
     29 C29       -11.6280   -3.0330   -9.1420 cd        1 A53     -0.040100
     30 N30       -12.8490   -2.6930   -9.7040 na        1 A53     -0.166400
     31 C31       -12.6140   -1.9980  -10.8970 ca        1 A53     -0.047200
     32 C32       -11.1840   -1.8880  -11.0760 ca        1 A53     -0.118800
     33 C33       -13.5080   -1.4570  -11.8360 ca        1 A53     -0.111000
     34 C34       -12.9710   -0.8270  -12.9470 ca        1 A53     -0.105000
     35 C35       -11.5780   -0.7390  -13.1440 ca        1 A53     -0.117000
     36 C36       -10.6850   -1.2640  -12.2240 ca        1 A53     -0.151000
     37 H2          0.0960   -2.2660   -0.5900 ha        1 A53      0.153000
     38 H3          1.3970   -2.2440    1.8060 ha        1 A53      0.163000
     39 H4          1.0620    0.2740    2.8410 h4        1 A53      0.178000
     40 HN5        -0.3210    1.5840    1.1670 hn        1 A53      0.334700
     41 H6         -1.2460   -0.5880   -1.9620 ha        1 A53      0.137000
     42 HN9        -2.7810    4.5460   -1.3910 hn        1 A53      0.348500
     43 H13        -4.1260    4.4920   -3.8780 ha        1 A53      0.147000
     44 H14        -4.6040    2.9760   -5.7850 ha        1 A53      0.130000
     45 H16        -2.4120   -0.2510   -3.8920 ha        1 A53      0.139000
     46 H18        -1.8520   -0.5240   -6.1260 h4        1 A53      0.045100
     47 H20        -4.3960   -1.9830   -9.0720 h4        1 A53      0.025100
     48 H22        -5.8910    1.1030   -6.3670 ha        1 A53      0.154000
     49 H241       -6.5640   -1.7270  -10.0000 h1        1 A53      0.082700
     50 H242       -6.7510   -2.4390   -8.3180 h1        1 A53      0.082700
     51 H25        -8.9440   -1.3060   -8.0000 hx        1 A53      0.115700
     52 H261       -8.9530   -3.5490   -8.9760 hc        1 A53      0.087200
     53 H262       -8.6120   -2.9310  -10.6470 hc        1 A53      0.087200
     54 H271       -8.5680    0.6250   -9.3180 hn        1 A53      0.464800
     55 H272       -8.5620   -0.2330  -10.7520 hn        1 A53      0.464800
     56 H29       -11.5780   -3.6070   -8.2110 h4        1 A53      0.184000
     57 H30       -13.7390   -2.9720   -9.3750 hn        1 A53      0.321700
     58 H33       -14.5950   -1.5410  -11.6990 ha        1 A53      0.156000
     59 H34       -13.6450   -0.3970  -13.7060 ha        1 A53      0.156000
     60 H35       -11.2020   -0.2550  -14.0590 ha        1 A53      0.149000
     61 H36        -9.6050   -1.2450  -12.4250 ha        1 A53      0.116000
     62 H273       -9.9670   -0.1560   -9.8620 hn        1 A53      0.464800
@<TRIPOS>BOND
     1    1    2 2   
     2    1    5 1   
     3    1    6 1   
     4    2    3 1   
     5    2   37 1   
     6    3    4 2   
     7    3   38 1   
     8    4    5 1   
     9    4   39 1   
    10    5   40 1   
    11    6    7 2   
    12    6   41 1   
    13    7    8 1   
    14    7   11 1   
    15    8    9 1   
    16    8   12 2   
    17    9   10 1   
    18    9   42 1   
    19   10   11 ar  
    20   10   13 ar  
    21   11   16 ar  
    22   13   14 ar  
    23   13   43 1   
    24   14   15 ar  
    25   14   44 1   
    26   15   16 ar  
    27   15   17 1   
    28   16   45 1   
    29   17   18 ar  
    30   17   22 ar  
    31   18   19 ar  
    32   18   46 1   
    33   19   20 ar  
    34   20   21 ar  
    35   20   47 1   
    36   21   22 ar  
    37   21   23 1   
    38   22   48 1   
    39   23   24 1   
    40   24   25 1   
    41   24   49 1   
    42   24   50 1   
    43   25   26 1   
    44   25   27 1   
    45   25   51 1   
    46   26   28 1   
    47   26   52 1   
    48   26   53 1   
    49   27   54 1   
    50   27   55 1   
    51   27   62 1   
    52   28   29 2   
    53   28   32 1   
    54   29   30 1   
    55   29   56 1   
    56   30   31 1   
    57   30   57 1   
    58   31   32 ar  
    59   31   33 ar  
    60   32   36 ar  
    61   33   34 ar  
    62   33   58 1   
    63   34   35 ar  
    64   34   59 1   
    65   35   36 ar  
    66   35   60 1   
    67   36   61 1   
@<TRIPOS>SUBSTRUCTURE
     1 A53         1 TEMP              0 ****  ****    0 ROOT
