@<TRIPOS>MOLECULE
A53
   62    67     1     0     0
SMALL
bcc


@<TRIPOS>ATOM
      1 C1         -0.3680   -0.1510   -0.1120 cc        1 A53     -0.176100
      2 C2          0.2170   -1.4400    0.0610 cd        1 A53     -0.125000
      3 C3          0.8980   -1.4370    1.3030 cd        1 A53     -0.214000
      4 C4          0.7210   -0.1520    1.8690 cc        1 A53     -0.109300
      5 N5         -0.0390    0.6140    1.0160 na        1 A53     -0.130100
      6 C6         -1.1360    0.2380   -1.2450 ce        1 A53      0.078800
      7 C7         -1.7550    1.3940   -1.5610 cd        1 A53     -0.196400
      8 C8         -1.8460    2.6890   -0.8130 c         1 A53      0.727700
      9 N9         -2.6230    3.5860   -1.5890 n         1 A53     -0.472100
     10 C10        -3.0220    2.9630   -2.7750 ca        1 A53      0.081600
     11 C11        -2.5130    1.6120   -2.8010 ca        1 A53     -0.087800
     12 O12        -1.3760    3.0250    0.2830 o         1 A53     -0.630500
     13 C13        -3.7860    3.4560   -3.8310 ca        1 A53     -0.171000
     14 C14        -4.0460    2.6040   -4.9070 ca        1 A53     -0.078000
     15 C15        -3.5580    1.2930   -4.9450 cp        1 A53     -0.101000
     16 C16        -2.7800    0.7940   -3.8780 ca        1 A53     -0.068000
     17 C17        -3.8450    0.4360   -6.0870 cp        1 A53     -0.089300
     18 C18        -2.8560   -0.4420   -6.6030 ca        1 A53      0.396200
     19 N19        -3.0540   -1.2630   -7.6470 nb        1 A53     -0.623000
     20 C20        -4.2600   -1.2460   -8.2450 ca        1 A53      0.348200
     21 C21        -5.3000   -0.4060   -7.8030 ca        1 A53     -0.033200
     22 C22        -5.1010    0.4460   -6.7070 ca        1 A53     -0.104000
     23 O23        -6.5290   -0.3180   -8.4500 os        1 A53     -0.372900
     24 C24        -7.0030   -1.5510   -8.9940 c3        1 A53      0.104400
     25 C25        -8.5360   -1.4350   -9.0510 c3        1 A53      0.113500
     26 C26        -9.1300   -2.6960   -9.7000 c3        1 A53     -0.013200
     27 N27        -8.9580   -0.1930   -9.7850 n4        1 A53     -0.833600
     28 C28       -10.5680   -2.5540   -9.9380 cc        1 A53     -0.251400
     29 C29       -11.6050   -3.0700   -9.1480 cd        1 A53     -0.040100
     30 N30       -12.8340   -2.7380   -9.6990 na        1 A53     -0.166400
     31 C31       -12.6130   -2.0250  -10.8840 ca        1 A53     -0.047200
     32 C32       -11.1870   -1.8940  -11.0690 ca        1 A53     -0.118800
     33 C33       -13.5200   -1.4830  -11.8110 ca        1 A53     -0.111000
     34 C34       -12.9970   -0.8320  -12.9160 ca        1 A53     -0.105000
     35 C35       -11.6070   -0.7230  -13.1200 ca        1 A53     -0.117000
     36 C36       -10.7020   -1.2480  -12.2120 ca        1 A53     -0.151000
     37 H2          0.1450   -2.2650   -0.6430 ha        1 A53      0.153000
     38 H3          1.4550   -2.2570    1.7480 ha        1 A53      0.163000
     39 H4          1.0930    0.2430    2.8160 h4        1 A53      0.178000
     40 HN5        -0.3120    1.5580    1.1650 hn        1 A53      0.334700
     41 H6         -1.2240   -0.5860   -1.9880 ha        1 A53      0.137000
     42 HN9        -2.8180    4.5210   -1.3450 hn        1 A53      0.348500
     43 H13        -4.1720    4.4840   -3.8280 ha        1 A53      0.147000
     44 H14        -4.6400    2.9860   -5.7520 ha        1 A53      0.130000
     45 H16        -2.4010   -0.2380   -3.9090 ha        1 A53      0.139000
     46 H18        -1.8470   -0.4750   -6.1490 h4        1 A53      0.045100
     47 H20        -4.3860   -1.9280   -9.1030 h4        1 A53      0.025100
     48 H22        -5.9070    1.1040   -6.3520 ha        1 A53      0.154000
     49 H241       -6.7310   -2.4230   -8.3430 h1        1 A53      0.082700
     50 H242       -6.5620   -1.6880  -10.0170 h1        1 A53      0.082700
     51 H25        -8.9370   -1.3230   -7.9990 hx        1 A53      0.115700
     52 H261       -8.9230   -3.5540   -9.0030 hc        1 A53      0.087200
     53 H262       -8.5990   -2.9090  -10.6690 hc        1 A53      0.087200
     54 H271       -8.5930    0.6290   -9.2940 hn        1 A53      0.464800
     55 H272       -9.9850   -0.1630   -9.8390 hn        1 A53      0.464800
     56 H29       -11.5420   -3.6550   -8.2250 h4        1 A53      0.184000
     57 H30       -13.7170   -3.0330   -9.3690 hn        1 A53      0.321700
     58 H33       -14.6060   -1.5830  -11.6690 ha        1 A53      0.156000
     59 H34       -13.6810   -0.4000  -13.6660 ha        1 A53      0.156000
     60 H35       -11.2420   -0.2220  -14.0310 ha        1 A53      0.149000
     61 H36        -9.6230   -1.2130  -12.4190 ha        1 A53      0.116000
     62 H273       -8.5840   -0.2100  -10.7380 hn        1 A53      0.464800
@<TRIPOS>BOND
     1    1    2 2   
     2    1    5 1   
     3    1    6 1   
     4    2    3 1   
     5    2   37 1   
     6    3    4 2   
     7    3   38 1   
     8    4    5 1   
     9    4   39 1   
    10    5   40 1   
    11    6    7 2   
    12    6   41 1   
    13    7    8 1   
    14    7   11 1   
    15    8    9 1   
    16    8   12 2   
    17    9   10 1   
    18    9   42 1   
    19   10   11 ar  
    20   10   13 ar  
    21   11   16 ar  
    22   13   14 ar  
    23   13   43 1   
    24   14   15 ar  
    25   14   44 1   
    26   15   16 ar  
    27   15   17 1   
    28   16   45 1   
    29   17   18 ar  
    30   17   22 ar  
    31   18   19 ar  
    32   18   46 1   
    33   19   20 ar  
    34   20   21 ar  
    35   20   47 1   
    36   21   22 ar  
    37   21   23 1   
    38   22   48 1   
    39   23   24 1   
    40   24   25 1   
    41   24   49 1   
    42   24   50 1   
    43   25   26 1   
    44   25   27 1   
    45   25   51 1   
    46   26   28 1   
    47   26   52 1   
    48   26   53 1   
    49   27   54 1   
    50   27   55 1   
    51   27   62 1   
    52   28   29 2   
    53   28   32 1   
    54   29   30 1   
    55   29   56 1   
    56   30   31 1   
    57   30   57 1   
    58   31   32 ar  
    59   31   33 ar  
    60   32   36 ar  
    61   33   34 ar  
    62   33   58 1   
    63   34   35 ar  
    64   34   59 1   
    65   35   36 ar  
    66   35   60 1   
    67   36   61 1   
@<TRIPOS>SUBSTRUCTURE
     1 A53         1 TEMP              0 ****  ****    0 ROOT
