@<TRIPOS>MOLECULE
A54
   36    37     1     0     0
SMALL
bcc


@<TRIPOS>ATOM
      1 C1          0.9270   -1.0580    0.2450 ca        1 A54     -0.095000
      2 C2          2.2960   -0.8090    0.3630 ca        1 A54     -0.119500
      3 C3          2.8130   -0.2950    1.5500 ca        1 A54     -0.109500
      4 C4          1.9580   -0.0220    2.6250 ca        1 A54     -0.164300
      5 C5          0.5870   -0.2720    2.5050 ca        1 A54     -0.109500
      6 C6          0.0750   -0.7920    1.3170 ca        1 A54     -0.119500
      7 C7          2.5210    0.5640    3.8820 c3        1 A54      0.201400
      8 C8          2.1560    2.0520    3.9550 c3        1 A54     -0.116400
      9 C9          2.7440    2.7910    5.1460 c3        1 A54      0.108800
     10 N10         2.1510    2.3750    6.4490 n4        1 A54     -0.836600
     11 O11         1.9380   -0.0060    5.0730 os        1 A54     -0.395900
     12 C12         2.2990   -1.2920    5.4350 ca        1 A54      0.157100
     13 C13         2.9480   -2.2030    4.6020 ca        1 A54     -0.187000
     14 C14         3.2180   -3.4890    5.0880 ca        1 A54      0.079400
     15 C15         2.8440   -3.8610    6.3850 ca        1 A54     -0.146000
     16 C16         2.2020   -2.9440    7.2130 ca        1 A54     -0.033000
     17 C17         1.9320   -1.6490    6.7560 ca        1 A54     -0.084000
     18 C18         1.3090   -0.6800    7.5840 cg        1 A54      0.271800
     19 N19         0.8200    0.1600    8.2250 n1        1 A54     -0.415800
     20 CL2         4.0030   -4.6010    4.0860 cl        1 A54     -0.032400
     21 H1          0.5210   -1.4670   -0.6940 ha        1 A54      0.154000
     22 H2          2.9700   -1.0220   -0.4820 ha        1 A54      0.152000
     23 H6         -1.0040   -0.9930    1.2270 ha        1 A54      0.152000
     24 H3          3.8940   -0.1060    1.6390 ha        1 A54      0.136500
     25 H5         -0.0810   -0.0710    3.3550 ha        1 A54      0.136500
     26 H7          3.6380    0.4220    3.9270 h1        1 A54      0.067700
     27 H81C        2.5580    2.5430    3.0250 hc        1 A54      0.104700
     28 H82C        1.0380    2.1540    3.9340 hc        1 A54      0.104700
     29 H91C        3.8560    2.6120    5.2070 hx        1 A54      0.107700
     30 H92C        2.5610    3.8990    5.0240 hx        1 A54      0.107700
     31 H101        1.1270    2.4410    6.4160 hn        1 A54      0.466800
     32 H102        2.3950    1.3880    6.6280 hn        1 A54      0.466800
     33 H13         3.2230   -1.9270    3.5710 ha        1 A54      0.176000
     34 H15         3.0540   -4.8790    6.7530 ha        1 A54      0.176000
     35 H16         1.9060   -3.2370    8.2340 ha        1 A54      0.168000
     36 H103        2.5030    2.9590    7.2120 hn        1 A54      0.466800
@<TRIPOS>BOND
     1    1    2 ar  
     2    1    6 ar  
     3    1   21 1   
     4    2    3 ar  
     5    2   22 1   
     6    3    4 ar  
     7    3   24 1   
     8    4    5 ar  
     9    4    7 1   
    10    5    6 ar  
    11    5   25 1   
    12    6   23 1   
    13    7    8 1   
    14    7   11 1   
    15    7   26 1   
    16    8    9 1   
    17    8   27 1   
    18    8   28 1   
    19    9   10 1   
    20    9   29 1   
    21    9   30 1   
    22   10   31 1   
    23   10   32 1   
    24   10   36 1   
    25   11   12 1   
    26   12   13 ar  
    27   12   17 ar  
    28   13   14 ar  
    29   13   33 1   
    30   14   15 ar  
    31   14   20 1   
    32   15   16 ar  
    33   15   34 1   
    34   16   17 ar  
    35   16   35 1   
    36   17   18 1   
    37   18   19 3   
@<TRIPOS>SUBSTRUCTURE
     1 A54         1 TEMP              0 ****  ****    0 ROOT
