@<TRIPOS>MOLECULE
A54
   35    31     1     0     0
SMALL
bcc


@<TRIPOS>ATOM
      1 C1         -2.2440    0.4400   -3.6930 c1        1 A54     -0.120333
      2 C2         -0.8590    0.4630   -3.6890 c1        1 A54     -0.120333
      3 C3         -0.1680    0.4820   -2.4830 c1        1 A54     -0.120333
      4 C4         -0.8580    0.4770   -1.2940 c1        1 A54     -0.120000
      5 C5         -2.2450    0.4540   -1.2980 c1        1 A54     -0.099000
      6 C6         -2.9360    0.4350   -2.5040 c1        1 A54     -0.120333
      7 C7         -0.1050    0.4360    0.0130 c3        1 A54      0.072000
      8 C8         -0.1270    1.8290    0.6660 c3        1 A54     -0.163000
      9 C9          1.2230    2.5820    0.3490 c3        1 A54     -0.075000
     10 N10         1.1140    3.9620    0.7700 n3        1 A54     -0.346000
     11 O11        -0.7120   -0.4970    0.8750 os        1 A54     -0.202000
     12 C12         0.1370   -1.5380    1.2760 c2        1 A54      0.135000
     13 C13         0.7660   -2.3260    0.3220 c2        1 A54     -0.205000
     14 C14         1.5570   -3.4000    0.7200 c1        1 A54     -0.007000
     15 C15         1.7160   -3.6820    2.0700 c1        1 A54     -0.120333
     16 C16         1.0870   -2.8930    3.0210 c1        1 A54     -0.120333
     17 C17         0.2970   -1.8200    2.6240 c1        1 A54     -0.048000
     18 C18        -0.3530   -0.9270    3.6670 c1        1 A54     -0.081000
     19 N19        -0.8400   -0.2580    4.4500 n1        1 A54     -0.038000
     20 CL2         2.2970   -4.4350   -0.4830 cl        1 A54     -0.002000
     21 H1         -2.7310    0.4260   -4.5440 ha        1 A54      0.140667
     22 H2         -0.3620    0.4670   -4.5430 ha        1 A54      0.140667
     23 H6         -3.9180    0.4180   -2.5080 ha        1 A54      0.140667
     24 H3          0.8160    0.4990   -2.4810 ha        1 A54      0.140667
     25 H5         -2.7380    0.4500   -0.4490 ha        1 A54      0.148000
     26 H7          0.8160    0.1720   -0.1530 h1        1 A54      0.097000
     27 H81C       -0.8820    2.3470    0.3070 hc        1 A54      0.110000
     28 H82C       -0.2280    1.7340    1.6380 hc        1 A54      0.110000
     29 H91C        1.9650    2.1470    0.8340 h1        1 A54      0.066000
     30 H92C        1.3980    2.5470   -0.6160 h1        1 A54      0.066000
     31 H101        1.7650    4.1440    1.4100 hn        1 A54      0.147500
     32 H102        1.2350    4.5170    0.0410 hn        1 A54      0.147500
     33 H13         0.6530   -2.1270   -0.6320 ha        1 A54      0.166000
     34 H15         2.2690   -4.4340    2.3490 ha        1 A54      0.140667
     35 H16         1.1980   -3.0900    3.9670 ha        1 A54      0.140667
@<TRIPOS>BOND
     1    1    6 1   
     2    1   21 1   
     3    2    3 1   
     4    2   22 1   
     5    3   24 1   
     6    4    5 1   
     7    4    7 1   
     8    5   25 1   
     9    6   23 1   
    10    7    8 1   
    11    7   11 1   
    12    7   26 1   
    13    8    9 1   
    14    8   27 1   
    15    8   28 1   
    16    9   10 1   
    17    9   29 1   
    18    9   30 1   
    19   10   31 1   
    20   10   32 1   
    21   11   12 1   
    22   12   13 1   
    23   12   17 1   
    24   13   14 1   
    25   13   33 1   
    26   14   20 1   
    27   15   16 1   
    28   15   34 1   
    29   16   35 1   
    30   17   18 1   
    31   18   19 1   
@<TRIPOS>SUBSTRUCTURE
     1 A54         1 TEMP              0 ****  ****    0 ROOT
