@<TRIPOS>MOLECULE
A54
   35    36     1     0     0
SMALL
bcc


@<TRIPOS>ATOM
      1 C1         -4.5460    0.5430    1.3330 ca        1 A54     -0.120000
      2 C2         -3.8750   -0.5670    1.8470 ca        1 A54     -0.131000
      3 C3         -2.6920   -1.0060    1.2530 ca        1 A54     -0.108000
      4 C4         -2.1780   -0.3370    0.1370 ca        1 A54     -0.120300
      5 C5         -2.8530    0.7760   -0.3760 ca        1 A54     -0.108000
      6 C6         -4.0330    1.2150    0.2240 ca        1 A54     -0.131000
      7 C7         -0.9190   -0.8360   -0.5070 c3        1 A54      0.193400
      8 C8         -1.2300   -1.6380   -1.7700 c3        1 A54     -0.089400
      9 C9          0.0110   -2.3960   -2.2370 c3        1 A54      0.155800
     10 N10        -0.2180   -3.1830   -3.4250 n3        1 A54     -0.913800
     11 O11        -0.1230    0.2970   -0.9370 os        1 A54     -0.333900
     12 C12         0.9700    0.6030   -0.1560 ca        1 A54      0.169100
     13 C13         1.9040   -0.3700    0.2300 ca        1 A54     -0.188000
     14 C14         3.0420    0.0190    0.9380 ca        1 A54      0.060400
     15 C15         3.2670    1.3640    1.2550 ca        1 A54     -0.153000
     16 C16         2.3470    2.3270    0.8550 ca        1 A54     -0.064000
     17 C17         1.1900    1.9640    0.1510 ca        1 A54     -0.035000
     18 C18         0.2660    2.9620   -0.2550 cg        1 A54      0.248800
     19 N19        -0.4900    3.7800   -0.5910 n1        1 A54     -0.361800
     20 CL2         4.1710   -1.1560    1.4130 cl        1 A54     -0.078400
     21 H1         -5.4770    0.8900    1.8050 ha        1 A54      0.133000
     22 H2         -4.2770   -1.0970    2.7230 ha        1 A54      0.135500
     23 H6         -4.5560    2.0950   -0.1800 ha        1 A54      0.135500
     24 H3         -2.1650   -1.8800    1.6640 ha        1 A54      0.139500
     25 H5         -2.4380    1.3070   -1.2460 ha        1 A54      0.139500
     26 H7         -0.3430   -1.4680    0.2240 h1        1 A54      0.060700
     27 H81C       -2.0610   -2.3540   -1.5410 hc        1 A54      0.069700
     28 H82C       -1.5850   -0.9360   -2.5680 hc        1 A54      0.069700
     29 H91C        0.8460   -1.6410   -2.3640 h1        1 A54      0.026700
     30 H92C        0.3340   -3.1070   -1.4230 h1        1 A54      0.026700
     31 H101       -0.6500   -2.6360   -4.1430 hn        1 A54      0.351800
     32 H102        0.6470   -3.5520   -3.7680 hn        1 A54      0.351800
     33 H13         1.7440   -1.4250   -0.0420 ha        1 A54      0.160000
     34 H15         4.1670    1.6610    1.8150 ha        1 A54      0.157000
     35 H16         2.5250    3.3880    1.0950 ha        1 A54      0.153000
@<TRIPOS>BOND
     1    1    2 ar  
     2    1    6 ar  
     3    1   21 1   
     4    2    3 ar  
     5    2   22 1   
     6    3    4 ar  
     7    3   24 1   
     8    4    5 ar  
     9    4    7 1   
    10    5    6 ar  
    11    5   25 1   
    12    6   23 1   
    13    7    8 1   
    14    7   11 1   
    15    7   26 1   
    16    8    9 1   
    17    8   27 1   
    18    8   28 1   
    19    9   10 1   
    20    9   29 1   
    21    9   30 1   
    22   10   31 1   
    23   10   32 1   
    24   11   12 1   
    25   12   13 ar  
    26   12   17 ar  
    27   13   14 ar  
    28   13   33 1   
    29   14   15 ar  
    30   14   20 1   
    31   15   16 ar  
    32   15   34 1   
    33   16   17 ar  
    34   16   35 1   
    35   17   18 1   
    36   18   19 3   
@<TRIPOS>SUBSTRUCTURE
     1 A54         1 TEMP              0 ****  ****    0 ROOT
