@<TRIPOS>MOLECULE
A54
   36    37     1     0     0
SMALL
bcc


@<TRIPOS>ATOM
      1 C1          2.0350   -0.9540    0.0680 ca        1 A54     -0.097000
      2 C2          3.2960   -0.7500    0.6300 ca        1 A54     -0.122000
      3 C3          3.4120   -0.2680    1.9340 ca        1 A54     -0.111000
      4 C4          2.2620    0.0160    2.6790 ca        1 A54     -0.157300
      5 C5          0.9990   -0.1920    2.1140 ca        1 A54     -0.111000
      6 C6          0.8870   -0.6770    0.8120 ca        1 A54     -0.122000
      7 C7          2.3990    0.5670    4.0630 c3        1 A54      0.199400
      8 C8          1.9880    2.0410    4.0800 c3        1 A54     -0.116400
      9 C9          2.2180    2.7200    5.4200 c3        1 A54      0.109800
     10 N10         1.1940    2.3560    6.4430 nz        1 A54     -0.841600
     11 O11         1.5120   -0.0880    5.0040 os        1 A54     -0.405900
     12 C12         1.9110   -1.3650    5.3880 ca        1 A54      0.127100
     13 C13         1.6020   -2.4660    4.5860 ca        1 A54     -0.130000
     14 C14         1.9140   -3.7510    5.0490 ca        1 A54      0.059400
     15 C15         2.5270   -3.9320    6.2950 ca        1 A54     -0.124000
     16 C16         2.8300   -2.8290    7.0900 ca        1 A54     -0.051000
     17 C17         2.5280   -1.5350    6.6470 ca        1 A54     -0.072000
     18 C18         2.8090   -0.4010    7.4500 cg        1 A54      0.276800
     19 N19         3.0120    0.5580    8.0790 n1        1 A54     -0.427800
     20 Cl2         1.5430   -5.0900    4.0890 cl        1 A54     -0.030400
     21 H1          1.9460   -1.3350   -0.9620 ha        1 A54      0.153000
     22 H2          4.2020   -0.9720    0.0460 ha        1 A54      0.151000
     23 H6         -0.1080   -0.8400    0.3700 ha        1 A54      0.151000
     24 H3          4.4100   -0.1160    2.3720 ha        1 A54      0.136000
     25 H5          0.0960    0.0190    2.7060 ha        1 A54      0.136000
     26 H7          3.4570    0.4510    4.4340 h1        1 A54      0.069700
     27 H81C        0.9180    2.1330    3.7530 hc        1 A54      0.101200
     28 H82C        2.6200    2.5770    3.3180 hc        1 A54      0.101200
     29 H91C        3.2280    2.4280    5.8340 hx        1 A54      0.111700
     30 H92C        2.1900    3.8410    5.2930 hx        1 A54      0.111700
     31 H101        1.4890    2.6820    7.3690 hn        1 A54      0.466800
     32 H102        0.2920    2.7770    6.2060 hn        1 A54      0.466800
     33 H13         1.1240   -2.3090    3.6040 ha        1 A54      0.181000
     34 H15         2.7710   -4.9470    6.6510 ha        1 A54      0.176000
     35 H16         3.3090   -2.9750    8.0720 ha        1 A54      0.167000
     36 H103        1.0760    1.3290    6.4610 hn        1 A54      0.466800
@<TRIPOS>BOND
     1    1    2 ar  
     2    1    6 ar  
     3    1   21 1   
     4    2    3 ar  
     5    2   22 1   
     6    3    4 ar  
     7    3   24 1   
     8    4    5 ar  
     9    4    7 1   
    10    5    6 ar  
    11    5   25 1   
    12    6   23 1   
    13    7    8 1   
    14    7   11 1   
    15    7   26 1   
    16    8    9 1   
    17    8   27 1   
    18    8   28 1   
    19    9   10 1   
    20    9   29 1   
    21    9   30 1   
    22   10   31 1   
    23   10   32 1   
    24   10   36 1   
    25   11   12 1   
    26   12   13 ar  
    27   12   17 ar  
    28   13   14 ar  
    29   13   33 1   
    30   14   15 ar  
    31   14   20 1   
    32   15   16 ar  
    33   15   34 1   
    34   16   17 ar  
    35   16   35 1   
    36   17   18 1   
    37   18   19 3   
@<TRIPOS>SUBSTRUCTURE
     1 A54         1 TEMP              0 ****  ****    0 ROOT
