@<TRIPOS>MOLECULE
A55
   39    41     1     0     0
SMALL
bcc


@<TRIPOS>ATOM
      1 C2         -0.0820   -0.7300    0.0930 ca        1 A55     -0.031000
      2 C1          1.3020   -0.9150    0.1270 ca        1 A55     -0.147000
      3 C6          2.0440   -0.4540    1.2140 ca        1 A55      0.170900
      4 C5          1.4200    0.2120    2.3040 ca        1 A55     -0.337900
      5 C4          0.0040    0.3970    2.2770 ca        1 A55      0.239600
      6 C3         -0.7370   -0.0910    1.1460 ca        1 A55      0.064900
      7 F27        -2.0800    0.0770    1.1110 f         1 A55     -0.106900
      8 N7         -0.6430    1.0470    3.3050 nu        1 A55     -0.801600
      9 C8          0.0470    1.4890    4.5070 c3        1 A55      0.463700
     10 N9          1.4930    1.2990    4.5170 n2        1 A55     -0.621900
     11 C10         2.0830    0.7490    3.4960 ce        1 A55      0.626800
     12 N11         3.5700    0.6800    3.5450 nz        1 A55     -0.807600
     13 C16        -0.6070    0.8620    5.7840 c3        1 A55     -0.131400
     14 C17        -0.1360    1.6140    7.0210 c3        1 A55      0.106800
     15 N18        -0.8540    1.2020    8.2610 ny        1 A55     -0.689800
     16 C20        -0.2120    1.8060    9.5280 c         1 A55      0.624700
     17 C21        -1.1240    2.1670   10.5680 cc        1 A55     -0.371900
     18 C23        -0.6640    2.7540   11.8230 cc        1 A55     -0.195300
     19 C24        -1.7900    2.9650   12.5850 cd        1 A55      0.293600
     20 O25        -2.9280    2.5420   11.8790 os        1 A55     -0.289800
     21 C26        -2.5160    2.0630   10.6650 cd        1 A55      0.349600
     22 O22         1.0050    1.8870    9.4860 o         1 A55     -0.421100
     23 F12         3.3850   -0.6580    1.2200 f         1 A55     -0.143900
     24 H2         -0.6690   -1.0920   -0.7720 ha        1 A55      0.201000
     25 H1          1.8130   -1.4260   -0.7080 ha        1 A55      0.199000
     26 HN7        -1.6250    1.2040    3.2410 hn        1 A55      0.486800
     27 H8         -0.0970    2.6230    4.5820 h2        1 A55      0.100700
     28 H111        3.9410    1.1790    2.7210 hn        1 A55      0.486133
     29 H112        3.9520    1.0980    4.4030 hn        1 A55      0.486133
     30 H161       -1.7220    0.9450    5.6760 hc        1 A55      0.084200
     31 H162       -0.3490   -0.2270    5.8560 hc        1 A55      0.084200
     32 H171        0.9680    1.4360    7.1920 hx        1 A55      0.122700
     33 H172       -0.2940    2.7250    6.8930 hx        1 A55      0.122700
     34 H18        -1.8350    1.4880    8.2050 hn        1 A55      0.453800
     35 H23         0.3760    2.9680   12.0740 ha        1 A55      0.208000
     36 H24        -2.0070    3.3690   13.5770 h4        1 A55      0.107100
     37 H26        -3.3220    1.6980   10.0270 h4        1 A55      0.073100
     38 H113        3.8560   -0.3080    3.4800 hn        1 A55      0.486133
     39 H182       -0.8220    0.1800    8.3500 hn        1 A55      0.453800
@<TRIPOS>BOND
     1    1    2 ar  
     2    1    6 ar  
     3    1   24 1   
     4    2    3 ar  
     5    2   25 1   
     6    3    4 ar  
     7    3   23 1   
     8    4    5 ar  
     9    4   11 1   
    10    5    6 ar  
    11    5    8 1   
    12    6    7 1   
    13    8    9 1   
    14    8   26 1   
    15    9   10 1   
    16    9   13 1   
    17    9   27 1   
    18   10   11 2   
    19   11   12 1   
    20   12   28 1   
    21   12   29 1   
    22   12   38 1   
    23   13   14 1   
    24   13   30 1   
    25   13   31 1   
    26   14   15 1   
    27   14   32 1   
    28   14   33 1   
    29   15   16 1   
    30   15   34 1   
    31   15   39 1   
    32   16   17 1   
    33   16   22 2   
    34   17   18 1   
    35   17   21 2   
    36   18   19 2   
    37   18   35 1   
    38   19   20 1   
    39   19   36 1   
    40   20   21 1   
    41   21   37 1   
@<TRIPOS>SUBSTRUCTURE
     1 A55         1 TEMP              0 ****  ****    0 ROOT
