@<TRIPOS>MOLECULE
A55
   37    33     1     0     0
SMALL
bcc


@<TRIPOS>ATOM
      1 C2          0.5380    0.9600   -5.5800 c1        1 A55     -0.141500
      2 C1          1.9130    1.0350   -5.5820 c1        1 A55     -0.141500
      3 C6          2.6090    0.9910   -4.3890 c1        1 A55      0.069500
      4 C5          1.9090    0.8680   -3.1670 c1        1 A55     -0.180000
      5 C4          0.5660    0.7950   -3.1660 c1        1 A55      0.108000
      6 C3         -0.1460    0.8400   -4.3870 c1        1 A55      0.069500
      7 F27        -1.4850    0.8370   -4.3800 f         1 A55     -0.105500
      8 N7         -0.1360    0.4300   -1.9520 n3        1 A55     -0.306000
      9 C8          0.4940    0.6710   -0.6220 c3        1 A55      0.097000
     10 N9          1.9510    0.9300   -0.6730 n2        1 A55     -0.289000
     11 C10         2.6470    0.8150   -1.8920 c2        1 A55      0.171000
     12 N11         4.0660    0.7670   -1.8970 n3        1 A55     -0.339000
     13 C16         0.1710   -0.4690    0.3550 c3        1 A55     -0.215000
     14 C17        -0.0450    0.1000    1.7390 c3        1 A55     -0.023000
     15 N18        -1.0000   -0.6950    2.4340 n         1 A55     -0.372000
     16 C20        -1.1880   -0.5190    3.8290 c2        1 A55      0.367000
     17 C21        -2.3790   -1.1520    4.5170 c2        1 A55     -0.197000
     18 C23        -2.6650   -1.0830    5.8510 c1        1 A55     -0.145000
     19 C24        -3.8100   -1.8210    6.0790 c1        1 A55     -0.103000
     20 O25        -4.2240   -2.3420    4.8820 os        1 A55     -0.098000
     21 C26        -3.3440   -1.9320    3.9140 c1        1 A55     -0.049000
     22 O22        -0.3820    0.1210    4.4750 o         1 A55     -0.360000
     23 F12         3.9470    0.9620   -4.3970 f         1 A55     -0.105500
     24 H2          0.0470    0.9910   -6.4230 ha        1 A55      0.157500
     25 H1          2.3960    1.1200   -6.4260 ha        1 A55      0.157500
     26 HN7        -0.9760    0.7970   -1.9630 hn        1 A55      0.229000
     27 H8          0.0440    1.4200   -0.1790 h2        1 A55      0.125000
     28 H111        4.4970   -0.0200   -1.7210 hn        1 A55      0.212500
     29 H112        4.5480    1.5310   -2.0240 hn        1 A55      0.212500
     30 H161       -0.6380   -0.9290    0.0620 hc        1 A55      0.091000
     31 H162        0.9180   -1.1010    0.3750 hc        1 A55      0.091000
     32 H171       -0.3760    1.0170    1.6660 h1        1 A55      0.113000
     33 H172        0.8030    0.0970    2.2300 h1        1 A55      0.113000
     34 H18        -1.4780   -1.3310    1.9850 hn        1 A55      0.212000
     35 H23        -2.1520   -0.5980    6.5230 DU        1 A55      0.191667
     36 H24        -4.2480   -1.9490    6.9430 DU        1 A55      0.191667
     37 H26        -3.3910   -2.1540    2.9630 DU        1 A55      0.191667
@<TRIPOS>BOND
     1    1    6 1   
     2    1   24 1   
     3    2    3 1   
     4    2   25 1   
     5    3   23 1   
     6    4    5 1   
     7    4   11 1   
     8    5    8 1   
     9    6    7 1   
    10    8    9 1   
    11    8   26 1   
    12    9   10 1   
    13    9   13 1   
    14    9   27 1   
    15   10   11 1   
    16   11   12 1   
    17   12   28 1   
    18   12   29 1   
    19   13   14 1   
    20   13   30 1   
    21   13   31 1   
    22   14   15 1   
    23   14   32 1   
    24   14   33 1   
    25   15   16 1   
    26   15   34 1   
    27   16   17 1   
    28   16   22 1   
    29   17   18 1   
    30   17   21 1   
    31   18   19 1   
    32   19   20 1   
    33   20   21 1   
@<TRIPOS>SUBSTRUCTURE
     1 A55         1 TEMP              0 ****  ****    0 ROOT
