@<TRIPOS>MOLECULE
A55
   39    41     1     0     0
SMALL
bcc


@<TRIPOS>ATOM
      1 C2         -0.0990   -0.7210    0.0940 ca        1 A55     -0.031000
      2 C1          1.2750   -0.9650    0.1430 ca        1 A55     -0.147000
      3 C6          2.0240   -0.5370    1.2380 ca        1 A55      0.170900
      4 C5          1.4180    0.1560    2.3210 ca        1 A55     -0.337900
      5 C4          0.0110    0.4020    2.2790 ca        1 A55      0.239600
      6 C3         -0.7380   -0.0550    1.1400 ca        1 A55      0.064900
      7 F27        -2.0710    0.1720    1.0900 f         1 A55     -0.106900
      8 N7         -0.6180    1.0790    3.2990 nh        1 A55     -0.801600
      9 C8          0.0770    1.4920    4.5090 c3        1 A55      0.463700
     10 N9          1.5130    1.2400    4.5350 n2        1 A55     -0.621900
     11 C10         2.0900    0.6640    3.5210 ce        1 A55      0.626800
     12 N11         3.5720    0.5320    3.5860 n4        1 A55     -0.807600
     13 C16        -0.6170    0.8930    5.7780 c3        1 A55     -0.131400
     14 C17        -0.1280    1.6250    7.0210 c3        1 A55      0.106800
     15 N18        -0.8770    1.2440    8.2540 n4        1 A55     -0.689800
     16 C20        -0.2230    1.8190    9.5270 c         1 A55      0.624700
     17 C21        -1.1300    2.2210   10.5570 cc        1 A55     -0.371900
     18 C23        -0.6580    2.7880   11.8170 cc        1 A55     -0.195300
     19 C24        -1.7830    3.0490   12.5660 cd        1 A55      0.293600
     20 O25        -2.9300    2.6780   11.8470 os        1 A55     -0.289800
     21 C26        -2.5260    2.1790   10.6380 cd        1 A55      0.349600
     22 O22         0.9970    1.8470    9.5000 o         1 A55     -0.421100
     23 F12         3.3560   -0.7980    1.2580 f         1 A55     -0.143900
     24 H2         -0.6920   -1.0580   -0.7780 ha        1 A55      0.201000
     25 H1          1.7730   -1.4980   -0.6870 ha        1 A55      0.199000
     26 HN7        -1.5910    1.2780    3.2250 hn        1 A55      0.486800
     27 H8         -0.0190    2.6300    4.5830 h2        1 A55      0.100700
     28 H111        3.8160   -0.4680    3.5240 hn        1 A55      0.486133
     29 H112        3.9730    1.0130    2.7670 hn        1 A55      0.486133
     30 H161       -0.4070   -0.2050    5.8540 hc        1 A55      0.084200
     31 H162       -1.7260    1.0240    5.6580 hc        1 A55      0.084200
     32 H171        0.9650    1.3990    7.2040 hx        1 A55      0.122200
     33 H172       -0.2360    2.7410    6.8920 hx        1 A55      0.122200
     34 H18        -0.8890    0.2220    8.3410 hn        1 A55      0.453800
     35 H23         0.3870    2.9550   12.0800 ha        1 A55      0.208000
     36 H24        -1.9920    3.4620   13.5550 h4        1 A55      0.107100
     37 H26        -3.3400    1.8510    9.9900 h4        1 A55      0.073100
     38 H113        3.9630    0.9330    4.4480 hn        1 A55      0.486133
     39 H182       -1.8440    1.5720    8.1870 hn        1 A55      0.453800
@<TRIPOS>BOND
     1    1    2 ar  
     2    1    6 ar  
     3    1   24 1   
     4    2    3 ar  
     5    2   25 1   
     6    3    4 ar  
     7    3   23 1   
     8    4    5 ar  
     9    4   11 1   
    10    5    6 ar  
    11    5    8 1   
    12    6    7 1   
    13    8    9 1   
    14    8   26 1   
    15    9   10 1   
    16    9   13 1   
    17    9   27 1   
    18   10   11 2   
    19   11   12 1   
    20   12   28 1   
    21   12   29 1   
    22   12   38 1   
    23   13   14 1   
    24   13   30 1   
    25   13   31 1   
    26   14   15 1   
    27   14   32 1   
    28   14   33 1   
    29   15   16 1   
    30   15   34 1   
    31   15   39 1   
    32   16   17 1   
    33   16   22 2   
    34   17   18 1   
    35   17   21 2   
    36   18   19 2   
    37   18   35 1   
    38   19   20 1   
    39   19   36 1   
    40   20   21 1   
    41   21   37 1   
@<TRIPOS>SUBSTRUCTURE
     1 A55         1 TEMP              0 ****  ****    0 ROOT
