@<TRIPOS>MOLECULE
A55
   37    39     1     0     0
SMALL
bcc


@<TRIPOS>ATOM
      1 C2         -4.6830   -2.0900    0.0860 ca        1 A55     -0.078000
      2 C1         -5.2100   -1.0890   -0.7150 ca        1 A55     -0.206000
      3 C6         -4.5340    0.1380   -0.8550 ca        1 A55      0.185900
      4 C5         -3.3170    0.3860   -0.1860 ca        1 A55     -0.267900
      5 C4         -2.7830   -0.6360    0.6560 ca        1 A55      0.191600
      6 C3         -3.4790   -1.8830    0.7650 ca        1 A55      0.024900
      7 F27        -2.9670   -2.8780    1.5350 f         1 A55     -0.140900
      8 N7         -1.6510   -0.4050    1.4210 nh        1 A55     -0.752600
      9 C8         -0.7410    0.6870    1.0460 c3        1 A55      0.420700
     10 N9         -1.3270    1.7700    0.2890 n2        1 A55     -0.701900
     11 C10        -2.4990    1.6340   -0.2900 ce        1 A55      0.693800
     12 N11        -2.9710    2.6810   -1.0880 nh        1 A55     -0.899800
     13 C16         0.5480    0.1440    0.3620 c3        1 A55     -0.136400
     14 C17         1.6330    1.2230    0.3740 c3        1 A55      0.093000
     15 N18         2.8880    0.8160   -0.1970 n         1 A55     -0.561900
     16 C20         3.8340    0.1240    0.5470 c         1 A55      0.693700
     17 C21         5.0300   -0.3490   -0.1620 cc        1 A55     -0.282900
     18 C23         6.0220   -1.2280    0.4310 cc        1 A55     -0.210300
     19 C24         6.9850   -1.4340   -0.5320 cd        1 A55      0.227600
     20 O25         6.6570   -0.7320   -1.6980 os        1 A55     -0.356800
     21 C26         5.4600   -0.0760   -1.4490 cd        1 A55      0.282600
     22 O22         3.6870   -0.0500    1.7750 o         1 A55     -0.600100
     23 F12        -5.1150    1.0620   -1.6580 f         1 A55     -0.135900
     24 H2         -5.2040   -3.0540    0.1930 ha        1 A55      0.157000
     25 H1         -6.1580   -1.2430   -1.2500 ha        1 A55      0.158000
     26 HN7        -1.2040   -1.2160    1.7940 hn        1 A55      0.433800
     27 H8         -0.4230    1.1480    2.0400 h2        1 A55      0.084700
     28 H111       -2.4760    3.5430   -1.0260 hn        1 A55      0.415800
     29 H112       -3.9610    2.7740   -1.1290 hn        1 A55      0.415800
     30 H161        0.9160   -0.7500    0.9310 hc        1 A55      0.053200
     31 H162        0.3250   -0.1790   -0.6860 hc        1 A55      0.053200
     32 H171        1.2760    2.1220   -0.2050 h1        1 A55      0.073700
     33 H172        1.8180    1.5360    1.4420 h1        1 A55      0.073700
     34 H18         2.9250    0.7410   -1.1860 hn        1 A55      0.299500
     35 H23         5.9740   -1.6160    1.4460 ha        1 A55      0.184000
     36 H24         7.9120   -1.9950   -0.5960 h4        1 A55      0.060100
     37 H26         5.0910    0.5250   -2.2770 h4        1 A55      0.057100
@<TRIPOS>BOND
     1    1    2 ar  
     2    1    6 ar  
     3    1   24 1   
     4    2    3 ar  
     5    2   25 1   
     6    3    4 ar  
     7    3   23 1   
     8    4    5 ar  
     9    4   11 1   
    10    5    6 ar  
    11    5    8 1   
    12    6    7 1   
    13    8    9 1   
    14    8   26 1   
    15    9   10 1   
    16    9   13 1   
    17    9   27 1   
    18   10   11 2   
    19   11   12 1   
    20   12   28 1   
    21   12   29 1   
    22   13   14 1   
    23   13   30 1   
    24   13   31 1   
    25   14   15 1   
    26   14   32 1   
    27   14   33 1   
    28   15   16 1   
    29   15   34 1   
    30   16   17 1   
    31   16   22 2   
    32   17   18 1   
    33   17   21 2   
    34   18   19 2   
    35   18   35 1   
    36   19   20 1   
    37   19   36 1   
    38   20   21 1   
    39   21   37 1   
@<TRIPOS>SUBSTRUCTURE
     1 A55         1 TEMP              0 ****  ****    0 ROOT
