@<TRIPOS>MOLECULE
A56
   29    31     1     0     0
SMALL
bcc


@<TRIPOS>ATOM
      1 C1          0.0330    0.2970   -0.0710 ca        1 A56     -0.123000
      2 C2          1.2280   -0.3690    0.0470 ca        1 A56     -0.115000
      3 C3          1.9580   -0.3270    1.2660 ca        1 A56     -0.034000
      4 C4          1.4390    0.4120    2.3580 ca        1 A56     -0.032000
      5 C5          0.1990    1.0930    2.2090 ca        1 A56     -0.114000
      6 C6         -0.4860    1.0350    1.0210 ca        1 A56     -0.123000
      7 C7          3.1950   -1.0110    1.4140 ca        1 A56     -0.092000
      8 C8          3.8920   -0.9590    2.6010 ca        1 A56      0.005100
      9 C9          3.3700   -0.2110    3.6910 cp        1 A56     -0.104500
     10 C10         2.1710    0.4540    3.5750 ca        1 A56     -0.080000
     11 BR1         5.5120   -1.8890    2.7620 br        1 A56     -0.078100
     12 C12         4.1190   -0.1360    4.9820 cp        1 A56      0.769500
     13 N13         3.6940   -0.9600    5.9800 nb        1 A56     -0.797000
     14 C14         4.4260   -0.8590    7.1660 ca        1 A56      0.921400
     15 N15         5.5170   -0.0230    7.3510 nb        1 A56     -0.845000
     16 C16         5.8180    0.7870    6.2660 ca        1 A56      0.921400
     17 N17         5.1460    0.7570    5.0410 nb        1 A56     -0.797000
     18 N18         6.8320    1.7210    6.4210 nh        1 A56     -0.939500
     19 N19         4.0060   -1.6190    8.2490 nh        1 A56     -0.939500
     20 H1         -0.5350    0.2670   -1.0120 ha        1 A56      0.135000
     21 H2          1.6390   -0.9450   -0.7960 ha        1 A56      0.136000
     22 H5         -0.1960    1.6630    3.0640 ha        1 A56      0.137000
     23 H6         -1.4460    1.5600    0.9010 ha        1 A56      0.135000
     24 H7          3.5790   -1.5830    0.5540 ha        1 A56      0.148000
     25 H10         1.7640    1.0270    4.4220 ha        1 A56      0.148000
     26 H181        7.1820    2.1680    5.6090 hn        1 A56      0.439800
     27 H182        7.4320    1.6370    7.2050 hn        1 A56      0.439800
     28 H191        3.3630   -2.3550    8.0790 hn        1 A56      0.439800
     29 H192        4.6140   -1.7000    9.0280 hn        1 A56      0.439800
@<TRIPOS>BOND
     1    1    2 ar  
     2    1    6 ar  
     3    1   20 1   
     4    2    3 ar  
     5    2   21 1   
     6    3    4 ar  
     7    3    7 ar  
     8    4    5 ar  
     9    4   10 ar  
    10    5    6 ar  
    11    5   22 1   
    12    6   23 1   
    13    7    8 ar  
    14    7   24 1   
    15    8    9 ar  
    16    8   11 1   
    17    9   10 ar  
    18    9   12 1   
    19   10   25 1   
    20   12   13 ar  
    21   12   17 ar  
    22   13   14 ar  
    23   14   15 ar  
    24   14   19 1   
    25   15   16 ar  
    26   16   17 ar  
    27   16   18 1   
    28   18   26 1   
    29   18   27 1   
    30   19   28 1   
    31   19   29 1   
@<TRIPOS>SUBSTRUCTURE
     1 A56         1 TEMP              0 ****  ****    0 ROOT
