@<TRIPOS>MOLECULE
A56
   29    31     1     0     0
SMALL
bcc


@<TRIPOS>ATOM
      1 C1         -5.3290   -0.3570    0.2200 ca        1 A56     -0.123000
      2 C2         -4.4230    0.4270   -0.4530 ca        1 A56     -0.115000
      3 C3         -3.0320    0.1380   -0.3870 ca        1 A56     -0.034000
      4 C4         -2.5920   -0.9680    0.3830 ca        1 A56     -0.033000
      5 C5         -3.5510   -1.7640    1.0680 ca        1 A56     -0.115000
      6 C6         -4.8880   -1.4630    0.9870 ca        1 A56     -0.123000
      7 C7         -2.0760    0.9310   -1.0760 ca        1 A56     -0.093000
      8 C8         -0.7320    0.6400   -1.0010 ca        1 A56      0.005100
      9 C9         -0.2950   -0.4650   -0.2210 cp        1 A56     -0.104500
     10 C10        -1.2020   -1.2530    0.4490 ca        1 A56     -0.081000
     11 BR1         0.4950    1.6990   -1.9420 br        1 A56     -0.075100
     12 C12         1.1610   -0.7870   -0.1170 cp        1 A56      0.770500
     13 N13         1.6110   -1.8210   -0.8830 nb        1 A56     -0.799000
     14 C14         2.9720   -2.0980   -0.7410 ca        1 A56      0.923900
     15 N15         3.8420   -1.3880    0.0710 nb        1 A56     -0.846000
     16 C16         3.2530   -0.3600    0.7930 ca        1 A56      0.923900
     17 N17         1.8950   -0.0300    0.7450 nb        1 A56     -0.799000
     18 N18         4.0740    0.4160    1.5910 nh        1 A56     -0.943500
     19 N19         3.4810   -3.1970   -1.4230 nh        1 A56     -0.943500
     20 H1         -6.4050   -0.1370    0.1710 ha        1 A56      0.135000
     21 H2         -4.7560    1.2880   -1.0520 ha        1 A56      0.136000
     22 H5         -3.1980   -2.6210    1.6620 ha        1 A56      0.136000
     23 H6         -5.6330   -2.0760    1.5160 ha        1 A56      0.135000
     24 H7         -2.4400    1.7830   -1.6730 ha        1 A56      0.149000
     25 H10        -0.8630   -2.1150    1.0440 ha        1 A56      0.147000
     26 H181        5.0070    0.1290    1.7480 hn        1 A56      0.441800
     27 H182        3.6620    1.0790    2.2010 hn        1 A56      0.441800
     28 H191        2.9290   -3.5800   -2.1540 hn        1 A56      0.441800
     29 H192        4.4660   -3.2820   -1.4970 hn        1 A56      0.441800
@<TRIPOS>BOND
     1    1    2 ar  
     2    1    6 ar  
     3    1   20 1   
     4    2    3 ar  
     5    2   21 1   
     6    3    4 ar  
     7    3    7 ar  
     8    4    5 ar  
     9    4   10 ar  
    10    5    6 ar  
    11    5   22 1   
    12    6   23 1   
    13    7    8 ar  
    14    7   24 1   
    15    8    9 ar  
    16    8   11 1   
    17    9   10 ar  
    18    9   12 1   
    19   10   25 1   
    20   12   13 ar  
    21   12   17 ar  
    22   13   14 ar  
    23   14   15 ar  
    24   14   19 1   
    25   15   16 ar  
    26   16   17 ar  
    27   16   18 1   
    28   18   26 1   
    29   18   27 1   
    30   19   28 1   
    31   19   29 1   
@<TRIPOS>SUBSTRUCTURE
     1 A56         1 TEMP              0 ****  ****    0 ROOT
