@<TRIPOS>MOLECULE
A56
   29    23     1     0     0
SMALL
bcc


@<TRIPOS>ATOM
      1 C1         -3.1900    0.0020   -3.6970 c1        1 A56     -0.123000
      2 C2         -1.8020    0.0090   -3.6710 c1        1 A56     -0.115000
      3 C3         -1.1200   -0.0100   -2.4400 c1        1 A56     -0.034000
      4 C4         -1.8300   -0.0370   -1.2630 c1        1 A56     -0.032000
      5 C5         -3.2370   -0.0440   -1.2900 c1        1 A56     -0.114000
      6 C6         -3.9080   -0.0240   -2.5050 c1        1 A56     -0.123000
      7 C7          0.2870    0.0020   -2.4130 c2        1 A56     -0.092000
      8 C8          0.9590   -0.0130   -1.1970 c1        1 A56     -0.136000
      9 C9          0.2410   -0.0400   -0.0060 c1        1 A56      0.004000
     10 C10        -1.1480   -0.0520   -0.0310 c2        1 A56     -0.080000
     11 BR1         2.8140    0.1300   -1.6360 br        1 A56      0.062000
     12 C12         1.0460   -0.0170    1.1210 c1        1 A56      0.136000
     13 N13         1.4730   -1.1670    1.6640 n1        1 A56     -0.269000
     14 C14         2.2240   -1.1460    2.7750 c1        1 A56      0.203000
     15 N15         2.5480    0.0250    3.3430 n1        1 A56     -0.319000
     16 C16         2.1220    1.1750    2.8010 c1        1 A56      0.202000
     17 N17         1.3710    1.1540    1.6900 n2        1 A56     -0.273000
     18 N18         2.4290    2.4110    3.4260 n2        1 A56     -0.337000
     19 N19         2.6270   -2.3640    3.3810 n3        1 A56     -0.337000
     20 H1         -3.6630    0.0160   -4.5510 ha        1 A56      0.135000
     21 H2         -1.2980    0.0280   -4.5080 ha        1 A56      0.136000
     22 H5         -3.7410   -0.0630   -0.4540 ha        1 A56      0.137000
     23 H6         -4.8840   -0.0300   -2.5240 ha        1 A56      0.135000
     24 H7          0.7910    0.0200   -3.2480 ha        1 A56      0.148000
     25 H10        -1.6510   -0.0710    0.8050 ha        1 A56      0.148000
     26 H181        2.1110    3.1920    3.0740 hn        1 A56      0.234500
     27 H182        2.9360    2.4250    4.1870 hn        1 A56      0.234500
     28 H191        2.3270   -3.1610    3.0480 hn        1 A56      0.235500
     29 H192        3.1670   -2.3500    4.1180 hn        1 A56      0.235500
@<TRIPOS>BOND
     1    1    6 1   
     2    1   20 1   
     3    2    3 1   
     4    2   21 1   
     5    3    7 1   
     6    4    5 1   
     7    4   10 1   
     8    5   22 1   
     9    6   23 1   
    10    7    8 1   
    11    7   24 1   
    12    8   11 1   
    13    9   10 1   
    14   10   25 1   
    15   12   17 1   
    16   13   14 1   
    17   14   19 1   
    18   15   16 1   
    19   16   17 1   
    20   18   26 1   
    21   18   27 1   
    22   19   28 1   
    23   19   29 1   
@<TRIPOS>SUBSTRUCTURE
     1 A56         1 TEMP              0 ****  ****    0 ROOT
