@<TRIPOS>MOLECULE
A56
   31    33     1     0     0
SMALL
bcc


@<TRIPOS>ATOM
      1 C1         -0.0080    0.1870   -0.0360 ca        1 A56     -0.044000
      2 C2          1.3300   -0.1520   -0.0200 ca        1 A56     -0.127000
      3 C3          2.0400   -0.1840    1.2020 ca        1 A56      0.022000
      4 C4          1.3640    0.1400    2.4140 ca        1 A56     -0.080000
      5 C5         -0.0170    0.4850    2.3680 ca        1 A56     -0.090000
      6 C6         -0.6850    0.5050    1.1650 ca        1 A56     -0.103000
      7 C7          3.4160   -0.5500    1.2600 ca        1 A56     -0.062000
      8 C8          4.1100   -0.5650    2.4440 ca        1 A56     -0.003900
      9 C9          3.4460   -0.1900    3.6600 cp        1 A56     -0.217500
     10 C10         2.0800    0.1190    3.6260 ca        1 A56      0.032000
     11 BR1         5.8740   -1.2020    2.3980 br        1 A56     -0.046100
     12 C12         4.1450   -0.0970    4.9290 cp        1 A56      0.860500
     13 N13         3.4590   -0.4090    6.1020 nb        1 A56     -0.673500
     14 C14         4.1780   -0.3180    7.2500 ca        1 A56      0.793900
     15 N15         5.5030    0.0470    7.3800 nb        1 A56     -0.745000
     16 C16         6.0750    0.3540    6.1570 ca        1 A56      0.793900
     17 N17         5.4780    0.3160    4.9420 nb        1 A56     -0.673500
     18 N18         7.5070    0.7800    6.1870 n4        1 A56     -0.823800
     19 N19         3.4700   -0.6720    8.5180 n4        1 A56     -0.823800
     20 H1         -0.5650    0.2130   -0.9900 ha        1 A56      0.174000
     21 H2          1.8570   -0.4010   -0.9560 ha        1 A56      0.169000
     22 H5         -0.5390    0.7330    3.3050 ha        1 A56      0.151000
     23 H6         -1.7550    0.7710    1.1230 ha        1 A56      0.172000
     24 H7          3.9080   -0.8410    0.3110 ha        1 A56      0.184000
     25 H10         1.5350    0.3910    4.5480 ha        1 A56      0.153000
     26 H181        8.0830    0.0080    6.5550 hn        1 A56      0.501300
     27 H182        7.8240    1.0170    5.2300 hn        1 A56      0.501300
     28 H191        2.5020   -0.9720    8.3120 hn        1 A56      0.501300
     29 H192        3.4490    0.1510    9.1390 hn        1 A56      0.501300
     30 H183        7.6090    1.6050    6.7960 hn        1 A56      0.501300
     31 H193        3.9720   -1.4410    8.9880 hn        1 A56      0.501300
@<TRIPOS>BOND
     1    1    2 ar  
     2    1    6 ar  
     3    1   20 1   
     4    2    3 ar  
     5    2   21 1   
     6    3    4 ar  
     7    3    7 ar  
     8    4    5 ar  
     9    4   10 ar  
    10    5    6 ar  
    11    5   22 1   
    12    6   23 1   
    13    7    8 ar  
    14    7   24 1   
    15    8    9 ar  
    16    8   11 1   
    17    9   10 ar  
    18    9   12 1   
    19   10   25 1   
    20   12   13 ar  
    21   12   17 ar  
    22   13   14 ar  
    23   14   15 ar  
    24   14   19 1   
    25   15   16 ar  
    26   16   17 ar  
    27   16   18 1   
    28   18   26 1   
    29   18   27 1   
    30   18   30 1   
    31   19   28 1   
    32   19   29 1   
    33   19   31 1   
@<TRIPOS>SUBSTRUCTURE
     1 A56         1 TEMP              0 ****  ****    0 ROOT
