@<TRIPOS>MOLECULE
A56
   29    31     1     0     0
SMALL
bcc


@<TRIPOS>ATOM
      1 C1          0.0450    0.2960   -0.0780 ca        1 A56     -0.123000
      2 C2          1.1410   -0.5120    0.1070 ca        1 A56     -0.115000
      3 C3          1.8960   -0.4350    1.3100 ca        1 A56     -0.034000
      4 C4          1.5030    0.4850    2.3150 ca        1 A56     -0.033000
      5 C5          0.3660    1.3090    2.0960 ca        1 A56     -0.115000
      6 C6         -0.3450    1.2150    0.9250 ca        1 A56     -0.123000
      7 C7          3.0350   -1.2560    1.5250 ca        1 A56     -0.093000
      8 C8          3.7550   -1.1720    2.6960 ca        1 A56      0.005100
      9 C9          3.3530   -0.2550    3.7040 cp        1 A56     -0.103500
     10 C10         2.2580    0.5570    3.5160 ca        1 A56     -0.081000
     11 Br1         5.2640   -2.2600    2.9320 br        1 A56     -0.075100
     12 C12         4.1150   -0.1590    4.9860 cp        1 A56      0.770500
     13 N13         3.8620   -1.1170    5.9210 nb        1 A56     -0.798500
     14 C14         4.6120   -0.9930    7.0940 ca        1 A56      0.923900
     15 N15         5.5210    0.0250    7.3470 nb        1 A56     -0.846000
     16 C16         5.6550    0.9490    6.3240 ca        1 A56      0.923900
     17 N17         4.9780    0.8890    5.1030 nb        1 A56     -0.798500
     18 N18         6.4830    2.0430    6.5480 nv        1 A56     -0.943500
     19 N19         4.4620   -1.9740    8.0580 nv        1 A56     -0.943500
     20 H1         -0.5410    0.2390   -1.0070 ha        1 A56      0.135000
     21 H2          1.4520   -1.2290   -0.6670 ha        1 A56      0.136000
     22 H5          0.0710    2.0210    2.8820 ha        1 A56      0.136000
     23 H6         -1.2260    1.8510    0.7520 ha        1 A56      0.135000
     24 H7          3.3260   -1.9610    0.7290 ha        1 A56      0.149000
     25 H10         1.9530    1.2760    4.2930 ha        1 A56      0.147000
     26 H181        6.7430    2.5910    5.7630 hn        1 A56      0.441800
     27 H182        7.1180    1.9950    7.3080 hn        1 A56      0.441800
     28 H191        3.7400   -2.6430    7.9520 hn        1 A56      0.441800
     29 H192        4.8760   -1.8450    8.9470 hn        1 A56      0.441800
@<TRIPOS>BOND
     1    1    2 ar  
     2    1    6 ar  
     3    1   20 1   
     4    2    3 ar  
     5    2   21 1   
     6    3    4 ar  
     7    3    7 ar  
     8    4    5 ar  
     9    4   10 ar  
    10    5    6 ar  
    11    5   22 1   
    12    6   23 1   
    13    7    8 ar  
    14    7   24 1   
    15    8    9 ar  
    16    8   11 1   
    17    9   10 ar  
    18    9   12 1   
    19   10   25 1   
    20   12   13 ar  
    21   12   17 ar  
    22   13   14 ar  
    23   14   15 ar  
    24   14   19 1   
    25   15   16 ar  
    26   16   17 ar  
    27   16   18 1   
    28   18   26 1   
    29   18   27 1   
    30   19   28 1   
    31   19   29 1   
@<TRIPOS>SUBSTRUCTURE
     1 A56         1 TEMP              0 ****  ****    0 ROOT
