@<TRIPOS>MOLECULE
A58
   57    61     1     0     0
SMALL
bcc


@<TRIPOS>ATOM
      1 C1          0.0410   -0.2110    0.1880 c3        1 A58     -0.094100
      2 C2          4.3510   -0.0560    0.1730 c3        1 A58      0.118500
      3 C3          3.6460   -0.2170    1.5250 c3        1 A58     -0.097900
      4 C4          2.1890    0.1780    1.3900 c3        1 A58     -0.076900
      5 C5          1.4810   -0.6520    0.3300 c3        1 A58     -0.071700
      6 C6          2.2060   -0.5370   -1.0020 c3        1 A58     -0.076900
      7 C7          3.6630   -0.9350   -0.8800 c3        1 A58     -0.097900
      8 N8          5.8170   -0.3810    0.2680 ny        1 A58     -0.772000
      9 C9          6.6420    0.7540    0.8110 c3        1 A58      0.187100
     10 C10         8.0440    0.3090    1.0140 ca        1 A58     -0.225300
     11 C11         8.3340   -0.5430    2.1010 ca        1 A58     -0.108000
     12 C12         9.6270   -0.9730    2.2840 ca        1 A58     -0.075300
     13 C13        10.6710   -0.5400    1.3830 ca        1 A58      0.078000
     14 C14        10.3770    0.3150    0.3310 ca        1 A58     -0.138000
     15 C15         9.0550    0.7330    0.1480 ca        1 A58     -0.078000
     16 C16        10.1750   -1.8990    3.3480 c3        1 A58      0.039200
     17 C17        11.6080   -1.9980    2.9800 cc        1 A58     -0.223600
     18 C18        11.8800   -1.1750    1.8290 cd        1 A58     -0.165300
     19 C19        12.8610   -2.6160    3.3030 cc        1 A58      0.459800
     20 N20        13.8080   -2.1630    2.3980 nd        1 A58     -0.496800
     21 N21        13.2220   -1.3300    1.5380 na        1 A58      0.038400
     22 C22        13.1000   -3.5720    4.3640 ca        1 A58     -0.194500
     23 C23        14.2730   -4.3410    4.4140 ca        1 A58     -0.124000
     24 C24        14.4450   -5.2870    5.4210 ca        1 A58     -0.118000
     25 C25        13.4590   -5.4830    6.3930 ca        1 A58     -0.092600
     26 C26        12.2980   -4.7020    6.3540 ca        1 A58     -0.118000
     27 C27        12.1180   -3.7570    5.3530 ca        1 A58     -0.124000
     28 C28        13.6300   -6.5410    7.4810 c         1 A58      0.906200
     29 O29        12.6800   -6.6870    8.2990 o         1 A58     -0.816300
     30 O30        14.7030   -7.2020    7.4880 o         1 A58     -0.816300
     31 H11A       -0.4930   -0.3200    1.1630 hc        1 A58      0.047367
     32 H12        -0.4810   -0.8380   -0.5740 hc        1 A58      0.047367
     33 H13        -0.0180    0.8570   -0.1310 hc        1 A58      0.047367
     34 H5          1.4970   -1.7320    0.6530 hc        1 A58      0.059700
     35 H61         2.1300    0.5160   -1.3830 hc        1 A58      0.064950
     36 H62         1.7110   -1.2040   -1.7560 hc        1 A58      0.064950
     37 H71         4.1630   -0.8140   -1.8770 hc        1 A58      0.063700
     38 H72         3.7330   -2.0150   -0.5830 hc        1 A58      0.063700
     39 H2          4.2810    1.0260   -0.1530 hx        1 A58      0.101700
     40 H42         2.1120    1.2670    1.1320 hc        1 A58      0.064950
     41 HN8         5.9470   -1.1980    0.8770 hn        1 A58      0.446800
     42 H91         6.1750    1.0730    1.7880 hx        1 A58      0.098700
     43 H92         6.5770    1.6080    0.0790 hx        1 A58      0.098700
     44 H15         8.8180    1.4120   -0.6850 ha        1 A58      0.131000
     45 H14        11.1650    0.6640   -0.3530 ha        1 A58      0.153000
     46 H11         7.5390   -0.8450    2.7980 ha        1 A58      0.131000
     47 H161        9.6670   -2.8970    3.3240 hc        1 A58      0.091700
     48 H162       10.0380   -1.4560    4.3700 hc        1 A58      0.091700
     49 H21        13.7540   -0.8760    0.8340 hn        1 A58      0.325700
     50 H27        11.2030   -3.1480    5.3320 ha        1 A58      0.110000
     51 H26        11.5380   -4.8640    7.1360 ha        1 A58      0.161000
     52 H24        15.3570   -5.9040    5.4750 ha        1 A58      0.161000
     53 H23        15.0580   -4.2030    3.6560 ha        1 A58      0.110000
     54 H31         4.1340    0.4300    2.3010 hc        1 A58      0.063700
     55 H32         3.7150   -1.2830    1.8690 hc        1 A58      0.063700
     56 H82         6.1700   -0.6290   -0.6630 hn        1 A58      0.446800
     57 H41         1.6830    0.0300    2.3810 hc        1 A58      0.064950
@<TRIPOS>BOND
     1    1    5 1   
     2    1   31 1   
     3    1   32 1   
     4    1   33 1   
     5    2    3 1   
     6    2    7 1   
     7    2    8 1   
     8    2   39 1   
     9    3    4 1   
    10    3   54 1   
    11    3   55 1   
    12    4    5 1   
    13    4   40 1   
    14    4   57 1   
    15    5    6 1   
    16    5   34 1   
    17    6    7 1   
    18    6   35 1   
    19    6   36 1   
    20    7   37 1   
    21    7   38 1   
    22    8    9 1   
    23    8   41 1   
    24    8   56 1   
    25    9   10 1   
    26    9   42 1   
    27    9   43 1   
    28   10   11 ar  
    29   10   15 ar  
    30   11   12 ar  
    31   11   46 1   
    32   12   13 ar  
    33   12   16 1   
    34   13   14 ar  
    35   13   18 1   
    36   14   15 ar  
    37   14   45 1   
    38   15   44 1   
    39   16   17 1   
    40   16   47 1   
    41   16   48 1   
    42   17   18 2   
    43   17   19 1   
    44   18   21 1   
    45   19   20 2   
    46   19   22 1   
    47   20   21 1   
    48   21   49 1   
    49   22   23 ar  
    50   22   27 ar  
    51   23   24 ar  
    52   23   53 1   
    53   24   25 ar  
    54   24   52 1   
    55   25   26 ar  
    56   25   28 1   
    57   26   27 ar  
    58   26   51 1   
    59   27   50 1   
    60   28   29 1   
    61   28   30 1   
@<TRIPOS>SUBSTRUCTURE
     1 A58         1 TEMP              0 ****  ****    0 ROOT
