@<TRIPOS>MOLECULE
A58
   56    53     1     0     0
SMALL
bcc


@<TRIPOS>ATOM
      1 C1         -5.0130    0.7160   -5.6800 c3        1 A58     -0.207000
      2 C2         -2.9910    1.3470   -2.7380 c3        1 A58     -0.021000
      3 C3         -2.5960    1.7900   -4.1160 c3        1 A58     -0.170000
      4 C4         -3.6700    2.6240   -4.7870 c3        1 A58     -0.148500
      5 C5         -5.0490    1.9400   -4.7620 c3        1 A58     -0.103000
      6 C6         -5.4440    1.4990   -3.3850 c3        1 A58     -0.148500
      7 C7         -4.3680    0.6630   -2.7120 c3        1 A58     -0.170000
      8 N8         -2.0020    0.4190   -2.2500 n3        1 A58     -0.302000
      9 C9         -1.9070    0.5300   -0.8370 c3        1 A58     -0.033000
     10 C10        -0.5380    0.0150   -0.3770 c2        1 A58     -0.101000
     11 C11         0.0790    0.6090    0.7140 c2        1 A58     -0.113000
     12 C12         1.3830    0.2670    1.0470 c1        1 A58     -0.071000
     13 C13         2.0690   -0.6680    0.2880 c1        1 A58      0.004000
     14 C14         1.4510   -1.2650   -0.8070 c1        1 A58     -0.126000
     15 C15         0.1490   -0.9240   -1.1390 c1        1 A58     -0.116000
     16 C16         2.2670    0.6910    2.1460 c3        1 A58     -0.047000
     17 C17         3.5060   -0.1030    2.0610 c2        1 A58     -0.179000
     18 C18         3.4230   -0.9020    0.9380 c1        1 A58     -0.093000
     19 C19         4.7190   -0.3530    2.6700 c2        1 A58      0.009000
     20 N20         5.3740   -1.2920    1.9330 n2        1 A58     -0.103000
     21 N21         4.5700   -1.6330    0.8580 n2        1 A58     -0.123000
     22 C22         4.6410   -0.9370    3.8980 c1        1 A58     -0.063000
     23 C23         4.6170   -0.1450    5.0400 c1        1 A58     -0.128500
     24 C24         4.4750   -0.7340    6.2920 c1        1 A58     -0.128500
     25 C25         4.3570   -2.1220    6.4020 c1        1 A58     -0.084000
     26 C26         4.3810   -2.9140    5.2590 c1        1 A58     -0.121000
     27 C27         4.5220   -2.3240    4.0070 c1        1 A58     -0.122000
     28 C28         4.0880   -2.7640    7.7770 c2        1 A58      0.355000
     29 O29         5.0570   -3.0730    8.5320 o         1 A58     -0.563000
     30 O30         2.8810   -2.9700    8.1630 o         1 A58     -0.563000
     31 H11A       -4.7830    0.9890   -6.5640 hc        1 A58      0.072667
     32 H12        -4.3580    0.0920   -5.3560 hc        1 A58      0.072667
     33 H13        -5.9050    0.2840   -5.6890 hc        1 A58      0.072667
     34 H5         -5.7190    2.5660   -5.0980 hc        1 A58      0.079000
     35 H61        -6.2820    0.9590   -3.4460 hc        1 A58      0.077000
     36 H62        -5.6150    2.2740   -2.8510 hc        1 A58      0.077000
     37 H71        -4.6280    0.5050   -1.7770 hc        1 A58      0.084250
     38 H72        -4.3010   -0.2070   -3.1770 hc        1 A58      0.084250
     39 H2         -3.0130    2.1420   -2.1360 h1        1 A58      0.093000
     40 H31        -2.4250    1.0130   -4.6540 hc        1 A58      0.084250
     41 H32        -1.7590    2.3310   -4.0530 hc        1 A58      0.084250
     42 H41        -3.7340    3.4920   -4.3210 hc        1 A58      0.077000
     43 H42        -3.4180    2.7790   -5.7000 hc        1 A58      0.077000
     44 HN8        -2.2480   -0.4410   -2.4760 hn        1 A58      0.158000
     45 H91        -2.6080    0.0010   -0.4240 h1        1 A58      0.076500
     46 H92        -2.0090    1.4710   -0.5740 h1        1 A58      0.076500
     47 H15        -0.3200   -1.3930   -1.9130 ha        1 A58      0.139000
     48 H14         1.9300   -1.9190   -1.3370 ha        1 A58      0.129000
     49 H11        -0.3980    1.2790    1.2370 ha        1 A58      0.134000
     50 H161        2.4800    1.6550    2.0540 hc        1 A58      0.117000
     51 H162        1.8180    0.5270    3.0210 hc        1 A58      0.117000
     52 H21         4.7760   -2.2520    0.1980 DU        1 A58      0.266000
     53 H27         4.5400   -2.8800    3.2050 ha        1 A58      0.123000
     54 H26         4.3910   -3.9000    5.3440 ha        1 A58      0.153000
     55 H24         4.4590   -0.1820    7.0890 ha        1 A58      0.129000
     56 H23         4.7010    0.8280    4.9630 ha        1 A58      0.129000
@<TRIPOS>BOND
     1    1    5 1   
     2    1   31 1   
     3    1   32 1   
     4    1   33 1   
     5    2    3 1   
     6    2    7 1   
     7    2    8 1   
     8    2   39 1   
     9    3    4 1   
    10    3   40 1   
    11    3   41 1   
    12    4    5 1   
    13    4   42 1   
    14    4   43 1   
    15    5    6 1   
    16    5   34 1   
    17    6    7 1   
    18    6   35 1   
    19    6   36 1   
    20    7   37 1   
    21    7   38 1   
    22    8    9 1   
    23    8   44 1   
    24    9   10 1   
    25    9   45 1   
    26    9   46 1   
    27   10   11 1   
    28   10   15 1   
    29   11   12 1   
    30   11   49 1   
    31   12   16 1   
    32   13   14 1   
    33   14   48 1   
    34   15   47 1   
    35   16   17 1   
    36   16   50 1   
    37   16   51 1   
    38   17   18 1   
    39   17   19 1   
    40   18   21 1   
    41   19   20 1   
    42   19   22 1   
    43   20   21 1   
    44   22   27 1   
    45   23   24 1   
    46   23   56 1   
    47   24   55 1   
    48   25   26 1   
    49   25   28 1   
    50   26   54 1   
    51   27   53 1   
    52   28   29 1   
    53   28   30 1   
@<TRIPOS>SUBSTRUCTURE
     1 A58         1 TEMP              0 ****  ****    0 ROOT
