@<TRIPOS>MOLECULE
A58
   57    61     1     0     0
SMALL
bcc


@<TRIPOS>ATOM
      1 C1          0.0430   -0.2110    0.1840 c3        1 A58     -0.094100
      2 C2          4.3530   -0.0550    0.1710 c3        1 A58      0.118500
      3 C3          3.6470   -0.2170    1.5220 c3        1 A58     -0.097900
      4 C4          2.1900    0.1770    1.3870 c3        1 A58     -0.076900
      5 C5          1.4830   -0.6520    0.3260 c3        1 A58     -0.071700
      6 C6          2.2090   -0.5340   -1.0060 c3        1 A58     -0.076900
      7 C7          3.6660   -0.9330   -0.8840 c3        1 A58     -0.097900
      8 N8          5.8190   -0.3800    0.2660 n4        1 A58     -0.772000
      9 C9          6.6430    0.7560    0.8110 c3        1 A58      0.187100
     10 C10         8.0450    0.3100    1.0140 ca        1 A58     -0.225300
     11 C11         8.3340   -0.5420    2.1010 ca        1 A58     -0.108000
     12 C12         9.6270   -0.9730    2.2850 ca        1 A58     -0.075300
     13 C13        10.6710   -0.5400    1.3850 ca        1 A58      0.078000
     14 C14        10.3790    0.3160    0.3330 ca        1 A58     -0.138000
     15 C15         9.0560    0.7340    0.1500 ca        1 A58     -0.078000
     16 C16        10.1740   -1.8990    3.3500 c3        1 A58      0.039200
     17 C17        11.6070   -1.9990    2.9820 cc        1 A58     -0.223600
     18 C18        11.8800   -1.1750    1.8320 cd        1 A58     -0.165300
     19 C19        12.8600   -2.6170    3.3060 cc        1 A58      0.459800
     20 N20        13.8070   -2.1640    2.4020 nd        1 A58     -0.496800
     21 N21        13.2220   -1.3310    1.5420 na        1 A58      0.038400
     22 C22        13.0980   -3.5740    4.3670 ca        1 A58     -0.194500
     23 C23        14.2710   -4.3420    4.4180 ca        1 A58     -0.124000
     24 C24        14.4410   -5.2890    5.4250 ca        1 A58     -0.118000
     25 C25        13.4550   -5.4850    6.3960 ca        1 A58     -0.092600
     26 C26        12.2940   -4.7030    6.3570 ca        1 A58     -0.118000
     27 C27        12.1150   -3.7580    5.3550 ca        1 A58     -0.124000
     28 C28        13.6250   -6.5420    7.4840 c         1 A58      0.906200
     29 O29        12.6740   -6.6880    8.3020 o         1 A58     -0.816300
     30 O30        14.6970   -7.2040    7.4920 o         1 A58     -0.816300
     31 H11A       -0.4790   -0.8370   -0.5800 hc        1 A58      0.047367
     32 H12        -0.4920   -0.3210    1.1580 hc        1 A58      0.047367
     33 H13        -0.0160    0.8580   -0.1340 hc        1 A58      0.047367
     34 H5          1.4990   -1.7320    0.6470 hc        1 A58      0.059700
     35 H61         2.1320    0.5180   -1.3860 hc        1 A58      0.064950
     36 H62         1.7140   -1.2010   -1.7610 hc        1 A58      0.064950
     37 H71         4.1660   -0.8100   -1.8800 hc        1 A58      0.063700
     38 H72         3.7350   -2.0130   -0.5880 hc        1 A58      0.063700
     39 H2          4.2820    1.0270   -0.1540 hx        1 A58      0.101700
     40 H42         1.6830    0.0280    2.3770 hc        1 A58      0.064950
     41 HN8         5.9490   -1.1980    0.8750 hn        1 A58      0.446800
     42 H91         6.1750    1.0740    1.7870 hx        1 A58      0.098700
     43 H92         6.5790    1.6090    0.0790 hx        1 A58      0.098700
     44 H15         8.8210    1.4130   -0.6840 ha        1 A58      0.131000
     45 H14        11.1670    0.6640   -0.3500 ha        1 A58      0.153000
     46 H11         7.5390   -0.8450    2.7980 ha        1 A58      0.131000
     47 H161        9.6650   -2.8970    3.3250 hc        1 A58      0.091700
     48 H162       10.0370   -1.4560    4.3710 hc        1 A58      0.091700
     49 H21        13.7550   -0.8770    0.8380 hn        1 A58      0.325700
     50 H27        11.2000   -3.1480    5.3350 ha        1 A58      0.110000
     51 H26        11.5340   -4.8640    7.1380 ha        1 A58      0.161000
     52 H24        15.3540   -5.9060    5.4790 ha        1 A58      0.161000
     53 H23        15.0560   -4.2050    3.6600 ha        1 A58      0.110000
     54 H31         3.7160   -1.2840    1.8650 hc        1 A58      0.063700
     55 H32         4.1350    0.4290    2.2990 hc        1 A58      0.063700
     56 H82         6.1720   -0.6270   -0.6640 hn        1 A58      0.446800
     57 H41         2.1130    1.2660    1.1300 hc        1 A58      0.064950
@<TRIPOS>BOND
     1    1    5 1   
     2    1   31 1   
     3    1   32 1   
     4    1   33 1   
     5    2    3 1   
     6    2    7 1   
     7    2    8 1   
     8    2   39 1   
     9    3    4 1   
    10    3   54 1   
    11    3   55 1   
    12    4    5 1   
    13    4   40 1   
    14    4   57 1   
    15    5    6 1   
    16    5   34 1   
    17    6    7 1   
    18    6   35 1   
    19    6   36 1   
    20    7   37 1   
    21    7   38 1   
    22    8    9 1   
    23    8   41 1   
    24    8   56 1   
    25    9   10 1   
    26    9   42 1   
    27    9   43 1   
    28   10   11 ar  
    29   10   15 ar  
    30   11   12 ar  
    31   11   46 1   
    32   12   13 ar  
    33   12   16 1   
    34   13   14 ar  
    35   13   18 1   
    36   14   15 ar  
    37   14   45 1   
    38   15   44 1   
    39   16   17 1   
    40   16   47 1   
    41   16   48 1   
    42   17   18 2   
    43   17   19 1   
    44   18   21 1   
    45   19   20 2   
    46   19   22 1   
    47   20   21 1   
    48   21   49 1   
    49   22   23 ar  
    50   22   27 ar  
    51   23   24 ar  
    52   23   53 1   
    53   24   25 ar  
    54   24   52 1   
    55   25   26 ar  
    56   25   28 1   
    57   26   27 ar  
    58   26   51 1   
    59   27   50 1   
    60   28   29 1   
    61   28   30 1   
@<TRIPOS>SUBSTRUCTURE
     1 A58         1 TEMP              0 ****  ****    0 ROOT
