@<TRIPOS>MOLECULE
A58
   57    61     1     0     0
SMALL
bcc


@<TRIPOS>ATOM
      1 C1          0.0420   -0.2160    0.1840 c3        1 A58     -0.094100
      2 C2          4.3510   -0.0560    0.1720 c3        1 A58      0.118500
      3 C3          3.6460   -0.2200    1.5230 c3        1 A58     -0.097900
      4 C4          2.1890    0.1730    1.3880 c3        1 A58     -0.076900
      5 C5          1.4820   -0.6550    0.3260 c3        1 A58     -0.071700
      6 C6          2.2080   -0.5370   -1.0060 c3        1 A58     -0.076900
      7 C7          3.6650   -0.9340   -0.8830 c3        1 A58     -0.097900
      8 N8          5.8180   -0.3800    0.2670 n4        1 A58     -0.772000
      9 C9          6.6410    0.7550    0.8130 c3        1 A58      0.187100
     10 C10         8.0440    0.3110    1.0160 ca        1 A58     -0.225300
     11 C11         8.3330   -0.5420    2.1020 ca        1 A58     -0.108000
     12 C12         9.6260   -0.9720    2.2860 ca        1 A58     -0.075300
     13 C13        10.6710   -0.5370    1.3860 ca        1 A58      0.078000
     14 C14        10.3770    0.3200    0.3350 ca        1 A58     -0.138000
     15 C15         9.0550    0.7360    0.1520 ca        1 A58     -0.078000
     16 C16        10.1740   -1.8980    3.3500 c3        1 A58      0.039200
     17 C17        11.6080   -1.9960    2.9820 cc        1 A58     -0.223600
     18 C18        11.8800   -1.1710    1.8330 cd        1 A58     -0.165300
     19 C19        12.8610   -2.6140    3.3060 cc        1 A58      0.459800
     20 N20        13.8080   -2.1580    2.4030 nd        1 A58     -0.496800
     21 N21        13.2230   -1.3250    1.5440 na        1 A58      0.038400
     22 C22        13.1000   -3.5710    4.3660 ca        1 A58     -0.194500
     23 C23        14.2730   -4.3390    4.4160 ca        1 A58     -0.124000
     24 C24        14.4440   -5.2870    5.4220 ca        1 A58     -0.118000
     25 C25        13.4580   -5.4840    6.3930 ca        1 A58     -0.092600
     26 C26        12.2960   -4.7030    6.3540 ca        1 A58     -0.118000
     27 C27        12.1160   -3.7570    5.3540 ca        1 A58     -0.124000
     28 C28        13.6280   -6.5430    7.4800 c         1 A58      0.906200
     29 O29        12.6770   -6.6900    8.2970 o         1 A58     -0.816300
     30 O30        14.7000   -7.2050    7.4870 o         1 A58     -0.816300
     31 H11A       -0.0180    0.8530   -0.1330 hc        1 A58      0.047367
     32 H12        -0.4930   -0.3270    1.1580 hc        1 A58      0.047367
     33 H13        -0.4790   -0.8420   -0.5800 hc        1 A58      0.047367
     34 H5          1.4990   -1.7360    0.6470 hc        1 A58      0.059700
     35 H61         2.1310    0.5160   -1.3850 hc        1 A58      0.064950
     36 H62         1.7140   -1.2040   -1.7610 hc        1 A58      0.064950
     37 H71         3.7360   -2.0150   -0.5880 hc        1 A58      0.063700
     38 H72         4.1660   -0.8110   -1.8800 hc        1 A58      0.063700
     39 H2          4.2800    1.0260   -0.1530 hx        1 A58      0.101700
     40 H42         2.1110    1.2620    1.1310 hc        1 A58      0.064950
     41 HN8         6.1710   -0.6270   -0.6640 hn        1 A58      0.446800
     42 H91         6.1730    1.0720    1.7890 hx        1 A58      0.098700
     43 H92         6.5760    1.6100    0.0810 hx        1 A58      0.098700
     44 H15         8.8190    1.4170   -0.6810 ha        1 A58      0.131000
     45 H14        11.1650    0.6700   -0.3470 ha        1 A58      0.153000
     46 H11         7.5380   -0.8460    2.7990 ha        1 A58      0.131000
     47 H161        9.6670   -2.8970    3.3240 hc        1 A58      0.091700
     48 H162       10.0360   -1.4560    4.3720 hc        1 A58      0.091700
     49 H21        13.7550   -0.8700    0.8400 hn        1 A58      0.325700
     50 H27        11.2020   -3.1480    5.3340 ha        1 A58      0.110000
     51 H26        11.5360   -4.8660    7.1360 ha        1 A58      0.161000
     52 H24        15.3560   -5.9040    5.4750 ha        1 A58      0.161000
     53 H23        15.0580   -4.2010    3.6590 ha        1 A58      0.110000
     54 H31         3.7160   -1.2870    1.8650 hc        1 A58      0.063700
     55 H32         4.1330    0.4260    2.3000 hc        1 A58      0.063700
     56 H82         5.9490   -1.1980    0.8750 hn        1 A58      0.446800
     57 H41         1.6820    0.0230    2.3780 hc        1 A58      0.064950
@<TRIPOS>BOND
     1    1    5 1   
     2    1   31 1   
     3    1   32 1   
     4    1   33 1   
     5    2    3 1   
     6    2    7 1   
     7    2    8 1   
     8    2   39 1   
     9    3    4 1   
    10    3   54 1   
    11    3   55 1   
    12    4    5 1   
    13    4   40 1   
    14    4   57 1   
    15    5    6 1   
    16    5   34 1   
    17    6    7 1   
    18    6   35 1   
    19    6   36 1   
    20    7   37 1   
    21    7   38 1   
    22    8    9 1   
    23    8   41 1   
    24    8   56 1   
    25    9   10 1   
    26    9   42 1   
    27    9   43 1   
    28   10   11 ar  
    29   10   15 ar  
    30   11   12 ar  
    31   11   46 1   
    32   12   13 ar  
    33   12   16 1   
    34   13   14 ar  
    35   13   18 1   
    36   14   15 ar  
    37   14   45 1   
    38   15   44 1   
    39   16   17 1   
    40   16   47 1   
    41   16   48 1   
    42   17   18 2   
    43   17   19 1   
    44   18   21 1   
    45   19   20 2   
    46   19   22 1   
    47   20   21 1   
    48   21   49 1   
    49   22   23 ar  
    50   22   27 ar  
    51   23   24 ar  
    52   23   53 1   
    53   24   25 ar  
    54   24   52 1   
    55   25   26 ar  
    56   25   28 1   
    57   26   27 ar  
    58   26   51 1   
    59   27   50 1   
    60   28   29 1   
    61   28   30 1   
@<TRIPOS>SUBSTRUCTURE
     1 A58         1 TEMP              0 ****  ****    0 ROOT
