@<TRIPOS>MOLECULE
A58
   56    60     1     0     0
SMALL
bcc


@<TRIPOS>ATOM
      1 C1         -6.6530    0.1230    0.0510 c3        1 A58     -0.089100
      2 C2         -4.0630   -2.4360   -2.3090 c3        1 A58      0.169500
      3 C3         -3.6610   -0.9660   -2.1030 c3        1 A58     -0.077400
      4 C4         -4.4140   -0.3640   -0.9370 c3        1 A58     -0.072900
      5 C5         -5.9190   -0.4550   -1.1390 c3        1 A58     -0.066700
      6 C6         -6.3290   -1.9010   -1.3740 c3        1 A58     -0.072900
      7 C7         -5.5820   -2.5040   -2.5440 c3        1 A58     -0.077400
      8 N8         -3.3310   -3.0650   -3.4090 n3        1 A58     -0.813200
      9 C9         -3.0900   -4.4810   -3.2300 c3        1 A58      0.204100
     10 C10        -2.0680   -4.8610   -2.1950 ca        1 A58     -0.133300
     11 C11        -0.7080   -4.6050   -2.4500 ca        1 A58     -0.116000
     12 C12         0.2330   -4.9580   -1.5050 ca        1 A58     -0.075300
     13 C13        -0.1820   -5.5820   -0.2770 ca        1 A58      0.004000
     14 C14        -1.5190   -5.8320   -0.0320 ca        1 A58     -0.124000
     15 C15        -2.4620   -5.4630   -1.0020 ca        1 A58     -0.123000
     16 C16         1.7380   -4.7870   -1.5500 c3        1 A58      0.046200
     17 C17         2.1710   -5.3580   -0.2490 cc        1 A58     -0.250600
     18 C18         1.0250   -5.8210    0.4820 cd        1 A58     -0.118300
     19 C19         3.2930   -5.6430    0.6030 cc        1 A58      0.444800
     20 N20         2.8180   -6.2390    1.7580 nd        1 A58     -0.534800
     21 N21         1.4880   -6.3350    1.6740 na        1 A58      0.021400
     22 C22         4.6920   -5.3670    0.3310 ca        1 A58     -0.171500
     23 C23         5.6950   -5.6760    1.2620 ca        1 A58     -0.130000
     24 C24         7.0290   -5.3980    0.9750 ca        1 A58     -0.120000
     25 C25         7.3920   -4.8090   -0.2400 ca        1 A58     -0.104600
     26 C26         6.3910   -4.5020   -1.1690 ca        1 A58     -0.120000
     27 C27         5.0570   -4.7760   -0.8900 ca        1 A58     -0.130000
     28 C28         8.8510   -4.5050   -0.5510 c         1 A58      0.906200
     29 O29         9.1180   -3.9700   -1.6650 o         1 A58     -0.828300
     30 O30         9.7150   -4.8020    0.3210 o         1 A58     -0.828300
     31 H11A       -6.4070   -0.4460    0.9800 hc        1 A58      0.031700
     32 H12        -6.3630    1.1900    0.2040 hc        1 A58      0.031700
     33 H13        -7.7560    0.0730   -0.1130 hc        1 A58      0.031700
     34 H5         -6.1900    0.1430   -2.0550 hc        1 A58      0.046700
     35 H61        -7.4320   -1.9470   -1.5730 hc        1 A58      0.039450
     36 H62        -6.1300   -2.4990   -0.4470 hc        1 A58      0.039450
     37 H71        -5.8980   -3.5720   -2.6750 hc        1 A58      0.045200
     38 H72        -5.8420   -1.9550   -3.4860 hc        1 A58      0.045200
     39 H2         -3.8490   -2.9810   -1.3350 h1        1 A58      0.034700
     40 H41        -4.1330   -0.8950    0.0100 hc        1 A58      0.039450
     41 H42        -4.1180    0.7110   -0.8190 hc        1 A58      0.039450
     42 HN8        -2.4610   -2.5850   -3.5590 hn        1 A58      0.361800
     43 H91        -2.7450   -4.8760   -4.2300 h1        1 A58      0.055200
     44 H92        -4.0730   -4.9760   -2.9860 h1        1 A58      0.055200
     45 H15        -3.5280   -5.6560   -0.8130 ha        1 A58      0.125000
     46 H14        -1.8470   -6.3090    0.9020 ha        1 A58      0.129000
     47 H11        -0.4070   -4.1320   -3.3960 ha        1 A58      0.134000
     48 H161        2.1780   -5.3440   -2.4170 hc        1 A58      0.078200
     49 H162        2.0150   -3.7060   -1.6450 hc        1 A58      0.078200
     50 H21         0.9660   -6.7420    2.4110 hn        1 A58      0.315700
     51 H27         4.2810   -4.5300   -1.6290 ha        1 A58      0.114000
     52 H26         6.6920   -4.0380   -2.1230 ha        1 A58      0.153000
     53 H24         7.8270   -5.6350    1.6970 ha        1 A58      0.153000
     54 H23         5.4340   -6.1390    2.2240 ha        1 A58      0.114000
     55 H31        -3.8760   -0.3820   -3.0350 hc        1 A58      0.045200
     56 H32        -2.5590   -0.8970   -1.9030 hc        1 A58      0.045200
@<TRIPOS>BOND
     1    1    5 1   
     2    1   31 1   
     3    1   32 1   
     4    1   33 1   
     5    2    3 1   
     6    2    7 1   
     7    2    8 1   
     8    2   39 1   
     9    3    4 1   
    10    3   55 1   
    11    3   56 1   
    12    4    5 1   
    13    4   40 1   
    14    4   41 1   
    15    5    6 1   
    16    5   34 1   
    17    6    7 1   
    18    6   35 1   
    19    6   36 1   
    20    7   37 1   
    21    7   38 1   
    22    8    9 1   
    23    8   42 1   
    24    9   10 1   
    25    9   43 1   
    26    9   44 1   
    27   10   11 ar  
    28   10   15 ar  
    29   11   12 ar  
    30   11   47 1   
    31   12   13 ar  
    32   12   16 1   
    33   13   14 ar  
    34   13   18 1   
    35   14   15 ar  
    36   14   46 1   
    37   15   45 1   
    38   16   17 1   
    39   16   48 1   
    40   16   49 1   
    41   17   18 2   
    42   17   19 1   
    43   18   21 1   
    44   19   20 2   
    45   19   22 1   
    46   20   21 1   
    47   21   50 1   
    48   22   23 ar  
    49   22   27 ar  
    50   23   24 ar  
    51   23   54 1   
    52   24   25 ar  
    53   24   53 1   
    54   25   26 ar  
    55   25   28 1   
    56   26   27 ar  
    57   26   52 1   
    58   27   51 1   
    59   28   29 1   
    60   28   30 1   
@<TRIPOS>SUBSTRUCTURE
     1 A58         1 TEMP              0 ****  ****    0 ROOT
