@<TRIPOS>MOLECULE
A5A
   47    49     1     0     0
SMALL
bcc


@<TRIPOS>ATOM
      1 N           3.2150   -1.7580    1.8030 n3        1 A5A     -0.919800
      2 CA          3.1910   -0.6470    2.7340 c3        1 A5A      0.105500
      3 CB          4.0230    0.5700    2.3340 c3        1 A5A     -0.131100
      4 C           1.7420   -0.1820    2.9870 c         1 A5A      0.689100
      5 O           1.3920    0.9990    2.8590 o         1 A5A     -0.554100
      6 N3S         0.8100   -1.1430    3.3940 n         1 A5A     -0.701300
      7 S          -0.7270   -0.9130    3.8940 s6        1 A5A      1.702100
      8 O1S        -1.3440   -2.1600    3.9660 o         1 A5A     -0.635300
      9 O2S        -0.8510   -0.0050    4.9240 o         1 A5A     -0.635300
     10 O5'        -1.4910   -0.1610    2.6080 os        1 A5A     -0.549500
     11 C5'        -1.8750   -0.8650    1.4520 c3        1 A5A      0.163400
     12 C4'        -2.7740    0.0590    0.6280 c3        1 A5A      0.093100
     13 O4'        -2.0150    1.1480    0.0860 os        1 A5A     -0.385600
     14 C3'        -3.4180   -0.7050   -0.5500 c3        1 A5A      0.128100
     15 O3'        -4.8080   -0.5060   -0.5980 oh        1 A5A     -0.569800
     16 C2'        -2.6710   -0.2030   -1.8070 c3        1 A5A      0.081100
     17 O2'        -3.6120    0.3690   -2.6880 oh        1 A5A     -0.589800
     18 C1'        -1.7120    0.9230   -1.2920 c3        1 A5A      0.216800
     19 N9         -0.3070    0.6140   -1.4520 na        1 A5A     -0.291000
     20 C8          0.7260    0.7240   -0.4900 cc        1 A5A      0.428700
     21 N7          1.9430    0.4450   -0.9830 nd        1 A5A     -0.574100
     22 C5          1.7340    0.1530   -2.3400 ca        1 A5A     -0.222200
     23 C6          2.6180   -0.2010   -3.4140 ca        1 A5A      0.748200
     24 N6          3.9610   -0.3820   -3.1740 nh        1 A5A     -0.944500
     25 N1          2.0910   -0.4010   -4.6670 nb        1 A5A     -0.787000
     26 C2          0.7460   -0.2710   -4.8150 ca        1 A5A      0.687900
     27 N3         -0.2040    0.0480   -3.9050 nb        1 A5A     -0.753000
     28 C4          0.3150    0.2610   -2.6580 ca        1 A5A      0.447800
     29 H           2.9560   -1.4570    0.8820 hn        1 A5A      0.368300
     30 HN2         4.1330   -2.1570    1.7720 hn        1 A5A      0.368300
     31 HA          3.5790   -1.0300    3.7280 h1        1 A5A      0.078700
     32 HB1         5.0950    0.2810    2.2230 hc        1 A5A      0.057700
     33 HB2         3.6570    1.0000    1.3700 hc        1 A5A      0.057700
     34 HB3         3.9380    1.3580    3.1200 hc        1 A5A      0.057700
     35 H3S         1.1540   -2.0810    3.3280 hn        1 A5A      0.358500
     36 H5'1       -0.9550   -1.1370    0.8660 h1        1 A5A      0.050700
     37 H5'2       -2.4430   -1.7910    1.7440 h1        1 A5A      0.050700
     38 H4'        -3.5410    0.5460    1.2910 h1        1 A5A      0.116700
     39 H3'        -3.2970   -1.8170   -0.4350 h1        1 A5A      0.094700
     40 H3T        -4.9750    0.3840   -0.9360 ho        1 A5A      0.426000
     41 H2'        -2.1210   -1.0470   -2.2990 h1        1 A5A      0.084700
     42 HO'2       -3.1840    0.4290   -3.5540 ho        1 A5A      0.434000
     43 H1'        -1.9280    1.9040   -1.8150 h2        1 A5A      0.106700
     44 H8          0.5000    1.0260    0.5470 h5        1 A5A      0.107800
     45 H61         4.5800   -0.4820   -3.9430 hn        1 A5A      0.438300
     46 H62         4.3250   -0.0150   -2.3280 hn        1 A5A      0.438300
     47 H2          0.3750   -0.4490   -5.8490 h5        1 A5A      0.054100
@<TRIPOS>BOND
     1    1    2 1   
     2    1   29 1   
     3    1   30 1   
     4    2    3 1   
     5    2    4 1   
     6    2   31 1   
     7    3   32 1   
     8    3   33 1   
     9    3   34 1   
    10    4    5 2   
    11    4    6 1   
    12    6    7 1   
    13    6   35 1   
    14    7    8 2   
    15    7    9 2   
    16    7   10 1   
    17   10   11 1   
    18   11   12 1   
    19   11   36 1   
    20   11   37 1   
    21   12   13 1   
    22   12   14 1   
    23   12   38 1   
    24   13   18 1   
    25   14   15 1   
    26   14   16 1   
    27   14   39 1   
    28   15   40 1   
    29   16   17 1   
    30   16   18 1   
    31   16   41 1   
    32   17   42 1   
    33   18   19 1   
    34   18   43 1   
    35   19   20 1   
    36   19   28 1   
    37   20   21 2   
    38   20   44 1   
    39   21   22 1   
    40   22   23 ar  
    41   22   28 ar  
    42   23   24 1   
    43   23   25 ar  
    44   24   45 1   
    45   24   46 1   
    46   25   26 ar  
    47   26   27 ar  
    48   26   47 1   
    49   27   28 ar  
@<TRIPOS>SUBSTRUCTURE
     1 A5A         1 TEMP              0 ****  ****    0 ROOT
