@<TRIPOS>MOLECULE
A5A
   47    44     1     0     0
SMALL
bcc


@<TRIPOS>ATOM
      1 N           7.5400   -2.7430    0.7820 n3        1 A5A     -0.920800
      2 CA          6.6340   -2.1550    1.6680 c3        1 A5A      0.110500
      3 CB          7.3360   -1.1070    2.4800 c3        1 A5A     -0.130100
      4 C           5.4840   -1.5030    0.8750 c         1 A5A      0.693100
      5 O           5.6780   -1.1060   -0.2640 o         1 A5A     -0.565100
      6 N3S         4.1830   -1.4390    1.4340 n         1 A5A     -0.650800
      7 S           3.0750   -0.3670    0.8270 s4        1 A5A      1.671100
      8 O1S         3.3360    1.0160    1.3220 o         1 A5A     -0.546400
      9 O2S         3.2500   -0.1830   -0.6770 o         1 A5A     -0.546400
     10 O5'         1.6780   -0.8160    1.1630 o         1 A5A     -0.877500
     11 C5'         0.6590    0.1600    1.0210 c3        1 A5A      0.253100
     12 C4'        -0.3970   -0.3490    0.0480 c3        1 A5A      0.059100
     13 O4'        -1.5840   -0.0730    0.4870 os        1 A5A     -0.401600
     14 C3'        -0.2850    0.3880   -1.3050 c3        1 A5A      0.085100
     15 O3'         0.1860   -0.4450   -2.2560 oh        1 A5A     -0.599800
     16 C2'        -1.7300    0.8430   -1.6510 c3        1 A5A      0.127100
     17 O2'        -2.0660    0.4490   -3.0430 oh        1 A5A     -0.566800
     18 C1'        -2.4870    0.2140   -0.8150 c3        1 A5A      0.207800
     19 N9         -3.6110    1.0260   -0.4630 n3        1 A5A     -0.126400
     20 C8         -3.6840    1.8930    0.5640 c1        1 A5A      0.162400
     21 N7         -4.9820    2.2210    0.7450 ne        1 A5A     -0.381400
     22 C5         -5.7210    1.5440   -0.1850 cg        1 A5A     -0.195000
     23 C6         -7.0700    1.5970   -0.5160 c1        1 A5A      0.622600
     24 N6         -8.2520    2.2070   -0.0580 n3        1 A5A     -0.821400
     25 N1         -7.5290    0.9160   -1.5730 n1        1 A5A     -0.594800
     26 C2         -6.6780    0.1750   -2.3230 c1        1 A5A      0.409300
     27 N3         -5.3500    0.1210   -2.0020 n1        1 A5A     -0.530800
     28 C4         -4.8810    0.8110   -0.9270 c1        1 A5A      0.029700
     29 H           8.3190   -2.2860    0.8000 hn        1 A5A      0.368300
     30 HN2         7.6880   -3.5960    1.0270 hn        1 A5A      0.368300
     31 HA          6.2770   -2.8290    2.2540 h1        1 A5A      0.087700
     32 HB1         8.1380   -1.4990    2.9030 hc        1 A5A      0.057700
     33 HB2         7.6100   -0.3480    1.8810 hc        1 A5A      0.057700
     34 HB3         6.7230   -0.7680    3.1840 hc        1 A5A      0.057700
     35 H3S         3.9510   -1.9990    2.1370 hn        1 A5A      0.371500
     36 H5'1        1.0500    1.0010    0.6740 h1        1 A5A      0.075700
     37 H5'2        0.2290    0.3330    1.9240 h1        1 A5A      0.075700
     38 H4'        -0.2990   -1.3350   -0.0860 h1        1 A5A      0.104700
     39 H3'         0.2940    1.1580   -1.2170 h1        1 A5A      0.057700
     40 H3T         0.8810   -0.0520   -2.6850 ho        1 A5A      0.450000
     41 H2'        -1.8220    1.7970   -1.5390 h1        1 A5A      0.100700
     42 HO'2       -1.7540    1.0590   -3.6070 ho        1 A5A      0.429000
     43 H1'        -2.7800   -0.5990   -1.1910 h2        1 A5A      0.135700
     44 H8         -2.9430    2.2260    1.0740 DU        1 A5A      0.202000
     45 H61        -8.2600    2.6310    0.7430 hn        1 A5A      0.447300
     46 H62        -9.0150    2.1340   -0.5380 hn        1 A5A      0.447300
     47 H2         -7.0140   -0.3210   -3.0950 ha        1 A5A      0.131500
@<TRIPOS>BOND
     1    1    2 1   
     2    1   29 1   
     3    1   30 1   
     4    2    3 1   
     5    2    4 1   
     6    2   31 1   
     7    3   32 1   
     8    3   33 1   
     9    3   34 1   
    10    4    5 2   
    11    4    6 1   
    12    6    7 1   
    13    6   35 1   
    14    7    8 1   
    15    7    9 1   
    16   10   11 1   
    17   11   12 1   
    18   11   36 1   
    19   11   37 1   
    20   12   13 1   
    21   12   14 1   
    22   12   38 1   
    23   13   18 1   
    24   14   15 1   
    25   14   16 1   
    26   14   39 1   
    27   15   40 1   
    28   16   17 1   
    29   16   18 1   
    30   16   41 1   
    31   17   42 1   
    32   18   19 1   
    33   18   43 1   
    34   19   20 2   
    35   19   28 1   
    36   20   21 2   
    37   21   22 1   
    38   22   28 3   
    39   23   24 1   
    40   23   25 3   
    41   24   45 1   
    42   24   46 1   
    43   26   27 3   
    44   26   47 1   
@<TRIPOS>SUBSTRUCTURE
     1 A5A         1 TEMP              0 ****  ****    0 ROOT
