@<TRIPOS>MOLECULE
A5C
   24    20     1     0     0
SMALL
bcc


@<TRIPOS>ATOM
      1 C1          0.9240    0.4030   -0.6700 c2        1 A5C      0.076000
      2 C2          2.0980    0.4070   -1.2510 c1        1 A5C     -0.316000
      3 C4          4.4020    1.2870   -1.3920 c3        1 A5C     -0.022000
      4 C5          4.0350    2.7450   -1.4790 c1        1 A5C     -0.049000
      5 O1          0.5230   -0.4600    0.3140 oh        1 A5C     -0.269000
      6 O2          0.4780   -1.0220    2.6460 oh        1 A5C     -0.405000
      7 O4          5.6010    0.9360   -2.0650 oh        1 A5C     -0.318000
      8 C6          1.3890    3.6960    0.2600 c2        1 A5C      0.224000
      9 O5          4.6700    3.3700   -2.4480 oh        1 A5C     -0.213000
     10 C40         3.2400    0.4600   -1.8650 c2        1 A5C     -0.083000
     11 O3          0.2340    3.2760    0.1760 o         1 A5C     -0.331000
     12 H11C       -1.1360    0.9190    1.6060 ha        1 A5C      0.002000
     13 H12C        0.1130    1.1290   -0.8880 h4        1 A5C      0.201000
     14 H2         -0.7680    1.3900    1.2870 ha        1 A5C      0.002000
     15 H1          1.2420   -1.0760    0.5310 ho        1 A5C      0.236000
     16 HA         -0.3920   -1.2000    2.2740 ho        1 A5C      0.202500
     17 H40         0.5480   -0.0630    2.5960 ho        1 A5C      0.202500
     18 H4          3.4390   -0.1270   -2.7800 ha        1 A5C      0.142000
     19 H5          4.6290    1.0650   -0.3050 h1        1 A5C      0.160000
     20 HB          5.4860    1.1490   -2.9990 ho        1 A5C      0.205000
     21 H6          2.2790    3.3510   -0.3150 h5        1 A5C      0.181000
     22 H5L         4.3870    4.3030   -2.4460 ho        1 A5C      0.257000
     23 O6          1.5380    4.6960    1.1810 oh        1 A5C     -0.307000
     24 HC          2.4660    4.9610    1.2130 ho        1 A5C      0.222000
@<TRIPOS>BOND
     1    1    2 1   
     2    1    5 1   
     3    1   13 1   
     4    2   10 1   
     5    3    4 1   
     6    3    7 1   
     7    3   10 1   
     8    3   19 1   
     9    4    9 1   
    10    5   15 1   
    11    6   16 1   
    12    6   17 1   
    13    7   20 1   
    14    8   11 1   
    15    8   21 1   
    16    8   23 1   
    17    9   22 1   
    18   10   18 1   
    19   12   14 1   
    20   23   24 1   
@<TRIPOS>SUBSTRUCTURE
     1 A5C         1 TEMP              0 ****  ****    0 ROOT
