@<TRIPOS>MOLECULE
A5C
   24    24     1     0     0
SMALL
bcc


@<TRIPOS>ATOM
      1 C1         -2.4810   -1.1050    0.6260 c3        1 A5C      0.092400
      2 C2         -0.9740   -1.1050    0.6260 c3        1 A5C      0.126100
      3 C4          0.8410   -0.2050   -0.9430 c3        1 A5C      0.137100
      4 C5          1.8440    0.8490   -0.5840 c3        1 A5C      0.054100
      5 O1         -2.9510   -2.2570    1.2920 oh        1 A5C     -0.618800
      6 O2         -0.5070   -1.1050    1.9480 oh        1 A5C     -0.623800
      7 O6          1.9340    2.3510    1.0650 oh        1 A5C     -0.615800
      8 O4          0.5670   -0.1590   -2.2610 oh        1 A5C     -0.594800
      9 C6          1.1450    1.7760    0.0830 c3        1 A5C      0.310900
     10 O5          2.4370    1.4370   -1.8150 oh        1 A5C     -0.597800
     11 C40        -0.4650    0.1410   -0.0940 c3        1 A5C      0.130100
     12 O3         -0.0920    1.0140    0.7480 os        1 A5C     -0.431600
     13 H11C       -2.8060   -1.1060   -0.2940 h1        1 A5C      0.049200
     14 H12C       -2.8060   -0.3080    1.0860 h1        1 A5C      0.049200
     15 H2         -0.6490   -1.9030    0.1660 h1        1 A5C      0.058700
     16 H1         -3.8340   -2.3040    1.2150 ho        1 A5C      0.413000
     17 HA         -0.3560   -1.9400    2.2090 ho        1 A5C      0.431000
     18 H40        -1.1600    0.5060   -0.6750 h1        1 A5C      0.099700
     19 H4          1.1770   -1.0880   -0.6990 h1        1 A5C      0.067700
     20 H5          2.5420    0.4740   -0.0140 h1        1 A5C      0.070700
     21 HB          0.8570   -0.9030   -2.6500 ho        1 A5C      0.430000
     22 H6          0.8250    2.4620   -0.5330 h2        1 A5C      0.106700
     23 HC          1.5950    3.1390    1.2930 ho        1 A5C      0.434000
     24 H5L         3.3190    1.3390   -1.7950 ho        1 A5C      0.421000
@<TRIPOS>BOND
     1    1    2 1   
     2    1    5 1   
     3    1   13 1   
     4    1   14 1   
     5    2    6 1   
     6    2   11 1   
     7    2   15 1   
     8    3    4 1   
     9    3    8 1   
    10    3   11 1   
    11    3   19 1   
    12    4    9 1   
    13    4   10 1   
    14    4   20 1   
    15    5   16 1   
    16    6   17 1   
    17    7    9 1   
    18    7   23 1   
    19    8   21 1   
    20    9   12 1   
    21    9   22 1   
    22   10   24 1   
    23   11   12 1   
    24   11   18 1   
@<TRIPOS>SUBSTRUCTURE
     1 A5C         1 TEMP              0 ****  ****    0 ROOT
