@<TRIPOS>MOLECULE
A5C
   24    24     1     0     0
SMALL
bcc


@<TRIPOS>ATOM
      1 C1          2.6860    0.6360    0.2840 c3        1 A5C      0.099400
      2 C2          1.5640   -0.0880   -0.4700 c3        1 A5C      0.125100
      3 C4         -0.6860   -1.2610   -0.2230 c3        1 A5C      0.134100
      4 C5         -1.8520   -0.2540   -0.3610 c3        1 A5C      0.085100
      5 O1          3.4200   -0.3570    0.9790 oh        1 A5C     -0.599800
      6 O2          1.1040    0.7180   -1.5370 oh        1 A5C     -0.599800
      7 O4         -0.9910   -2.3810    0.5790 oh        1 A5C     -0.586800
      8 C6         -1.4590    0.9280    0.5560 c3        1 A5C      0.294900
      9 O5         -3.0400   -0.8760    0.0750 oh        1 A5C     -0.592800
     10 C40         0.4350   -0.4780    0.4920 c3        1 A5C      0.108100
     11 O3         -0.1460    0.7110    1.0550 os        1 A5C     -0.452600
     12 H11C        3.3500    1.1660   -0.4510 h1        1 A5C      0.037700
     13 H12C        2.2540    1.3820    1.0030 h1        1 A5C      0.037700
     14 H2          1.9740   -1.0160   -0.9610 h1        1 A5C      0.097700
     15 H1          4.0890    0.1070    1.4960 ho        1 A5C      0.405000
     16 HA          0.5870    1.4420   -1.1520 ho        1 A5C      0.416000
     17 H40         0.8570   -1.0580    1.3590 h1        1 A5C      0.115700
     18 H4         -0.3570   -1.6070   -1.2400 h1        1 A5C      0.069700
     19 H5         -1.9460    0.1010   -1.4230 h1        1 A5C      0.081700
     20 HB         -1.8770   -2.6840    0.3390 ho        1 A5C      0.426000
     21 H6         -2.1470    1.0750    1.4290 h2        1 A5C      0.079700
     22 H5L        -3.7660   -0.2800   -0.1480 ho        1 A5C      0.419000
     23 O6         -1.3440    2.0870   -0.2360 oh        1 A5C     -0.625800
     24 HC         -0.9490    2.7760    0.3150 ho        1 A5C      0.424000
@<TRIPOS>BOND
     1    1    2 1   
     2    1    5 1   
     3    1   12 1   
     4    1   13 1   
     5    2    6 1   
     6    2   10 1   
     7    2   14 1   
     8    3    4 1   
     9    3    7 1   
    10    3   10 1   
    11    3   18 1   
    12    4    8 1   
    13    4    9 1   
    14    4   19 1   
    15    5   15 1   
    16    6   16 1   
    17    7   20 1   
    18    8   11 1   
    19    8   21 1   
    20    8   23 1   
    21    9   22 1   
    22   10   11 1   
    23   10   17 1   
    24   23   24 1   
@<TRIPOS>SUBSTRUCTURE
     1 A5C         1 TEMP              0 ****  ****    0 ROOT
