@<TRIPOS>MOLECULE
A5D
   46    49     1     0     0
SMALL
bcc


@<TRIPOS>ATOM
      1 N1         -6.4710    0.9030   -0.9510 nb        1 A5D     -0.795000
      2 C2         -6.1100   -0.3880   -0.7280 ca        1 A5D      0.690900
      3 N3         -4.9480   -0.9020   -0.2590 nb        1 A5D     -0.761000
      4 C4         -4.0250    0.0670    0.0240 ca        1 A5D      0.450800
      5 C5         -4.2610    1.4940   -0.1590 ca        1 A5D     -0.229200
      6 C6         -5.5440    1.8830   -0.6740 ca        1 A5D      0.765200
      7 N6         -5.8240    3.2030   -0.9010 nh        1 A5D     -0.956500
      8 N7         -3.1290    2.2220    0.2360 nc        1 A5D     -0.546100
      9 C8         -2.2410    1.3020    0.6400 cd        1 A5D      0.420700
     10 N9         -2.7170   -0.0280    0.5230 na        1 A5D     -0.295000
     11 OAB        -0.0810   -3.8770   -0.1930 oh        1 A5D     -0.573800
     12 OAC        -2.5500   -3.5640    0.4240 oh        1 A5D     -0.591800
     13 CAD         7.1780    2.3540   -0.8560 ca        1 A5D     -0.122000
     14 CAE         7.3430    1.6740    0.3510 ca        1 A5D     -0.129000
     15 CAF         6.2100    1.9300   -1.7650 ca        1 A5D     -0.129000
     16 CAG         6.5430    0.5730    0.6490 ca        1 A5D     -0.111500
     17 CAH         5.4070    0.8290   -1.4710 ca        1 A5D     -0.111500
     18 CAK         4.7230   -1.0280    0.0510 c3        1 A5D      0.033000
     19 OAP        -0.7370   -0.9940    1.3730 os        1 A5D     -0.394600
     20 SAQ         3.4410   -0.7390    1.2400 ss        1 A5D     -0.172100
     21 SAR         2.0300    0.5660    0.4060 ss        1 A5D     -0.143100
     22 CAS         5.5660    0.1440   -0.2600 ca        1 A5D     -0.090300
     23 CAW        -0.5410   -2.5730   -0.4400 c3        1 A5D      0.130100
     24 CAX        -2.0400   -2.3690   -0.1270 c3        1 A5D      0.083100
     25 CAY         0.2030   -1.5340    0.4320 c3        1 A5D      0.095100
     26 CAZ        -2.0820   -1.2500    0.9650 c3        1 A5D      0.221800
     27 H2         -6.8970   -1.1350   -0.9700 h5        1 A5D      0.051100
     28 HN6        -6.7240    3.4840   -1.2010 hn        1 A5D      0.450300
     29 HN6A       -5.1630    3.8850   -0.6240 hn        1 A5D      0.450300
     30 H8         -1.2360    1.5000    1.0380 h5        1 A5D      0.092800
     31 HOAB       -0.4420   -4.1730    0.6540 ho        1 A5D      0.426000
     32 HOAC       -3.5140   -3.5080    0.3670 ho        1 A5D      0.434000
     33 HAE         8.1060    2.0060    1.0700 ha        1 A5D      0.133500
     34 HAF         6.0770    2.4650   -2.7170 ha        1 A5D      0.133500
     35 HAG         6.6700    0.0430    1.6050 ha        1 A5D      0.134000
     36 HAH         4.6460    0.4990   -2.1930 ha        1 A5D      0.134000
     37 HAK         5.3300   -1.8250    0.5630 h1        1 A5D      0.085700
     38 HAKA        4.2960   -1.4680   -0.8840 h1        1 A5D      0.085700
     39 HAW        -0.3440   -2.4070   -1.5340 h1        1 A5D      0.091700
     40 HAX        -2.6010   -2.0870   -1.0560 h1        1 A5D      0.085700
     41 HAY         0.9920   -2.0330    1.0670 h1        1 A5D      0.109700
     42 HAZ        -2.6140   -1.6180    1.8950 h2        1 A5D      0.104700
     43 CAL         0.8230   -0.4330   -0.4040 c3        1 A5D     -0.052300
     44 HAD         7.8110    3.2230   -1.0890 ha        1 A5D      0.133000
     45 HAL         0.0420    0.3160   -0.7040 h1        1 A5D      0.087700
     46 HALA        1.2600   -0.8800   -1.3300 h1        1 A5D      0.087700
@<TRIPOS>BOND
     1    1    2 ar  
     2    1    6 ar  
     3    2    3 ar  
     4    2   27 1   
     5    3    4 ar  
     6    4    5 ar  
     7    4   10 1   
     8    5    6 ar  
     9    5    8 1   
    10    6    7 1   
    11    7   28 1   
    12    7   29 1   
    13    8    9 2   
    14    9   10 1   
    15    9   30 1   
    16   10   26 1   
    17   11   23 1   
    18   11   31 1   
    19   12   24 1   
    20   12   32 1   
    21   13   14 ar  
    22   13   15 ar  
    23   13   44 1   
    24   14   16 ar  
    25   14   33 1   
    26   15   17 ar  
    27   15   34 1   
    28   16   22 ar  
    29   16   35 1   
    30   17   22 ar  
    31   17   36 1   
    32   18   20 1   
    33   18   22 1   
    34   18   37 1   
    35   18   38 1   
    36   19   25 1   
    37   19   26 1   
    38   20   21 1   
    39   21   43 1   
    40   23   24 1   
    41   23   25 1   
    42   23   39 1   
    43   24   26 1   
    44   24   40 1   
    45   25   41 1   
    46   25   43 1   
    47   26   42 1   
    48   43   45 1   
    49   43   46 1   
@<TRIPOS>SUBSTRUCTURE
     1 A5D         1 TEMP              0 ****  ****    0 ROOT
