@<TRIPOS>MOLECULE
A5D
   46    43     1     0     0
SMALL
bcc


@<TRIPOS>ATOM
      1 N1         -0.9130   -1.2500    0.8650 n2        1 A5D     -0.340000
      2 C2         -0.9120   -2.0920    0.0310 c1        1 A5D      0.159000
      3 N3          2.0900   -1.4350    1.6620 n2        1 A5D     -0.229000
      4 C4          1.5960   -0.5180    2.4080 c2        1 A5D      0.106000
      5 C5          0.1950    0.0700    2.5370 c2        1 A5D     -0.024000
      6 C6         -0.9380   -0.2570    1.8400 c2        1 A5D      0.083000
      7 N6         -2.1560    0.4360    2.1220 n8        1 A5D     -0.305000
      8 N7          0.2900    1.0590    3.5500 n7        1 A5D     -0.275000
      9 C8          1.5630    1.1510    4.0560 c1        1 A5D      0.125000
     10 N9          2.3650    0.2440    3.3790 n3        1 A5D     -0.263000
     11 OAB         6.6060    1.4720    6.2910 oh        1 A5D     -0.360000
     12 OAC         5.2930    1.6520    3.9780 oh        1 A5D     -0.242000
     13 CAD         5.2850   -4.8740   12.2660 c1        1 A5D     -0.225250
     14 CAE         6.1450   -4.8110   11.4380 c1        1 A5D     -0.225250
     15 CAF         4.7680   -1.8590   10.0470 c1        1 A5D     -0.225250
     16 CAG         8.8600   -4.8090    9.0550 c1        1 A5D     -0.190000
     17 CAH         4.4860   -0.8930    9.4010 c1        1 A5D     -0.225250
     18 CAK         8.0270   -2.3910    8.4940 c3        1 A5D     -0.184000
     19 OAP         3.7560   -1.3040    4.5270 os        1 A5D     -0.186000
     20 SAQ         7.8700   -2.0570    6.7620 ss        1 A5D      0.044000
     21 SAR         6.3760   -3.3000    5.9950 ss        1 A5D      0.074000
     22 CAS         8.4790   -3.7040    8.7980 c1        1 A5D     -0.175000
     23 CAW         5.7890    1.9150    7.3530 c3        1 A5D     -0.080000
     24 CAX         4.3630    1.0080    4.6450 c1        1 A5D      0.079000
     25 CAY         4.7630   -1.2840    5.3830 c1        1 A5D     -0.015000
     26 CAZ         3.7170   -0.0600    3.7180 c3        1 A5D      0.100000
     27 H2          1.4770   -1.8880    1.0220 hn        1 A5D      0.178000
     28 HN6        -2.5020    0.9120    1.3090 hn        1 A5D      0.175000
     29 HN6A       -2.8560   -0.1890    2.4760 hn        1 A5D      0.175000
     30 H8         -0.4780    1.6160    3.8280 hn        1 A5D      0.278000
     31 HOAB        6.3720    0.5450    6.1150 ho        1 A5D      0.231000
     32 HOAC        5.7440    2.2710    4.5930 ho        1 A5D      0.291000
     33 HAE         9.2030   -5.7890    9.2730 ha        1 A5D      0.228000
     34 HAF         5.0120   -2.7200   10.6260 ha        1 A5D      0.225750
     35 HAG         6.9130   -4.7580   10.7020 ha        1 A5D      0.225750
     36 HAH         4.2400   -0.0330    8.8280 ha        1 A5D      0.225750
     37 HAK         7.0630   -2.1750    9.0300 h1        1 A5D      0.140500
     38 HAKA        8.7850   -1.6240    8.8230 h1        1 A5D      0.140500
     39 HAW         5.9990    1.3300    8.2840 h1        1 A5D      0.071000
     40 HAX         6.0610    2.9880    7.5090 h1        1 A5D      0.071000
     41 HAY         4.7070    1.8210    7.0780 h1        1 A5D      0.071000
     42 HAZ         4.3040   -0.3130    2.7860 h2        1 A5D      0.138000
     43 CAL         4.8230   -2.5080    6.2170 c3        1 A5D     -0.378000
     44 HAD         4.5220   -4.9330   13.0010 ha        1 A5D      0.225750
     45 HAL         4.6440   -2.2010    7.2820 h1        1 A5D      0.143500
     46 HALA        4.0720   -3.3000    5.9520 h1        1 A5D      0.143500
@<TRIPOS>BOND
     1    1    2 1   
     2    1    6 1   
     3    3    4 1   
     4    3   27 1   
     5    4    5 1   
     6    4   10 1   
     7    5    6 1   
     8    5    8 1   
     9    6    7 1   
    10    7   28 1   
    11    7   29 1   
    12    8    9 1   
    13    8   30 1   
    14    9   10 1   
    15   10   26 1   
    16   11   23 1   
    17   11   31 1   
    18   12   24 1   
    19   12   32 1   
    20   13   14 1   
    21   13   44 1   
    22   14   35 1   
    23   15   17 1   
    24   15   34 1   
    25   16   22 1   
    26   16   33 1   
    27   17   36 1   
    28   18   20 1   
    29   18   22 1   
    30   18   37 1   
    31   18   38 1   
    32   19   25 1   
    33   19   26 1   
    34   20   21 1   
    35   21   43 1   
    36   23   39 1   
    37   23   40 1   
    38   23   41 1   
    39   24   26 1   
    40   25   43 1   
    41   26   42 1   
    42   43   45 1   
    43   43   46 1   
@<TRIPOS>SUBSTRUCTURE
     1 A5D         1 TEMP              0 ****  ****    0 ROOT
