@<TRIPOS>MOLECULE
A5D
   47    47     1     0     0
SMALL
bcc


@<TRIPOS>ATOM
      1 N1          0.8250   -1.4630    0.9420 n2        1 A5D     -0.340000
      2 C2          0.7500   -1.2590   -0.2290 c1        1 A5D      0.275000
      3 N3          3.4440    0.1630    1.4160 n2        1 A5D     -0.182000
      4 C4          3.0150   -0.1000    2.5890 c2        1 A5D      0.099000
      5 C5          1.9170   -1.0830    3.0830 c2        1 A5D      0.085000
      6 C6          0.9440   -1.6560    2.2930 c2        1 A5D     -0.113000
      7 N6         -0.0740   -2.5330    2.9260 n4        1 A5D     -0.008000
      8 N7          1.9860   -1.1830    4.4800 na        1 A5D     -0.179000
      9 C8          3.1110   -0.4010    4.8640 c2        1 A5D     -0.119000
     10 N9          3.4760    0.5430    3.8030 na        1 A5D     -0.131000
     11 OAB         5.4860    5.8830    5.2150 oh        1 A5D     -0.369000
     12 OAC         4.9060    2.9180    5.3210 oh        1 A5D     -0.214000
     13 CAD         4.8930   -4.0340   10.0440 c2        1 A5D     -0.053000
     14 CAE         4.9380   -5.3770   10.0500 c2        1 A5D     -0.128000
     15 CAF         5.5110   -3.2310   11.0130 c1        1 A5D     -0.164000
     16 CAG         4.2790   -6.2210    9.0740 c2        1 A5D     -0.092000
     17 CAH         6.0320   -2.5310   11.8350 c1        1 A5D     -0.164000
     18 CAK         5.2210   -5.1990    6.9980 c3        1 A5D     -0.217000
     19 OAP         5.1880    0.2840    5.4240 os        1 A5D     -0.202000
     20 SAQ         4.3070   -4.1710    5.8760 ss        1 A5D     -0.026000
     21 SAR         3.2240   -2.7480    6.9850 ss        1 A5D     -0.014000
     22 CAS         4.3850   -6.1510    7.7400 c2        1 A5D     -0.186000
     23 CAW         6.0290    6.6510    6.2710 c3        1 A5D     -0.072000
     24 CAX         5.0930    2.4120    4.1330 c1        1 A5D      0.085000
     25 CAY         4.1130   -0.5130    5.7920 c2        1 A5D      0.077000
     26 CAZ         4.8790    0.8920    4.0980 c3        1 A5D      0.027000
     27 H2          3.0010   -0.2520    0.6290 hn        1 A5D      0.189000
     28 HN6        -0.7830   -2.8330    2.2470 hn        1 A5D      0.259000
     29 HN6A       -0.5370   -2.0090    3.6790 hn        1 A5D      0.259000
     30 H8          1.8890   -2.0560    4.9700 hn        1 A5D      0.255000
     31 HOAB        5.6920    6.3350    4.3900 ho        1 A5D      0.216000
     32 HOAC        5.0950    3.8840    5.2890 ho        1 A5D      0.307000
     33 HAF         6.4940   -1.9140   12.5650 ha        1 A5D      0.232000
     34 HAG         3.6540   -7.0190    9.5230 ha        1 A5D      0.144000
     35 HAH         3.8400   -6.8780    7.1110 ha        1 A5D      0.137000
     36 HAK         5.8560   -4.5800    7.6800 h1        1 A5D      0.142500
     37 HAKA        5.9000   -5.7470    6.2840 h1        1 A5D      0.142500
     38 HAW         5.5800    7.6750    6.2850 h1        1 A5D      0.077667
     39 HAX         5.7570    6.0980    7.2050 h1        1 A5D      0.077667
     40 HAY         7.1410    6.7230    6.1740 h1        1 A5D      0.077667
     41 HAZ         5.6300    0.4590    3.3760 h2        1 A5D      0.155000
     42 HAD         4.3300   -3.4840    9.2610 ha        1 A5D      0.136000
     43 H63         0.3830   -3.3630    3.3170 hn        1 A5D      0.259000
     44 CAL         4.1920   -1.2630    7.0450 c3        1 A5D     -0.233000
     45 HAE         5.4700   -5.9240   10.8500 ha        1 A5D      0.151000
     46 HAL         3.7280   -0.6690    7.8830 h1        1 A5D      0.170500
     47 HALA        5.2610   -1.4560    7.3200 h1        1 A5D      0.170500
@<TRIPOS>BOND
     1    1    2 1   
     2    1    6 1   
     3    3    4 1   
     4    3   27 1   
     5    4    5 1   
     6    4   10 1   
     7    5    6 1   
     8    5    8 1   
     9    6    7 1   
    10    7   28 1   
    11    7   29 1   
    12    7   43 1   
    13    8    9 1   
    14    8   30 1   
    15    9   10 1   
    16    9   25 1   
    17   10   26 1   
    18   11   23 1   
    19   11   31 1   
    20   12   24 1   
    21   12   32 1   
    22   13   14 1   
    23   13   15 1   
    24   13   42 1   
    25   14   16 1   
    26   14   45 1   
    27   15   17 1   
    28   16   22 1   
    29   16   34 1   
    30   17   33 1   
    31   18   20 1   
    32   18   22 1   
    33   18   36 1   
    34   18   37 1   
    35   19   25 1   
    36   19   26 1   
    37   20   21 1   
    38   21   44 1   
    39   22   35 1   
    40   23   38 1   
    41   23   39 1   
    42   23   40 1   
    43   24   26 1   
    44   25   44 1   
    45   26   41 1   
    46   44   46 1   
    47   44   47 1   
@<TRIPOS>SUBSTRUCTURE
     1 A5D         1 TEMP              0 ****  ****    0 ROOT
