@<TRIPOS>MOLECULE
A5D
   46    39     1     0     0
SMALL
bcc


@<TRIPOS>ATOM
      1 N1         -3.4790    0.4810   -6.0800 n1        1 A5D     -0.269000
      2 C2         -2.1270    0.4300   -6.1040 c1        1 A5D      0.028000
      3 N3         -1.4050    0.8040   -4.9970 n1        1 A5D     -0.235000
      4 C4         -2.0450    1.2220   -3.8810 c1        1 A5D     -0.089000
      5 C5         -3.3920    1.2710   -3.8600 c1        1 A5D     -0.089000
      6 C6         -4.1160    0.8940   -4.9780 c1        1 A5D      0.244000
      7 N6         -5.4630    1.0730   -5.4170 n3        1 A5D     -0.354000
      8 N7         -3.7790    1.7220   -2.6340 n1        1 A5D     -0.165500
      9 C8         -2.6600    1.9520   -1.8950 c1        1 A5D     -0.035000
     10 N9         -1.5870    1.6480   -2.6550 n1        1 A5D     -0.165500
     11 OAB         2.6000    2.7730   -1.7180 oh        1 A5D     -0.301000
     12 OAC         0.8440    3.4160   -3.4320 oh        1 A5D     -0.319000
     13 CAD         2.6950   -4.8440    6.6240 c1        1 A5D     -0.122250
     14 CAE         3.3020   -4.6080    5.3920 c1        1 A5D     -0.122250
     15 CAF         1.5610   -4.1190    6.9940 c1        1 A5D     -0.122250
     16 CAG         2.7820   -3.6560    4.5380 c1        1 A5D     -0.122250
     17 CAH         1.0400   -3.1650    6.1380 c1        1 A5D     -0.105000
     18 CAK         0.8540   -1.8990    4.1570 c3        1 A5D     -0.230000
     19 CAL         1.3030    1.0740    0.8910 c3        1 A5D     -0.306000
     20 OAP         0.1000    0.7240   -1.0750 os        1 A5D     -0.251000
     21 SAQ         1.7560   -1.3980    2.6990 ss        1 A5D      0.020000
     22 SAR         0.5060   -0.3680    1.4510 ss        1 A5D      0.014000
     23 CAS         1.6470   -2.9300    4.9090 c1        1 A5D     -0.078000
     24 CAW         1.4220    2.6030   -1.1390 c3        1 A5D      0.019000
     25 CAX         0.2950    2.8080   -2.1600 c3        1 A5D     -0.028000
     26 CAY         1.2680    1.1180   -0.6320 c3        1 A5D     -0.017000
     27 CAZ        -0.1850    1.5850   -2.3970 c2        1 A5D      0.130000
     28 H2         -1.6890    0.1430   -6.8670 ha        1 A5D      0.188000
     29 HN6        -5.6980    0.8930   -6.3340 hn        1 A5D      0.245500
     30 HN6A       -6.0960    1.4270   -4.8370 hn        1 A5D      0.245500
     31 H8         -2.6370    2.2730   -1.0080 DU        1 A5D      0.222000
     32 HOAB        3.0160    3.4690   -1.3480 ho        1 A5D      0.225000
     33 HOAC        0.6890    4.2980   -3.4350 ho        1 A5D      0.233000
     34 HAD         3.0620   -5.5160    7.2260 ha        1 A5D      0.135250
     35 HAE         4.0940   -5.1150    5.1330 ha        1 A5D      0.135250
     36 HAF         1.1390   -4.2840    7.8520 ha        1 A5D      0.135250
     37 HAG         3.2050   -3.4910    3.6800 ha        1 A5D      0.135250
     38 HAH         0.2060   -2.6310    6.4100 ha        1 A5D      0.139000
     39 HAK         0.0220   -2.2660    3.9010 h1        1 A5D      0.114500
     40 HAKA        0.7080   -1.1430    4.7140 h1        1 A5D      0.114500
     41 HAL         0.8650    1.8210    1.2310 h1        1 A5D      0.127000
     42 HALA        2.2820    1.0730    1.2130 h1        1 A5D      0.127000
     43 HAW         1.3140    3.2550   -0.3600 h1        1 A5D      0.131000
     44 HAX        -0.4310    3.3990   -1.7700 h1        1 A5D      0.125000
     45 HAY         1.9360    0.5900   -0.9820 h1        1 A5D      0.151000
     46 HAZ         0.2770    1.1890   -3.1580 h4        1 A5D      0.144000
@<TRIPOS>BOND
     1    1    6 1   
     2    2    3 1   
     3    2   28 1   
     4    4    5 1   
     5    6    7 1   
     6    7   29 1   
     7    7   30 1   
     8    8    9 1   
     9    9   10 1   
    10   11   24 1   
    11   11   32 1   
    12   12   25 1   
    13   12   33 1   
    14   13   15 1   
    15   13   34 1   
    16   14   16 1   
    17   14   35 1   
    18   15   36 1   
    19   16   37 1   
    20   17   23 1   
    21   17   38 1   
    22   18   21 1   
    23   18   23 1   
    24   18   39 1   
    25   18   40 1   
    26   19   22 1   
    27   19   26 1   
    28   19   41 1   
    29   19   42 1   
    30   20   26 1   
    31   20   27 1   
    32   21   22 1   
    33   24   25 1   
    34   24   26 1   
    35   24   43 1   
    36   25   27 1   
    37   25   44 1   
    38   26   45 1   
    39   27   46 1   
@<TRIPOS>SUBSTRUCTURE
     1 A5D         1 TEMP              0 ****  ****    0 ROOT
