@<TRIPOS>MOLECULE
A5L
   34    36     1     0     0
SMALL
bcc


@<TRIPOS>ATOM
      1 F           1.0050    2.6870   -0.9570 f         1 A5L     -0.238300
      2 P          -4.2340   -0.0960   -1.0360 p5        1 A5L      1.332900
      3 N1          5.7960   -0.6670    0.1940 nb        1 A5L     -0.804000
      4 C2          5.3180    0.3410    0.9790 ca        1 A5L      0.643900
      5 N3          4.0610    0.8020    1.1400 nb        1 A5L     -0.716000
      6 C4          3.1430    0.1250    0.3830 ca        1 A5L      0.439800
      7 C5          3.5070   -0.9770   -0.5120 ca        1 A5L     -0.202200
      8 C6          4.8880   -1.3330   -0.5880 ca        1 A5L      0.700200
      9 N6          5.3040   -2.3070   -1.4940 nh        1 A5L     -0.932500
     10 N7          2.3570   -1.4860   -1.1310 nc        1 A5L     -0.588100
     11 C8          1.3430   -0.7420   -0.6510 cd        1 A5L      0.468700
     12 N9          1.7550    0.2600    0.2580 na        1 A5L     -0.255000
     13 C1'         0.9110    1.1780    1.0110 c3        1 A5L      0.223800
     14 C2'         0.2980    2.3620    0.1790 c3        1 A5L      0.114600
     15 C3'        -1.1610    1.9040   -0.1070 c3        1 A5L      0.145100
     16 O3'        -2.0020    3.0100    0.1080 oh        1 A5L     -0.669800
     17 C4'        -1.4290    0.7900    0.9210 c3        1 A5L      0.050100
     18 O4'        -0.1750    0.4790    1.5880 os        1 A5L     -0.429600
     19 C5'        -2.0340   -0.4970    0.3090 c3        1 A5L      0.230400
     20 O5'        -3.3930   -0.4990    0.4450 os        1 A5L     -0.552200
     21 OP1        -3.6540    1.2930   -1.2170 o         1 A5L     -0.929167
     22 OP2        -3.6690   -1.1200   -1.9760 o         1 A5L     -0.929167
     23 OP3        -5.6790   -0.1860   -0.6600 o         1 A5L     -0.929167
     24 H2          6.0930    0.8580    1.5820 h5        1 A5L      0.028100
     25 H8          0.2710   -0.8630   -0.9020 h5        1 A5L      0.127800
     26 HN6         6.1750   -2.7460   -1.3080 hn        1 A5L      0.410300
     27 HN6A        4.5800   -2.9090   -1.8150 hn        1 A5L      0.410300
     28 H5'        -1.7390   -0.5790   -0.7770 h1        1 A5L     -0.002800
     29 H5'A       -1.5890   -1.3670    0.8780 h1        1 A5L     -0.002800
     30 H1'         1.5360    1.5700    1.8670 h2        1 A5L      0.081700
     31 H2'         0.2810    3.2650    0.8530 h1        1 A5L      0.064700
     32 H3'        -1.2750    1.5310   -1.1620 h1        1 A5L      0.113700
     33 H4'        -2.1050    1.1650    1.7370 h1        1 A5L      0.085700
     34 HO3'       -2.8720    2.7560   -0.2870 ho        1 A5L      0.509000
@<TRIPOS>BOND
     1    1   14 1   
     2    2   20 1   
     3    2   21 1   
     4    2   22 1   
     5    2   23 1   
     6    3    4 ar  
     7    3    8 ar  
     8    4    5 ar  
     9    4   24 1   
    10    5    6 ar  
    11    6    7 ar  
    12    6   12 1   
    13    7    8 ar  
    14    7   10 1   
    15    8    9 1   
    16    9   26 1   
    17    9   27 1   
    18   10   11 2   
    19   11   12 1   
    20   11   25 1   
    21   12   13 1   
    22   13   14 1   
    23   13   18 1   
    24   13   30 1   
    25   14   15 1   
    26   14   31 1   
    27   15   16 1   
    28   15   17 1   
    29   15   32 1   
    30   16   34 1   
    31   17   18 1   
    32   17   19 1   
    33   17   33 1   
    34   19   20 1   
    35   19   28 1   
    36   19   29 1   
@<TRIPOS>SUBSTRUCTURE
     1 A5L         1 TEMP              0 ****  ****    0 ROOT
