@<TRIPOS>MOLECULE
A5L
   34    28     1     0     0
SMALL
bcc


@<TRIPOS>ATOM
      1 F          -1.5120    0.8410    0.5440 f         1 A5L     -0.167000
      2 P           3.7400   -0.6370    4.4930 p3        1 A5L      2.525000
      3 N1         -3.8020   -0.4900   -3.5290 n1        1 A5L     -0.278000
      4 C2         -3.6530    0.6410   -2.7800 c1        1 A5L     -0.019000
      5 N3         -2.5590    0.7860   -1.9580 n1        1 A5L     -0.190000
      6 C4         -1.6180   -0.2040   -1.8890 c1        1 A5L     -0.081500
      7 C5         -1.7620   -1.3320   -2.6310 c1        1 A5L     -0.081500
      8 C6         -2.8670   -1.4780   -3.4620 c1        1 A5L      0.179000
      9 N6         -3.2990   -2.4250   -4.4830 n3        1 A5L     -0.330000
     10 N7         -0.6490   -2.1050   -2.4390 n1        1 A5L     -0.166500
     11 C8          0.1750   -1.4470   -1.5780 c1        1 A5L      0.013000
     12 N9         -0.4220   -0.2750   -1.2390 n1        1 A5L     -0.166500
     13 C1'         0.4250    0.6300   -0.5510 c2        1 A5L      0.132000
     14 C2'        -0.2700    1.4480    0.1490 c3        1 A5L      0.004000
     15 C3'         0.5820    1.7350    1.3780 c3        1 A5L      0.034000
     16 O3'         1.1030    2.9850    1.3060 oh        1 A5L     -0.397000
     17 C4'         1.7380    0.6570    1.3580 c3        1 A5L     -0.061000
     18 O4'         1.3720   -0.1770    0.4930 os        1 A5L     -0.286000
     19 C5'         1.8640   -0.0190    2.7460 c3        1 A5L      0.080000
     20 O5'         3.2530   -0.3990    2.9810 os        1 A5L     -0.714000
     21 OP1         2.9460   -1.7690    5.1070 os        1 A5L     -1.245000
     22 OP2         3.5340    0.5780    5.2650 o         1 A5L     -1.250500
     23 OP3         5.1620   -0.9800    4.4990 o         1 A5L     -1.250500
     24 H2         -4.3320    1.3590   -2.8290 ha        1 A5L      0.165000
     25 H8          1.0070   -1.8090   -1.1830 DU        1 A5L      0.257000
     26 HN6        -2.6790   -3.0980   -4.8170 hn        1 A5L      0.205500
     27 HN6A       -4.1290   -2.3670   -4.8270 hn        1 A5L      0.205500
     28 H5'         1.5920    0.5730    3.4000 h1        1 A5L      0.036500
     29 H5'A        1.3060   -0.8050    2.7720 h1        1 A5L      0.036500
     30 H1'         0.9510    1.1010   -1.1610 h4        1 A5L      0.121000
     31 H2'        -0.4320    2.2400   -0.3320 h1        1 A5L      0.104000
     32 H3'         0.0350    1.6390    2.2070 h1        1 A5L      0.153000
     33 H4'         2.5610    1.0570    1.1060 h1        1 A5L      0.125000
     34 HO3'        0.6410    3.5460    1.8840 ho        1 A5L      0.308000
@<TRIPOS>BOND
     1    1   14 1   
     2    2   20 1   
     3    2   22 1   
     4    2   23 1   
     5    3    8 1   
     6    4    5 1   
     7    4   24 1   
     8    6    7 1   
     9    8    9 1   
    10    9   26 1   
    11    9   27 1   
    12   10   11 1   
    13   11   12 1   
    14   13   14 1   
    15   13   18 1   
    16   13   30 1   
    17   14   15 1   
    18   14   31 1   
    19   15   16 1   
    20   15   17 1   
    21   15   32 1   
    22   16   34 1   
    23   17   18 1   
    24   17   19 1   
    25   17   33 1   
    26   19   20 1   
    27   19   28 1   
    28   19   29 1   
@<TRIPOS>SUBSTRUCTURE
     1 A5L         1 TEMP              0 ****  ****    0 ROOT
