@<TRIPOS>MOLECULE
A5M
   34    33     1     0     0
SMALL
bcc


@<TRIPOS>ATOM
      1 P          -0.1140    2.0920    3.5010 p3        1 A5M      2.533000
      2 OP1         1.2550    1.5260    3.7950 o         1 A5M     -1.258000
      3 OP2        -0.8750    2.2670    4.7930 os        1 A5M     -1.218000
      4 O5'        -0.9020    1.1000    2.5550 os        1 A5M     -0.731000
      5 C5'        -0.1770    0.3730    1.5920 c3        1 A5M      0.073000
      6 C4'        -0.6990   -1.0540    1.5340 c3        1 A5M     -0.049000
      7 O4'        -1.6450   -1.2410    0.2610 os        1 A5M     -0.297000
      8 C1'        -0.8580   -1.4420   -0.7460 c3        1 A5M      0.139000
      9 N1         -0.5400   -0.1880   -1.3930 n         1 A5M     -0.261000
     10 C6          0.6250   -0.0790   -2.1940 c2        1 A5M      0.082000
     11 C2         -1.4480    0.9500   -1.2650 c2        1 A5M      0.341000
     12 O2         -2.5220    0.8110   -0.7140 o         1 A5M     -0.408000
     13 N3         -1.0740    2.2510   -1.8180 n2        1 A5M     -0.335000
     14 C4          0.0930    2.3730   -2.6170 c1        1 A5M      0.177000
     15 N4          0.3620    3.5880   -3.2990 n2        1 A5M     -0.332000
     16 C5          0.9660    1.2070   -2.8200 c2        1 A5M     -0.369000
     17 C2'         0.4130   -2.0690   -0.1420 c3        1 A5M     -0.083000
     18 N2'         0.4790   -3.3980   -0.4510 n3        1 A5M     -0.319000
     19 C3'         0.2830   -1.8800    1.3820 c3        1 A5M     -0.038000
     20 O3'        -0.0330   -3.1840    2.0390 oh        1 A5M     -0.397000
     21 OP3         0.0310    3.4300    2.8170 o         1 A5M     -1.258000
     22 H5'        -0.2850    0.7950    0.7140 h1        1 A5M      0.037000
     23 H5''        0.7710    0.3640    1.8350 h1        1 A5M      0.037000
     24 H4'        -1.1920   -1.2650    2.3520 h1        1 A5M      0.086000
     25 H1'        -1.2710   -2.0590   -1.3820 h2        1 A5M      0.148000
     26 H6          1.2030   -0.8550   -2.3270 h4        1 A5M      0.299000
     27 H41         1.1300    3.6780   -3.7870 hn        1 A5M      0.183000
     28 H42        -0.2300    4.2830   -3.2460 hn        1 A5M      0.183000
     29 H5          1.7680    1.2860   -3.3720 ha        1 A5M      0.171000
     30 H2'         1.2070   -1.6050   -0.4730 h1        1 A5M      0.111000
     31 H'1N        0.3280   -3.5110   -1.3480 hn        1 A5M      0.136000
     32 H'2N        1.3100   -3.7210   -0.2380 hn        1 A5M      0.136000
     33 H3'         1.1060   -1.5020    1.7510 h1        1 A5M      0.190000
     34 HO3'        0.5340   -3.3230    2.7100 ho        1 A5M      0.292000
@<TRIPOS>BOND
     1    1    2 1   
     2    1    4 1   
     3    1   21 1   
     4    4    5 1   
     5    5    6 1   
     6    5   22 1   
     7    5   23 1   
     8    6    7 1   
     9    6   19 1   
    10    6   24 1   
    11    7    8 1   
    12    8    9 1   
    13    8   17 1   
    14    8   25 1   
    15    9   10 1   
    16    9   11 1   
    17   10   16 1   
    18   10   26 1   
    19   11   12 1   
    20   11   13 1   
    21   13   14 1   
    22   14   16 1   
    23   15   27 1   
    24   15   28 1   
    25   16   29 1   
    26   17   18 1   
    27   17   19 1   
    28   17   30 1   
    29   18   31 1   
    30   18   32 1   
    31   19   20 1   
    32   19   33 1   
    33   20   34 1   
@<TRIPOS>SUBSTRUCTURE
     1 A5M         1 TEMP              0 ****  ****    0 ROOT
