@<TRIPOS>MOLECULE
A5M
   34    35     1     0     0
SMALL
bcc


@<TRIPOS>ATOM
      1 P          -1.1870   -2.6280    3.3540 p5        1 A5M      1.438800
      2 OP1        -2.2680   -3.4430    3.9470 o         1 A5M     -0.849000
      3 OP2         0.1580   -3.2630    4.0380 oh        1 A5M     -0.786400
      4 O5'        -1.1720   -1.1590    4.0960 os        1 A5M     -0.586200
      5 C5'        -0.0780   -0.3240    3.8510 c3        1 A5M      0.193400
      6 C4'        -0.4040    0.7450    2.7960 c3        1 A5M      0.085100
      7 O4'         0.0510    2.0110    3.2850 os        1 A5M     -0.424600
      8 C1'         0.5540    2.7950    2.1750 c3        1 A5M      0.282500
      9 N1          1.5690    3.7270    2.6230 n         1 A5M     -0.327400
     10 C6          2.8280    3.2840    2.8890 c1        1 A5M     -0.086900
     11 C2          1.1950    5.1040    2.8410 c         1 A5M      0.750500
     12 O2          0.0380    5.4920    2.5110 o         1 A5M     -0.706100
     13 N3          2.1130    6.0010    3.3870 ne        1 A5M     -0.806100
     14 C4          3.3690    5.5450    3.6440 cf        1 A5M      0.664500
     15 N4          4.3290    6.4700    4.1510 nh        1 A5M     -0.883800
     16 C5          3.7640    4.2050    3.3940 cf        1 A5M     -0.588700
     17 C2'         1.0620    1.7620    1.1000 c3        1 A5M      0.124500
     18 N2'         1.0070    2.2320   -0.2640 n3        1 A5M     -0.892800
     19 C3'         0.2560    0.4780    1.4240 c3        1 A5M      0.136100
     20 O3'        -0.7400    0.2210    0.4520 oh        1 A5M     -0.641800
     21 OP3        -0.9500   -2.3810    1.9150 o         1 A5M     -0.849000
     22 H5'         0.1690    0.1960    4.8190 h1        1 A5M      0.036200
     23 H5''        0.8030   -0.9440    3.5280 h1        1 A5M      0.036200
     24 H4'        -1.5200    0.8210    2.6670 h1        1 A5M      0.058700
     25 H1'        -0.3270    3.3880    1.7820 h2        1 A5M      0.067700
     26 H6         -0.0540   -3.7920    4.7980 ho        1 A5M      0.421000
     27 H41         3.9220    7.2930    4.5460 hn        1 A5M      0.353800
     28 H42         4.9310    6.0210    4.8080 hn        1 A5M      0.353800
     29 H5          4.7830    3.8610    3.5850 ha        1 A5M      0.109000
     30 H2'         2.1510    1.5430    1.3260 h1        1 A5M      0.110700
     31 H'1N        1.2340    3.2090   -0.2850 hn        1 A5M      0.342300
     32 H'2N        0.0830    2.1110   -0.6350 hn        1 A5M      0.342300
     33 H3'         0.9570   -0.3990    1.4770 h1        1 A5M      0.062700
     34 HO3'       -1.0160   -0.7000    0.5970 ho        1 A5M      0.457000
@<TRIPOS>BOND
     1    1    2 1   
     2    1    3 1   
     3    1    4 1   
     4    1   21 1   
     5    3   26 1   
     6    4    5 1   
     7    5    6 1   
     8    5   22 1   
     9    5   23 1   
    10    6    7 1   
    11    6   19 1   
    12    6   24 1   
    13    7    8 1   
    14    8    9 1   
    15    8   17 1   
    16    8   25 1   
    17    9   10 2   
    18    9   11 1   
    19   10   16 2   
    20   11   12 2   
    21   11   13 1   
    22   13   14 2   
    23   14   15 1   
    24   14   16 1   
    25   15   27 1   
    26   15   28 1   
    27   16   29 1   
    28   17   18 1   
    29   17   19 1   
    30   17   30 1   
    31   18   31 1   
    32   18   32 1   
    33   19   20 1   
    34   19   33 1   
    35   20   34 1   
@<TRIPOS>SUBSTRUCTURE
     1 A5M         1 TEMP              0 ****  ****    0 ROOT
