@<TRIPOS>MOLECULE
A5N
   19    18     1     0     0
SMALL
bcc


@<TRIPOS>ATOM
      1 N          -1.8130   -1.7480   -0.2230 n3        1 A5N     -0.904800
      2 CA         -1.7370   -0.3620    0.2190 c3        1 A5N      0.003500
      3 C          -2.9790    0.5160   -0.1750 c         1 A5N      0.894600
      4 O          -3.9700   -0.0740   -0.6870 o         1 A5N     -0.830300
      5 CB         -0.4840    0.3560   -0.2760 c3        1 A5N     -0.131700
      6 CG          0.7810   -0.2560    0.2510 c2        1 A5N      0.643600
      7 OD1         1.8230    0.7010    0.0590 os        1 A5N     -0.436700
      8 ND2         1.0740   -1.3440    0.8530 n2        1 A5N     -0.839100
      9 C1          3.0870    0.2720   -0.1530 c         1 A5N      0.786200
     10 O2          3.4880   -0.7240   -0.7480 o         1 A5N     -0.572000
     11 O3          3.9330    1.2330    0.3030 oh        1 A5N     -0.579100
     12 OXT        -2.9110    1.7500    0.0680 o         1 A5N     -0.830300
     13 H3          4.8350    0.9580    0.0730 ho        1 A5N      0.439000
     14 HD2         0.3220   -1.9760    1.0190 hn        1 A5N      0.449400
     15 HB1C       -0.5540    1.4300    0.0560 hc        1 A5N      0.089200
     16 HB2C       -0.4370    0.3510   -1.3960 hc        1 A5N      0.089200
     17 HA         -1.7170   -0.3820    1.3480 h1        1 A5N      0.047700
     18 HN1        -2.7280   -2.0900    0.0250 hn        1 A5N      0.340800
     19 HN2        -1.7690   -1.7670   -1.2270 hn        1 A5N      0.340800
@<TRIPOS>BOND
     1    1    2 1   
     2    1   18 1   
     3    1   19 1   
     4    2    3 1   
     5    2    5 1   
     6    2   17 1   
     7    3    4 1   
     8    3   12 1   
     9    5    6 1   
    10    5   15 1   
    11    5   16 1   
    12    6    7 1   
    13    6    8 2   
    14    7    9 1   
    15    8   14 1   
    16    9   10 2   
    17    9   11 1   
    18   11   13 1   
@<TRIPOS>SUBSTRUCTURE
     1 A5N         1 TEMP              0 ****  ****    0 ROOT
