@<TRIPOS>MOLECULE
A5O
   35    37     1     0     0
SMALL
bcc


@<TRIPOS>ATOM
      1 P          -4.1530   -0.1040   -1.0110 p5        1 A5O      1.330900
      2 N1          5.8260   -0.5400    0.1360 nb        1 A5O     -0.805000
      3 C2          5.3530    0.5260    0.8440 ca        1 A5O      0.643900
      4 N3          4.0940    0.9810    1.0030 nb        1 A5O     -0.711000
      5 C4          3.1660    0.2270    0.3350 ca        1 A5O      0.442800
      6 C5          3.5240   -0.9460   -0.4690 ca        1 A5O     -0.206200
      7 C6          4.9080   -1.2860   -0.5550 ca        1 A5O      0.699200
      8 N6          5.3150   -2.3300   -1.3850 nh        1 A5O     -0.932500
      9 N7          2.3660   -1.5260   -1.0030 nc        1 A5O     -0.588100
     10 C8          1.3540   -0.7560   -0.5600 cd        1 A5O      0.452700
     11 N9          1.7740    0.3300    0.2420 na        1 A5O     -0.249000
     12 C1'         0.9350    1.3100    0.9230 c3        1 A5O      0.217800
     13 C2'         0.2870    2.3980    0.0020 c3        1 A5O      0.095100
     14 O2'         0.9520    2.5810   -1.2250 oh        1 A5O     -0.598800
     15 C3'        -1.1870    1.9570   -0.1340 c3        1 A5O      0.125100
     16 O3'        -2.0100    3.0820    0.0650 oh        1 A5O     -0.662800
     17 C4'        -1.4030    0.9090    0.9730 c3        1 A5O      0.052100
     18 O4'        -0.1190    0.6510    1.6020 os        1 A5O     -0.433600
     19 C5'        -2.0160   -0.4170    0.4610 c3        1 A5O      0.226400
     20 O5'        -3.3790   -0.3800    0.5330 os        1 A5O     -0.553200
     21 OP1        -5.6110   -0.2470   -0.7110 o         1 A5O     -0.928833
     22 OP2        -3.6250    1.2980   -1.2490 o         1 A5O     -0.928833
     23 OP3        -3.4840   -1.1480   -1.8600 o         1 A5O     -0.928833
     24 HN6         6.1980   -2.7400   -1.1850 hn        1 A5O      0.409300
     25 HN6A        4.5930   -2.9710   -1.6240 hn        1 A5O      0.409300
     26 H5'        -1.6750   -0.6120   -0.5980 h1        1 A5O     -0.003800
     27 H1'         1.5800    1.7880    1.7180 h2        1 A5O      0.079700
     28 H2'         0.3660    3.3900    0.5250 h1        1 A5O      0.083700
     29 H3'        -1.3940    1.5160   -1.1520 h1        1 A5O      0.116700
     30 H4'        -2.0490    1.3270    1.7910 h1        1 A5O      0.081700
     31 H5'A       -1.6170   -1.2370    1.1290 h1        1 A5O     -0.003800
     32 HO2'        0.5820    1.9480   -1.8550 ho        1 A5O      0.412000
     33 HO3'       -2.8860    2.8260   -0.3090 ho        1 A5O      0.501000
     34 H2          6.1360    1.1050    1.3760 h5        1 A5O      0.028100
     35 H8          0.2770   -0.9240   -0.7610 h5        1 A5O      0.126800
@<TRIPOS>BOND
     1    1   20 1   
     2    1   21 1   
     3    1   22 1   
     4    1   23 1   
     5    2    3 ar  
     6    2    7 ar  
     7    3    4 ar  
     8    3   34 1   
     9    4    5 ar  
    10    5    6 ar  
    11    5   11 1   
    12    6    7 ar  
    13    6    9 1   
    14    7    8 1   
    15    8   24 1   
    16    8   25 1   
    17    9   10 2   
    18   10   11 1   
    19   10   35 1   
    20   11   12 1   
    21   12   13 1   
    22   12   18 1   
    23   12   27 1   
    24   13   14 1   
    25   13   15 1   
    26   13   28 1   
    27   14   32 1   
    28   15   16 1   
    29   15   17 1   
    30   15   29 1   
    31   16   33 1   
    32   17   18 1   
    33   17   19 1   
    34   17   30 1   
    35   19   20 1   
    36   19   26 1   
    37   19   31 1   
@<TRIPOS>SUBSTRUCTURE
     1 A5O         1 TEMP              0 ****  ****    0 ROOT
