@<TRIPOS>MOLECULE
A5O
   35    29     1     0     0
SMALL
bcc


@<TRIPOS>ATOM
      1 P           2.5340    1.5460    4.2620 p3        1 A5O      2.536000
      2 N1         -4.4880   -0.2900   -1.5830 n1        1 A5O     -0.257000
      3 C2         -3.9180   -0.2740   -0.3380 c1        1 A5O     -0.080000
      4 N3         -2.5570   -0.2820   -0.2080 n1        1 A5O     -0.192000
      5 C4         -1.7670   -0.3060   -1.3140 c1        1 A5O     -0.068500
      6 C5         -2.3300   -0.3220   -2.5470 c1        1 A5O     -0.068500
      7 C6         -3.7110   -0.3140   -2.6770 c1        1 A5O      0.064000
      8 N6         -4.4570   -0.2330   -3.8710 n3        1 A5O     -0.298000
      9 N7         -1.3290   -0.3310   -3.4650 n1        1 A5O     -0.259000
     10 C8         -0.1490   -0.3210   -2.7990 c1        1 A5O     -0.173000
     11 N9         -0.4190   -0.3060   -1.4690 n1        1 A5O     -0.259000
     12 C1'         0.6000   -0.8400   -0.6420 c2        1 A5O      0.149000
     13 C2'         1.6540   -0.1100   -0.7220 c3        1 A5O      0.042000
     14 O2'         1.2770    1.3120   -1.0590 oh        1 A5O     -0.361000
     15 C3'         2.2770   -0.1740    0.6420 c3        1 A5O     -0.017000
     16 O3'         3.4050   -0.9520    0.6120 oh        1 A5O     -0.356000
     17 C4'         1.1890   -0.8270    1.5770 c3        1 A5O     -0.029000
     18 O4'         0.1400   -0.8070    0.8910 os        1 A5O     -0.287000
     19 C5'         1.0040    0.0250    2.8810 c3        1 A5O      0.033000
     20 O5'         2.2310    0.1760    3.5140 os        1 A5O     -0.742000
     21 OP1         3.7930    1.4050    5.0810 os        1 A5O     -1.137000
     22 OP2         1.3620    1.8950    5.1800 o         1 A5O     -1.006000
     23 OP3         2.7170    2.6420    3.2460 o         1 A5O     -1.006000
     24 H2         -4.4960   -0.2560    0.4740 ha        1 A5O      0.144000
     25 H8          0.7360   -0.2670   -3.2050 DU        1 A5O      0.226000
     26 HN6        -5.3710    0.0640   -3.8470 hn        1 A5O      0.164500
     27 HN6A       -4.0650   -0.4360   -4.6660 hn        1 A5O      0.164500
     28 H5'         0.3830   -0.4270    3.4800 h1        1 A5O      0.082500
     29 H1'         0.8140   -1.7920   -0.9200 h4        1 A5O      0.097000
     30 H2'         2.2300   -0.4490   -1.3550 h1        1 A5O      0.104000
     31 H3'         2.5020    0.7590    0.9660 h1        1 A5O      0.099000
     32 H4'         1.4430   -1.7710    1.8050 h1        1 A5O      0.106000
     33 H5'A        0.6440    0.9190    2.6440 h1        1 A5O      0.082500
     34 HO2'        2.0030    1.7790   -1.2070 ho        1 A5O      0.269000
     35 HO3'        4.1180   -0.4370    0.6380 ho        1 A5O      0.235000
@<TRIPOS>BOND
     1    1   20 1   
     2    1   22 1   
     3    1   23 1   
     4    2    7 1   
     5    3    4 1   
     6    3   24 1   
     7    5    6 1   
     8    7    8 1   
     9    8   26 1   
    10    8   27 1   
    11    9   10 1   
    12   10   11 1   
    13   12   13 1   
    14   12   18 1   
    15   12   29 1   
    16   13   14 1   
    17   13   15 1   
    18   13   30 1   
    19   14   34 1   
    20   15   16 1   
    21   15   17 1   
    22   15   31 1   
    23   16   35 1   
    24   17   18 1   
    25   17   19 1   
    26   17   32 1   
    27   19   20 1   
    28   19   28 1   
    29   19   33 1   
@<TRIPOS>SUBSTRUCTURE
     1 A5O         1 TEMP              0 ****  ****    0 ROOT
