@<TRIPOS>MOLECULE
A5P
   25    24     1     0     0
SMALL
bcc


@<TRIPOS>ATOM
      1 C1          0.1070    0.0330   -0.4350 c3        1 A5P      0.087400
      2 O1         -0.3390    1.3180   -0.0140 oh        1 A5P     -0.623800
      3 C2          1.5530   -0.1330    0.0410 c3        1 A5P      0.109100
      4 O2          1.6130    0.0170    1.4540 oh        1 A5P     -0.604800
      5 C3          2.0660   -1.5450   -0.3050 c3        1 A5P      0.126100
      6 O3          1.6210   -2.4660    0.6750 oh        1 A5P     -0.612800
      7 C4          3.6030   -1.5470   -0.4660 c3        1 A5P      0.105100
      8 O4          3.9490   -0.5060   -1.3440 oh        1 A5P     -0.698800
      9 C5          4.0740   -2.9400   -0.9530 c3        1 A5P      0.205400
     10 O5          5.4310   -2.9700   -1.1180 os        1 A5P     -0.563200
     11 P           5.9330   -3.1470   -2.7750 p5        1 A5P      1.321900
     12 O1P         5.4150   -1.8230   -3.3000 o         1 A5P     -0.921500
     13 O2P         7.4210   -3.2980   -2.6750 o         1 A5P     -0.921500
     14 O3P         5.1410   -4.3440   -3.2200 o         1 A5P     -0.921500
     15 H11         0.0630   -0.0420   -1.5530 h1        1 A5P      0.031700
     16 H12        -0.5420   -0.7580    0.0250 h1        1 A5P      0.031700
     17 HO1        -1.2260    1.4260   -0.3720 ho        1 A5P      0.379000
     18 HC2         2.2080    0.6360   -0.4580 h1        1 A5P      0.087700
     19 HO2         1.3710    0.9330    1.6300 ho        1 A5P      0.389000
     20 HC3         1.5890   -1.8870   -1.2650 h1        1 A5P      0.071700
     21 HO3         2.2010   -2.3560    1.4380 ho        1 A5P      0.402000
     22 HC4         4.0600   -1.3150    0.5380 h1        1 A5P      0.008700
     23 HO4         4.5430   -0.8920   -2.0540 ho        1 A5P      0.512000
     24 H51         3.5400   -3.1920   -1.9130 h1        1 A5P     -0.001300
     25 H52         3.7590   -3.6770   -0.1550 h1        1 A5P     -0.001300
@<TRIPOS>BOND
     1    1    2 1   
     2    1    3 1   
     3    1   15 1   
     4    1   16 1   
     5    2   17 1   
     6    3    4 1   
     7    3    5 1   
     8    3   18 1   
     9    4   19 1   
    10    5    6 1   
    11    5    7 1   
    12    5   20 1   
    13    6   21 1   
    14    7    8 1   
    15    7    9 1   
    16    7   22 1   
    17    8   23 1   
    18    9   10 1   
    19    9   24 1   
    20    9   25 1   
    21   10   11 1   
    22   11   12 1   
    23   11   13 1   
    24   11   14 1   
@<TRIPOS>SUBSTRUCTURE
     1 A5P         1 TEMP              0 ****  ****    0 ROOT
