@<TRIPOS>MOLECULE
A5P
   25    24     1     0     0
SMALL
bcc


@<TRIPOS>ATOM
      1 C1          1.0280   -1.1210   -1.3020 c3        1 A5P      0.102400
      2 O1          0.6470    0.0840   -1.9440 oh        1 A5P     -0.682800
      3 C2          1.6900   -0.7600    0.0310 c3        1 A5P      0.067100
      4 O2          0.7160   -0.2660    0.9600 oh        1 A5P     -0.647800
      5 C3          2.3980   -1.9460    0.6940 c3        1 A5P      0.126100
      6 O3          2.2340   -1.9110    2.1110 oh        1 A5P     -0.631800
      7 C4          3.9100   -1.9900    0.3600 c3        1 A5P      0.098100
      8 O4          4.4600   -0.6930    0.3430 oh        1 A5P     -0.660800
      9 C5          4.1820   -2.7710   -0.9530 c3        1 A5P      0.187400
     10 O5          4.9550   -2.0480   -1.8250 os        1 A5P     -0.565200
     11 P           4.1020   -1.3290   -3.1500 p5        1 A5P      1.319900
     12 O1P         3.4710   -0.1760   -2.3880 o         1 A5P     -0.925167
     13 O2P         5.1790   -1.0060   -4.1360 o         1 A5P     -0.925167
     14 O3P         3.0960   -2.3910   -3.5050 o         1 A5P     -0.925167
     15 H11         1.7610   -1.6870   -1.9590 h1        1 A5P      0.075200
     16 H12         0.0800   -1.6940   -1.1370 h1        1 A5P      0.075200
     17 HO1         1.4710    0.4260   -2.3460 ho        1 A5P      0.467000
     18 HC2         2.4320    0.0690   -0.1730 h1        1 A5P      0.104700
     19 HO2         0.1750    0.3450    0.4480 ho        1 A5P      0.394000
     20 HC3         1.9150   -2.9150    0.3900 h1        1 A5P      0.052700
     21 HO3         2.4370   -1.0090    2.3810 ho        1 A5P      0.398000
     22 HC4         4.4170   -2.5100    1.2240 h1        1 A5P      0.013700
     23 HO4         4.4500   -0.3940   -0.6010 ho        1 A5P      0.480000
     24 H51         3.2090   -3.0730   -1.4370 h1        1 A5P      0.001200
     25 H52         4.7370   -3.7120   -0.6620 h1        1 A5P      0.001200
@<TRIPOS>BOND
     1    1    2 1   
     2    1    3 1   
     3    1   15 1   
     4    1   16 1   
     5    2   17 1   
     6    3    4 1   
     7    3    5 1   
     8    3   18 1   
     9    4   19 1   
    10    5    6 1   
    11    5    7 1   
    12    5   20 1   
    13    6   21 1   
    14    7    8 1   
    15    7    9 1   
    16    7   22 1   
    17    8   23 1   
    18    9   10 1   
    19    9   24 1   
    20    9   25 1   
    21   10   11 1   
    22   11   12 1   
    23   11   13 1   
    24   11   14 1   
@<TRIPOS>SUBSTRUCTURE
     1 A5P         1 TEMP              0 ****  ****    0 ROOT
