@<TRIPOS>MOLECULE
A5P
   25    24     1     0     0
SMALL
bcc


@<TRIPOS>ATOM
      1 C1          0.0430   -1.4130    3.6880 c3        1 A5P      0.101400
      2 O1         -0.0030   -1.3090    5.1040 oh        1 A5P     -0.643800
      3 C2         -0.2150   -0.0680    3.0030 c3        1 A5P      0.100100
      4 O2          0.5850    0.9190    3.6460 oh        1 A5P     -0.649800
      5 C3          0.0720   -0.1780    1.4950 c3        1 A5P      0.124100
      6 O3          1.4730   -0.1510    1.3390 oh        1 A5P     -0.711800
      7 C4         -0.5970    0.9840    0.7370 c3        1 A5P      0.083100
      8 O4         -2.0040    0.7770    0.7320 oh        1 A5P     -0.658800
      9 C5         -0.0710    1.1190   -0.7120 c3        1 A5P      0.197400
     10 O5         -0.5720    0.1150   -1.5020 os        1 A5P     -0.575200
     11 P           0.6510   -0.9350   -2.1580 p5        1 A5P      1.328900
     12 O1P         1.0980   -1.6010   -0.8700 o         1 A5P     -0.920833
     13 O2P        -0.1170   -1.7860   -3.1210 o         1 A5P     -0.920833
     14 O3P         1.6450    0.0470   -2.7060 o         1 A5P     -0.920833
     15 H11         1.0500   -1.8040    3.3810 h1        1 A5P      0.050700
     16 H12        -0.7520   -2.1540    3.4160 h1        1 A5P      0.050700
     17 HO1         0.4080   -0.4650    5.3320 ho        1 A5P      0.404000
     18 HC2        -1.2770    0.2630    3.1690 h1        1 A5P      0.065700
     19 HO2         1.4170    0.9690    3.1580 ho        1 A5P      0.427000
     20 HC3        -0.3450   -1.1490    1.1030 h1        1 A5P      0.087700
     21 HO3         1.6550   -0.6020    0.4600 ho        1 A5P      0.517000
     22 HC4        -0.4390    1.9430    1.3010 h1        1 A5P      0.020700
     23 HO4        -2.1830    0.2190   -0.0430 ho        1 A5P      0.433000
     24 H51        -0.4420    2.1190   -1.0890 h1        1 A5P      0.005200
     25 H52         1.0540    1.1270   -0.7110 h1        1 A5P      0.005200
@<TRIPOS>BOND
     1    1    2 1   
     2    1    3 1   
     3    1   15 1   
     4    1   16 1   
     5    2   17 1   
     6    3    4 1   
     7    3    5 1   
     8    3   18 1   
     9    4   19 1   
    10    5    6 1   
    11    5    7 1   
    12    5   20 1   
    13    6   21 1   
    14    7    8 1   
    15    7    9 1   
    16    7   22 1   
    17    8   23 1   
    18    9   10 1   
    19    9   24 1   
    20    9   25 1   
    21   10   11 1   
    22   11   12 1   
    23   11   13 1   
    24   11   14 1   
@<TRIPOS>SUBSTRUCTURE
     1 A5P         1 TEMP              0 ****  ****    0 ROOT
