@<TRIPOS>MOLECULE
A5P
   25    24     1     0     0
SMALL
bcc


@<TRIPOS>ATOM
      1 C1         -2.6670    1.1320    1.1570 c3        1 A5P      0.088400
      2 O1         -3.1370    2.1910    1.9620 oh        1 A5P     -0.636800
      3 C2         -1.1550    1.1320    1.1570 c3        1 A5P      0.069100
      4 O2         -0.6860    1.1320    2.4850 oh        1 A5P     -0.603800
      5 C3         -0.6510   -0.1020    0.4450 c3        1 A5P      0.130100
      6 O3         -0.4180   -1.1240    1.3850 oh        1 A5P     -0.609800
      7 C4          0.6370    0.2230   -0.2760 c3        1 A5P      0.105100
      8 O4          0.3780    1.1490   -1.3040 oh        1 A5P     -0.704800
      9 C5          1.2150   -1.0410   -0.8700 c3        1 A5P      0.204400
     10 O5          2.3170   -0.7160   -1.6850 os        1 A5P     -0.563200
     11 P           3.1410   -1.8940   -2.3420 p5        1 A5P      1.321900
     12 O1P         4.3170   -1.3240   -3.0990 o         1 A5P     -0.920500
     13 O2P         3.6400   -2.8230   -1.2620 o         1 A5P     -0.920500
     14 O3P         2.2530   -2.6590   -3.2940 o         1 A5P     -0.920500
     15 H11        -2.9930    0.2840    1.5140 h1        1 A5P      0.053700
     16 H12        -2.9930    1.2480    0.2440 h1        1 A5P      0.053700
     17 HO1        -4.0170    2.2650    1.8690 ho        1 A5P      0.396000
     18 HC2        -0.8300    1.9290    0.6970 h1        1 A5P      0.078700
     19 HO2        -0.3650    1.9350    2.6850 ho        1 A5P      0.382000
     20 HC3        -1.3190   -0.4000   -0.2010 h1        1 A5P      0.073700
     21 HO3        -1.0010   -1.7820    1.2570 ho        1 A5P      0.401000
     22 HC4         1.2750    0.6070    0.3550 h1        1 A5P      0.006700
     23 HO4         1.0200    1.7620   -1.3190 ho        1 A5P      0.514000
     24 H51         1.5050   -1.6350   -0.1520 h1        1 A5P     -0.000300
     25 H52         0.5340   -1.4890   -1.4070 h1        1 A5P     -0.000300
@<TRIPOS>BOND
     1    1    2 1   
     2    1    3 1   
     3    1   15 1   
     4    1   16 1   
     5    2   17 1   
     6    3    4 1   
     7    3    5 1   
     8    3   18 1   
     9    4   19 1   
    10    5    6 1   
    11    5    7 1   
    12    5   20 1   
    13    6   21 1   
    14    7    8 1   
    15    7    9 1   
    16    7   22 1   
    17    8   23 1   
    18    9   10 1   
    19    9   24 1   
    20    9   25 1   
    21   10   11 1   
    22   11   12 1   
    23   11   13 1   
    24   11   14 1   
@<TRIPOS>SUBSTRUCTURE
     1 A5P         1 TEMP              0 ****  ****    0 ROOT
