@<TRIPOS>MOLECULE
A5R
   40    36     1     0     0
SMALL
bcc


@<TRIPOS>ATOM
      1 C          -1.1190    0.6860   -0.7360 c1        1 A5R      0.191000
      2 N           0.8950    1.7950   -1.4300 n3        1 A5R     -0.325000
      3 O          -1.7180    1.3110    0.1190 o         1 A5R     -0.301000
      4 CA          0.4020    0.6620   -0.7330 c2        1 A5R     -0.078000
      5 CB          0.9090    0.6880    0.7030 c3        1 A5R     -0.172000
      6 CD          2.8950    0.2550    2.1770 c3        1 A5R     -0.048000
      7 NE          4.3090   -0.0960    2.1920 n3        1 A5R     -0.313000
      8 CG          2.4010    0.3210    0.7240 c3        1 A5R     -0.184000
      9 CZ          5.0010   -0.2930    3.4460 c2        1 A5R      0.418000
     10 NH1         5.0870   -1.6110    4.0230 n3        1 A5R     -0.319000
     11 NH2         5.5530    0.7310    4.0600 n2        1 A5R     -0.308000
     12 C1         -6.4160   -1.4550   -3.3330 c1        1 A5R      0.329000
     13 O1         -6.8410   -2.5680   -2.9210 o         1 A5R     -0.615500
     14 C2         -5.6480   -0.5480   -2.4010 c2        1 A5R     -0.189000
     15 C3         -4.1640   -0.7440   -2.6160 c3        1 A5R     -0.145000
     16 C4         -3.3870    0.1140   -1.6160 c3        1 A5R     -0.144000
     17 C5         -1.9010   -0.1470   -1.7730 c3        1 A5R     -0.204000
     18 H1N         0.2000    2.3410   -1.6540 hn        1 A5R      0.150500
     19 H2N         1.3230    1.5250   -2.1830 hn        1 A5R      0.150500
     20 HA          0.7120   -0.1450   -1.1700 h4        1 A5R      0.115000
     21 H1B         0.7870    1.5920    1.0790 hc        1 A5R      0.107500
     22 H2B         0.4150    0.0510    1.2300 hc        1 A5R      0.107500
     23 H1D         2.3860   -0.4220    2.6640 h1        1 A5R      0.105000
     24 H2D         2.7720    1.1170    2.5990 h1        1 A5R      0.105000
     25 HNE         4.7820   -0.0780    1.4210 hn        1 A5R      0.247000
     26 H1G         2.5280   -0.5480    0.2970 hc        1 A5R      0.104000
     27 H2G         2.9070    0.9970    0.2400 hc        1 A5R      0.104000
     28 H1H1        5.1680   -2.3420    3.4810 hn        1 A5R      0.246500
     29 H2H1        5.1640   -1.7090    4.9380 hn        1 A5R      0.246500
     30 H1H2        5.5000    1.5760    3.6900 DU        1 A5R      0.222000
     31 H2H2        5.9930    0.6060    4.8570 hn        1 A5R      0.275000
     32 O3         -6.7040   -1.0620   -4.4980 o         1 A5R     -0.615500
     33 H12        -5.8830    0.3790   -2.5830 ha        1 A5R      0.095500
     34 H22        -5.8710   -0.7630   -1.4880 ha        1 A5R      0.095500
     35 H13        -3.9280   -0.4770   -3.5270 hc        1 A5R      0.082000
     36 H23        -3.9340   -1.6950   -2.4830 hc        1 A5R      0.082000
     37 H14        -3.6630   -0.1130   -0.7080 hc        1 A5R      0.088000
     38 H24        -3.5720    1.0660   -1.7870 hc        1 A5R      0.088000
     39 H15        -1.7200   -1.1030   -1.6310 hc        1 A5R      0.103500
     40 H25        -1.6230    0.1050   -2.6650 hc        1 A5R      0.103500
@<TRIPOS>BOND
     1    1    3 1   
     2    1   17 1   
     3    2    4 1   
     4    2   18 1   
     5    2   19 1   
     6    4    5 1   
     7    4   20 1   
     8    5    8 1   
     9    5   21 1   
    10    5   22 1   
    11    6    7 1   
    12    6    8 1   
    13    6   23 1   
    14    6   24 1   
    15    7    9 1   
    16    7   25 1   
    17    8   26 1   
    18    8   27 1   
    19    9   10 1   
    20    9   11 1   
    21   10   28 1   
    22   10   29 1   
    23   11   31 1   
    24   12   13 1   
    25   12   32 1   
    26   14   15 1   
    27   14   33 1   
    28   14   34 1   
    29   15   16 1   
    30   15   35 1   
    31   15   36 1   
    32   16   17 1   
    33   16   37 1   
    34   16   38 1   
    35   17   39 1   
    36   17   40 1   
@<TRIPOS>SUBSTRUCTURE
     1 A5R         1 TEMP              0 ****  ****    0 ROOT
