@<TRIPOS>MOLECULE
A5R
   40    39     1     0     0
SMALL
bcc


@<TRIPOS>ATOM
      1 C           0.8150    3.1090    0.3840 c         1 A5R      0.530100
      2 N          -1.5690    3.9280    0.5290 n3        1 A5R     -0.890800
      3 O           1.1520    4.1500   -0.1890 o         1 A5R     -0.540100
      4 CA         -0.6660    2.8030    0.6670 c3        1 A5R      0.069500
      5 CB         -1.0590    1.6150   -0.2180 c3        1 A5R     -0.082400
      6 CD         -2.2920   -0.4800   -0.2330 c3        1 A5R     -0.043700
      7 NE         -3.4970   -1.2550   -0.0120 nh        1 A5R     -0.375100
      8 CG         -2.3870    0.9900    0.1660 c3        1 A5R     -0.073400
      9 CZ         -3.4380   -2.6420   -0.0880 cz        1 A5R      0.475300
     10 NH1        -2.4110   -3.2700   -0.7200 nh        1 A5R     -0.489700
     11 NH2        -4.5060   -3.3850    0.4280 nh        1 A5R     -0.489700
     12 C1          0.6230   -1.8700   -0.7100 c         1 A5R      0.890600
     13 O1         -0.1240   -1.7930   -1.7420 o         1 A5R     -0.870800
     14 C2          2.0470   -1.3560   -0.7430 c3        1 A5R     -0.162400
     15 C3          2.2960   -0.3120    0.3290 c3        1 A5R     -0.071400
     16 C4          2.2170    1.1080   -0.2030 c3        1 A5R     -0.073400
     17 C5          1.8130    2.0990    0.8790 c3        1 A5R     -0.177400
     18 H1N        -1.1980    4.7210    1.0170 hn        1 A5R      0.354300
     19 H2N        -1.6710    4.1750   -0.4380 hn        1 A5R      0.354300
     20 HA         -0.7260    2.4800    1.7520 h1        1 A5R      0.073700
     21 H1B        -1.0860    1.9270   -1.2940 hc        1 A5R      0.071700
     22 H2B        -0.2510    0.8360   -0.1150 hc        1 A5R      0.071700
     23 H1D        -1.4310   -0.9460    0.3500 h1        1 A5R      0.118200
     24 H2D        -2.0250   -0.5540   -1.3320 h1        1 A5R      0.118200
     25 HNE        -4.1960   -0.8460    0.5690 hn        1 A5R      0.285700
     26 H1G        -2.5660    1.0900    1.2670 hc        1 A5R      0.049200
     27 H2G        -3.2290    1.5070   -0.3610 hc        1 A5R      0.049200
     28 H1H1       -1.5310   -2.7650   -0.9390 hn        1 A5R      0.319700
     29 H2H1       -2.3570   -4.2620   -0.6990 hn        1 A5R      0.319700
     30 H1H2       -5.3450   -2.9190    0.6800 hn        1 A5R      0.319700
     31 H2H2       -4.5790   -4.3460    0.1960 hn        1 A5R      0.319700
     32 O3          0.1280   -2.3910    0.3420 o         1 A5R     -0.870800
     33 H12         2.7220   -2.2350   -0.5700 hc        1 A5R      0.050700
     34 H22         2.2710   -0.9460   -1.7610 hc        1 A5R      0.050700
     35 H13         1.5480   -0.4680    1.1540 hc        1 A5R      0.044200
     36 H23         3.3110   -0.4710    0.7790 hc        1 A5R      0.044200
     37 H14         3.2150    1.4060   -0.6200 hc        1 A5R      0.050700
     38 H24         1.4950    1.1520   -1.0620 hc        1 A5R      0.050700
     39 H15         2.7240    2.6470    1.2410 hc        1 A5R      0.063200
     40 H25         1.3760    1.5590    1.7600 hc        1 A5R      0.063200
@<TRIPOS>BOND
     1    1    3 2   
     2    1    4 1   
     3    1   17 1   
     4    2    4 1   
     5    2   18 1   
     6    2   19 1   
     7    4    5 1   
     8    4   20 1   
     9    5    8 1   
    10    5   21 1   
    11    5   22 1   
    12    6    7 1   
    13    6    8 1   
    14    6   23 1   
    15    6   24 1   
    16    7    9 2   
    17    7   25 1   
    18    8   26 1   
    19    8   27 1   
    20    9   10 1   
    21    9   11 1   
    22   10   28 1   
    23   10   29 1   
    24   11   30 1   
    25   11   31 1   
    26   12   13 1   
    27   12   14 1   
    28   12   32 1   
    29   14   15 1   
    30   14   33 1   
    31   14   34 1   
    32   15   16 1   
    33   15   35 1   
    34   15   36 1   
    35   16   17 1   
    36   16   37 1   
    37   16   38 1   
    38   17   39 1   
    39   17   40 1   
@<TRIPOS>SUBSTRUCTURE
     1 A5R         1 TEMP              0 ****  ****    0 ROOT
