@<TRIPOS>MOLECULE
A5T
   75    80     1     0     0
SMALL
bcc


@<TRIPOS>ATOM
      1 CLA       -10.0510   -2.0800   -0.0030 cl        1 A5T     -0.073400
      2 C36        -8.4110   -1.9130   -0.4070 ca        1 A5T      0.018400
      3 C33        -7.5430   -1.1480    0.3870 ca        1 A5T      0.014400
      4 CLR3       -8.1460   -0.3630    1.7700 cl        1 A5T     -0.077400
      5 C38        -7.9330   -2.5520   -1.5560 ca        1 A5T     -0.119000
      6 C37        -6.5930   -2.4230   -1.9060 ca        1 A5T     -0.118000
      7 C34        -5.7280   -1.6650   -1.1180 ca        1 A5T     -0.114000
      8 C32        -6.1850   -1.0260    0.0360 ca        1 A5T     -0.103300
      9 C29        -5.2910   -0.1870    0.9110 c3        1 A5T      0.124300
     10 N26        -3.8570   -0.2190    0.7340 n         1 A5T     -0.438800
     11 C28        -3.2240   -1.4690    1.0350 cx        1 A5T      0.027700
     12 C31        -2.5970   -2.4290    0.0410 cx        1 A5T     -0.149400
     13 C30        -1.7210   -1.6470    0.9740 cx        1 A5T     -0.149400
     14 C22        -3.3160    0.5670   -0.3410 c         1 A5T      0.685300
     15 O25        -3.0720    0.0800   -1.4560 o         1 A5T     -0.557100
     16 C20        -3.0170    2.0020   -0.0660 ce        1 A5T     -0.193400
     17 C23        -4.1910    2.9460    0.0790 c3        1 A5T      0.206700
     18 N27        -3.9150    4.2480   -0.5340 n3        1 A5T     -0.781200
     19 C24        -2.7590    4.8370    0.1440 c3        1 A5T      0.155500
     20 C21        -1.4940    3.9630    0.0770 c3        1 A5T     -0.074200
     21 C          -4.5390    3.1310    1.5860 c3        1 A5T      0.171800
     22 NB         -3.5770    3.9310    2.3170 n3        1 A5T     -0.820200
     23 CA         -3.1260    5.1210    1.6250 c3        1 A5T      0.169800
     24 C19        -1.7600    2.4930   -0.0320 cf        1 A5T      0.019600
     25 C18        -0.5410    1.6810   -0.1150 ca        1 A5T     -0.082800
     26 C16        -0.2290    0.9580   -1.2720 ca        1 A5T     -0.107500
     27 C14         0.9610    0.2370   -1.3500 ca        1 A5T     -0.131500
     28 C17         0.3510    1.6620    0.9680 ca        1 A5T     -0.107500
     29 C15         1.5350    0.9350    0.8880 ca        1 A5T     -0.131500
     30 C13         1.8540    0.2220   -0.2740 ca        1 A5T     -0.073300
     31 C12         3.1220   -0.5550   -0.3510 c3        1 A5T     -0.036100
     32 C10         4.3270    0.3580   -0.4690 c3        1 A5T     -0.082400
     33 C8          5.6000   -0.4660   -0.5080 c3        1 A5T      0.128400
     34 O5          6.6780    0.4880   -0.6070 os        1 A5T     -0.325900
     35 C3          7.9260   -0.1030   -0.6610 ca        1 A5T      0.089100
     36 C6          8.3950   -0.6210   -1.8920 ca        1 A5T      0.102900
     37 F1          7.5780   -0.6510   -2.9690 f         1 A5T     -0.124900
     38 C2          8.7650   -0.0860    0.4660 ca        1 A5T     -0.014600
     39 CL11        8.2030    0.5150    1.9470 cl        1 A5T     -0.039400
     40 C4         10.0870   -0.5730    0.3430 ca        1 A5T      0.127900
     41 F2         10.9320   -0.5670    1.4000 f         1 A5T     -0.120900
     42 C7         10.5460   -1.0780   -0.8880 ca        1 A5T     -0.143000
     43 C9          9.7110   -1.1050   -1.9940 ca        1 A5T     -0.133000
     44 H38        -8.6170   -3.1510   -2.1770 ha        1 A5T      0.151000
     45 H37        -6.2140   -2.9190   -2.8120 ha        1 A5T      0.143000
     46 H34        -4.6690   -1.5740   -1.4210 ha        1 A5T      0.167000
     47 H29        -5.6300    0.8850    0.7890 h1        1 A5T      0.073200
     48 H29A       -5.4790   -0.4860    1.9860 h1        1 A5T      0.073200
     49 H28        -3.7420   -1.9370    1.9060 h1        1 A5T      0.091700
     50 H31        -2.7390   -3.5110    0.2070 hc        1 A5T      0.079700
     51 H31A       -2.5760   -2.1720   -1.0340 hc        1 A5T      0.079700
     52 H30        -1.0930   -0.8380    0.5550 hc        1 A5T      0.079700
     53 H30A       -1.2280   -2.1580    1.8190 hc        1 A5T      0.079700
     54 H23        -5.0960    2.5130   -0.4370 h1        1 A5T      0.071700
     55 HN27       -3.7120    4.1280   -1.5100 hn        1 A5T      0.363800
     56 H24        -2.5380    5.8290   -0.3450 h1        1 A5T      0.066700
     57 H21        -0.8870    4.2650   -0.8200 hc        1 A5T      0.066200
     58 H21A       -0.8620    4.1500    0.9860 hc        1 A5T      0.066200
     59 H          -5.5820    3.5630    1.6320 h1        1 A5T      0.043700
     60 HA         -4.5540    2.1180    2.0780 h1        1 A5T      0.043700
     61 HNB        -3.9540    4.1770    3.2130 hn        1 A5T      0.365800
     62 HAA        -2.2090    5.4960    2.1590 h1        1 A5T      0.035700
     63 HAB        -3.8940    5.9490    1.6400 h1        1 A5T      0.035700
     64 H16        -0.9370    0.9480   -2.1170 ha        1 A5T      0.148500
     65 H14         1.1960   -0.3240   -2.2670 ha        1 A5T      0.135500
     66 H17         0.1070    2.2180    1.8860 ha        1 A5T      0.148500
     67 H15         2.2280    0.9220    1.7420 ha        1 A5T      0.135500
     68 H12         3.2220   -1.1890    0.5710 hc        1 A5T      0.050200
     69 H12A        3.0940   -1.2510   -1.2320 hc        1 A5T      0.050200
     70 H10         4.2550    0.9790   -1.4000 hc        1 A5T      0.063700
     71 H10A        4.3630    1.0650    0.4010 hc        1 A5T      0.063700
     72 H8          5.7270   -1.0690    0.4280 h1        1 A5T      0.042200
     73 H8A         5.6270   -1.1410   -1.4030 h1        1 A5T      0.042200
     74 H7         11.5790   -1.4520   -0.9600 ha        1 A5T      0.161000
     75 H9         10.0690   -1.5000   -2.9570 ha        1 A5T      0.160000
@<TRIPOS>BOND
     1    1    2 1   
     2    2    3 ar  
     3    2    5 ar  
     4    3    4 1   
     5    3    8 ar  
     6    5    6 ar  
     7    5   44 1   
     8    6    7 ar  
     9    6   45 1   
    10    7    8 ar  
    11    7   46 1   
    12    8    9 1   
    13    9   10 1   
    14    9   47 1   
    15    9   48 1   
    16   10   11 1   
    17   10   14 1   
    18   11   12 1   
    19   11   13 1   
    20   11   49 1   
    21   12   13 1   
    22   12   50 1   
    23   12   51 1   
    24   13   52 1   
    25   13   53 1   
    26   14   15 2   
    27   14   16 1   
    28   16   17 1   
    29   16   24 2   
    30   17   18 1   
    31   17   21 1   
    32   17   54 1   
    33   18   19 1   
    34   18   55 1   
    35   19   20 1   
    36   19   23 1   
    37   19   56 1   
    38   20   24 1   
    39   20   57 1   
    40   20   58 1   
    41   21   22 1   
    42   21   59 1   
    43   21   60 1   
    44   22   23 1   
    45   22   61 1   
    46   23   62 1   
    47   23   63 1   
    48   24   25 1   
    49   25   26 ar  
    50   25   28 ar  
    51   26   27 ar  
    52   26   64 1   
    53   27   30 ar  
    54   27   65 1   
    55   28   29 ar  
    56   28   66 1   
    57   29   30 ar  
    58   29   67 1   
    59   30   31 1   
    60   31   32 1   
    61   31   68 1   
    62   31   69 1   
    63   32   33 1   
    64   32   70 1   
    65   32   71 1   
    66   33   34 1   
    67   33   72 1   
    68   33   73 1   
    69   34   35 1   
    70   35   36 ar  
    71   35   38 ar  
    72   36   37 1   
    73   36   43 ar  
    74   38   39 1   
    75   38   40 ar  
    76   40   41 1   
    77   40   42 ar  
    78   42   43 ar  
    79   42   74 1   
    80   43   75 1   
@<TRIPOS>SUBSTRUCTURE
     1 A5T         1 TEMP              0 ****  ****    0 ROOT
