@<TRIPOS>MOLECULE
A5T
   76    81     1     0     0
SMALL
bcc


@<TRIPOS>ATOM
      1 CLA        -0.8620   -0.2770   -0.3100 cl        1 A5T     -0.019400
      2 C36         0.8260   -0.2620   -0.3650 ca        1 A5T      0.026400
      3 C33         1.5900   -0.2890    0.8110 ca        1 A5T      0.022400
      4 CLR3        0.8160   -0.3320    2.3250 cl        1 A5T     -0.072400
      5 C38         1.4680   -0.2220   -1.6110 ca        1 A5T     -0.078000
      6 C37         2.8580   -0.2090   -1.6790 ca        1 A5T     -0.105000
      7 C34         3.6190   -0.2390   -0.5110 ca        1 A5T     -0.089000
      8 C32         2.9940   -0.2750    0.7390 ca        1 A5T     -0.152300
      9 C29         3.8400   -0.2290    1.9690 c3        1 A5T      0.172100
     10 N26         3.7950   -1.5020    2.7720 n4        1 A5T     -0.562200
     11 C28         4.1570   -1.2600    4.1790 cx        1 A5T      0.004500
     12 C31         3.2860   -0.4040    5.0780 cx        1 A5T     -0.105400
     13 C30         3.3510   -1.8820    5.3020 cx        1 A5T     -0.105400
     14 C22         4.6660   -2.5870    2.1350 c         1 A5T      0.597300
     15 O25         4.0560   -3.3080    1.3570 o         1 A5T     -0.428100
     16 C20         6.0880   -2.6610    2.4900 ce        1 A5T     -0.291400
     17 C23         7.0340   -1.7040    1.7860 c3        1 A5T      0.221700
     18 N27         8.2990   -2.3580    1.4560 n3        1 A5T     -0.774200
     19 C24         8.9190   -2.8280    2.6960 c3        1 A5T      0.155500
     20 C21         8.0480   -3.8380    3.4640 c3        1 A5T     -0.094200
     21 C           7.3310   -0.4570    2.6730 c3        1 A5T      0.165800
     22 NB          8.0830   -0.7870    3.8670 n3        1 A5T     -0.830200
     23 CA          9.2480   -1.6170    3.6090 c3        1 A5T      0.159800
     24 C19         6.5770   -3.6470    3.2830 cf        1 A5T      0.118600
     25 C18         5.7480   -4.6260    3.9900 ca        1 A5T     -0.146800
     26 C16         4.9170   -5.5080    3.2870 ca        1 A5T     -0.108000
     27 C14         4.1830   -6.4760    3.9690 ca        1 A5T     -0.126500
     28 C17         5.8310   -4.7280    5.3870 ca        1 A5T     -0.108000
     29 C15         5.0890   -5.6900    6.0650 ca        1 A5T     -0.126500
     30 C13         4.2630   -6.5780    5.3630 ca        1 A5T     -0.041300
     31 C12         3.4860   -7.6150    6.0950 c3        1 A5T     -0.046100
     32 C10         4.3950   -8.6900    6.6580 c3        1 A5T     -0.082400
     33 C8          3.5790   -9.7170    7.4220 c3        1 A5T      0.128400
     34 O5          4.5400  -10.6460    7.9580 os        1 A5T     -0.324900
     35 C3          3.9590  -11.6800    8.6730 ca        1 A5T      0.078100
     36 C6          3.4490  -12.7990    7.9730 ca        1 A5T      0.104900
     37 F1          3.4110  -12.7900    6.6210 f         1 A5T     -0.125900
     38 C2          3.9810  -11.6690   10.0770 ca        1 A5T     -0.013600
     39 CL11        4.5720  -10.3210   10.9170 cl        1 A5T     -0.042400
     40 C4          3.5100  -12.8030   10.7770 ca        1 A5T      0.132900
     41 F2          3.5210  -12.8410   12.1290 f         1 A5T     -0.115900
     42 C7          3.0150  -13.9170   10.0710 ca        1 A5T     -0.137000
     43 C9          2.9810  -13.9170    8.6850 ca        1 A5T     -0.129000
     44 H38         0.8670   -0.1980   -2.5370 ha        1 A5T      0.176000
     45 H37         3.3590   -0.1760   -2.6610 ha        1 A5T      0.166000
     46 H34         4.7190   -0.2260   -0.5790 ha        1 A5T      0.146000
     47 H29         3.4880    0.6090    2.6430 hx        1 A5T      0.110200
     48 H29A        4.9160   -0.0320    1.6920 hx        1 A5T      0.110200
     49 H28         5.2670   -1.1950    4.2940 hx        1 A5T      0.161700
     50 H31         2.3490    0.0360    4.6880 hc        1 A5T      0.105700
     51 H31A        3.8000    0.2820    5.7780 hc        1 A5T      0.105700
     52 H30         3.9150   -2.2870    6.1650 hc        1 A5T      0.105700
     53 H30A        2.4620   -2.4990    5.0720 hc        1 A5T      0.105700
     54 H23         6.5640   -1.3470    0.8250 h1        1 A5T      0.064700
     55 HN27        8.1500   -3.1230    0.8230 hn        1 A5T      0.378800
     56 H24         9.8960   -3.3240    2.4270 h1        1 A5T      0.092700
     57 H21         8.2890   -3.7860    4.5610 hc        1 A5T      0.090700
     58 H21A        8.2960   -4.8810    3.1210 hc        1 A5T      0.090700
     59 H           7.8590    0.2960    2.0170 h1        1 A5T      0.036200
     60 HA          6.3630    0.0040    3.0100 h1        1 A5T      0.036200
     61 HNB         8.3640    0.0560    4.3360 hn        1 A5T      0.378800
     62 HAA         9.6170   -2.0000    4.6010 h1        1 A5T      0.056200
     63 HAB        10.0870   -1.0370    3.1260 h1        1 A5T      0.056200
     64 H16         4.8530   -5.4500    2.1880 ha        1 A5T      0.145000
     65 H14         3.5450   -7.1730    3.4030 ha        1 A5T      0.152000
     66 H17         6.4890   -4.0470    5.9500 ha        1 A5T      0.145000
     67 H15         5.1620   -5.7660    7.1620 ha        1 A5T      0.152000
     68 H12         2.9180   -7.1280    6.9340 hc        1 A5T      0.059200
     69 H12A        2.7300   -8.0870    5.4100 hc        1 A5T      0.059200
     70 H10         4.9540   -9.2020    5.8320 hc        1 A5T      0.065700
     71 H10A        5.1570   -8.2350    7.3440 hc        1 A5T      0.065700
     72 H8          2.8730  -10.2670    6.7470 h1        1 A5T      0.044700
     73 H8A         3.0100   -9.2450    8.2650 h1        1 A5T      0.044700
     74 H7          2.6550  -14.7910   10.6380 ha        1 A5T      0.167000
     75 H9          2.5940  -14.7880    8.1330 ha        1 A5T      0.165000
     76 H261        2.8190   -1.8450    2.7410 hn        1 A5T      0.454800
@<TRIPOS>BOND
     1    1    2 1   
     2    2    3 ar  
     3    2    5 ar  
     4    3    4 1   
     5    3    8 ar  
     6    5    6 ar  
     7    5   44 1   
     8    6    7 ar  
     9    6   45 1   
    10    7    8 ar  
    11    7   46 1   
    12    8    9 1   
    13    9   10 1   
    14    9   47 1   
    15    9   48 1   
    16   10   11 1   
    17   10   14 1   
    18   10   76 1   
    19   11   12 1   
    20   11   13 1   
    21   11   49 1   
    22   12   13 1   
    23   12   50 1   
    24   12   51 1   
    25   13   52 1   
    26   13   53 1   
    27   14   15 2   
    28   14   16 1   
    29   16   17 1   
    30   16   24 2   
    31   17   18 1   
    32   17   21 1   
    33   17   54 1   
    34   18   19 1   
    35   18   55 1   
    36   19   20 1   
    37   19   23 1   
    38   19   56 1   
    39   20   24 1   
    40   20   57 1   
    41   20   58 1   
    42   21   22 1   
    43   21   59 1   
    44   21   60 1   
    45   22   23 1   
    46   22   61 1   
    47   23   62 1   
    48   23   63 1   
    49   24   25 1   
    50   25   26 ar  
    51   25   28 ar  
    52   26   27 ar  
    53   26   64 1   
    54   27   30 ar  
    55   27   65 1   
    56   28   29 ar  
    57   28   66 1   
    58   29   30 ar  
    59   29   67 1   
    60   30   31 1   
    61   31   32 1   
    62   31   68 1   
    63   31   69 1   
    64   32   33 1   
    65   32   70 1   
    66   32   71 1   
    67   33   34 1   
    68   33   72 1   
    69   33   73 1   
    70   34   35 1   
    71   35   36 ar  
    72   35   38 ar  
    73   36   37 1   
    74   36   43 ar  
    75   38   39 1   
    76   38   40 ar  
    77   40   41 1   
    78   40   42 ar  
    79   42   43 ar  
    80   42   74 1   
    81   43   75 1   
@<TRIPOS>SUBSTRUCTURE
     1 A5T         1 TEMP              0 ****  ****    0 ROOT
