@<TRIPOS>MOLECULE
A5T
   76    81     1     0     0
SMALL
bcc


@<TRIPOS>ATOM
      1 ClA        -0.8200   -0.1770   -0.3240 cl        1 A5T     -0.019400
      2 C36         0.8680   -0.1980   -0.3680 ca        1 A5T      0.026400
      3 C33         1.6240   -0.2320    0.8140 ca        1 A5T      0.023400
      4 ClR3        0.8400   -0.2500    2.3230 cl        1 A5T     -0.071400
      5 C38         1.5190   -0.1810   -1.6100 ca        1 A5T     -0.078000
      6 C37         2.9090   -0.1990   -1.6690 ca        1 A5T     -0.105000
      7 C34         3.6620   -0.2350   -0.4960 ca        1 A5T     -0.089000
      8 C32         3.0280   -0.2470    0.7500 ca        1 A5T     -0.152300
      9 C29         3.8660   -0.2110    1.9870 c3        1 A5T      0.173100
     10 N26         3.8070   -1.4890    2.7800 nx        1 A5T     -0.565200
     11 C28         4.1570   -1.2610    4.1930 cx        1 A5T      0.004500
     12 C31         3.2840   -0.4060    5.0900 cx        1 A5T     -0.104900
     13 C30         3.3330   -1.8860    5.3020 cx        1 A5T     -0.104900
     14 C22         4.6790   -2.5780    2.1440 c         1 A5T      0.598300
     15 O25         4.0640   -3.3020    1.3760 o         1 A5T     -0.420100
     16 C20         6.1000   -2.6530    2.5060 ce        1 A5T     -0.244400
     17 C23         7.0410   -1.6890    1.8150 c3        1 A5T      0.220700
     18 N27         8.2710   -2.4040    1.4640 n7        1 A5T     -0.777200
     19 C24         8.9250   -2.8380    2.7000 c3        1 A5T      0.155500
     20 C21         8.0540   -3.8620    3.4430 c3        1 A5T     -0.049200
     21 C           7.3420   -0.4560    2.7240 c3        1 A5T      0.122800
     22 NB          8.0980   -0.8140    3.9070 n7        1 A5T     -0.828200
     23 CA          9.2580   -1.6450    3.6400 c3        1 A5T      0.118800
     24 C19         6.5840   -3.6560    3.2790 cf        1 A5T      0.130600
     25 C18         5.7500   -4.6370    3.9790 ca        1 A5T     -0.146800
     26 C16         4.9310   -5.5230    3.2670 ca        1 A5T     -0.107500
     27 C14         4.1940   -6.4940    3.9420 ca        1 A5T     -0.127500
     28 C17         5.8190   -4.7370    5.3760 ca        1 A5T     -0.107500
     29 C15         5.0740   -5.7020    6.0470 ca        1 A5T     -0.127500
     30 C13         4.2590   -6.5930    5.3360 ca        1 A5T     -0.042300
     31 C12         3.4770   -7.6330    6.0610 c3        1 A5T     -0.046100
     32 C10         4.3840   -8.7000    6.6430 c3        1 A5T     -0.082400
     33 C8          3.5620   -9.7280    7.3990 c3        1 A5T      0.128400
     34 O5          4.5210  -10.6440    7.9620 os        1 A5T     -0.324900
     35 C3          3.9360  -11.6790    8.6710 ca        1 A5T      0.078100
     36 C6          3.4500  -12.8070    7.9690 ca        1 A5T      0.104900
     37 F1          3.4400  -12.8080    6.6170 f         1 A5T     -0.125900
     38 C2          3.9300  -11.6580   10.0760 ca        1 A5T     -0.013600
     39 Cl11        4.4910  -10.2990   10.9180 cl        1 A5T     -0.043400
     40 C4          3.4550  -12.7920   10.7740 ca        1 A5T      0.131900
     41 F2          3.4390  -12.8200   12.1260 f         1 A5T     -0.115900
     42 C7          2.9850  -13.9150   10.0660 ca        1 A5T     -0.137000
     43 C9          2.9790  -13.9250    8.6800 ca        1 A5T     -0.129000
     44 H38         0.9240   -0.1530   -2.5390 ha        1 A5T      0.176000
     45 H37         3.4170   -0.1860   -2.6470 ha        1 A5T      0.166000
     46 H34         4.7620   -0.2480   -0.5560 ha        1 A5T      0.145000
     47 H29         4.9440   -0.0200    1.7200 hx        1 A5T      0.108200
     48 H29A        3.5130    0.6250    2.6630 hx        1 A5T      0.108200
     49 H28         5.2660   -1.2090    4.3190 hx        1 A5T      0.160700
     50 H31         2.3550    0.0480    4.6950 hc        1 A5T      0.105450
     51 H31A        3.7980    0.2700    5.8010 hc        1 A5T      0.105450
     52 H30         2.4400   -2.4920    5.0580 hc        1 A5T      0.105450
     53 H30A        3.8850   -2.3040    6.1670 hc        1 A5T      0.105450
     54 H23         6.5720   -1.3150    0.8600 h1        1 A5T      0.063700
     55 HN27        8.8800   -1.8010    0.9410 hn        1 A5T      0.378800
     56 H24         9.8990   -3.3340    2.4200 h1        1 A5T      0.091700
     57 H21         8.2890   -4.8920    3.0510 hc        1 A5T      0.090700
     58 H21A        8.3110   -3.8510    4.5370 hc        1 A5T      0.090700
     59 H           6.3820    0.0110    3.0760 h1        1 A5T      0.032700
     60 HA          7.8700    0.3100    2.0820 h1        1 A5T      0.032700
     61 HNB         8.3760    0.0150    4.4020 hn        1 A5T      0.380800
     62 HAA        10.1040   -1.0610    3.1730 h1        1 A5T      0.052200
     63 HAB         9.6230   -2.0420    4.6270 h1        1 A5T      0.052200
     64 H16         4.8820   -5.4660    2.1670 ha        1 A5T      0.146000
     65 H14         3.5650   -7.1940    3.3690 ha        1 A5T      0.151500
     66 H17         6.4700   -4.0550    5.9450 ha        1 A5T      0.146000
     67 H15         5.1360   -5.7780    7.1440 ha        1 A5T      0.151500
     68 H12         2.7350   -8.1120    5.3670 hc        1 A5T      0.058200
     69 H12A        2.8940   -7.1450    6.8880 hc        1 A5T      0.058200
     70 H10         5.1320   -8.2360    7.3390 hc        1 A5T      0.065700
     71 H10A        4.9600   -9.2110    5.8280 hc        1 A5T      0.065700
     72 H8          2.9730   -9.2560    8.2260 h1        1 A5T      0.044700
     73 H8A         2.8760  -10.2900    6.7130 h1        1 A5T      0.044700
     74 H7          2.6220  -14.7880   10.6310 ha        1 A5T      0.167000
     75 H9          2.6120  -14.8030    8.1260 ha        1 A5T      0.165000
     76 H261        2.8290   -1.8270    2.7370 hn        1 A5T      0.453800
@<TRIPOS>BOND
     1    1    2 1   
     2    2    3 ar  
     3    2    5 ar  
     4    3    4 1   
     5    3    8 ar  
     6    5    6 ar  
     7    5   44 1   
     8    6    7 ar  
     9    6   45 1   
    10    7    8 ar  
    11    7   46 1   
    12    8    9 1   
    13    9   10 1   
    14    9   47 1   
    15    9   48 1   
    16   10   11 1   
    17   10   14 1   
    18   10   76 1   
    19   11   12 1   
    20   11   13 1   
    21   11   49 1   
    22   12   13 1   
    23   12   50 1   
    24   12   51 1   
    25   13   52 1   
    26   13   53 1   
    27   14   15 2   
    28   14   16 1   
    29   16   17 1   
    30   16   24 2   
    31   17   18 1   
    32   17   21 1   
    33   17   54 1   
    34   18   19 1   
    35   18   55 1   
    36   19   20 1   
    37   19   23 1   
    38   19   56 1   
    39   20   24 1   
    40   20   57 1   
    41   20   58 1   
    42   21   22 1   
    43   21   59 1   
    44   21   60 1   
    45   22   23 1   
    46   22   61 1   
    47   23   62 1   
    48   23   63 1   
    49   24   25 1   
    50   25   26 ar  
    51   25   28 ar  
    52   26   27 ar  
    53   26   64 1   
    54   27   30 ar  
    55   27   65 1   
    56   28   29 ar  
    57   28   66 1   
    58   29   30 ar  
    59   29   67 1   
    60   30   31 1   
    61   31   32 1   
    62   31   68 1   
    63   31   69 1   
    64   32   33 1   
    65   32   70 1   
    66   32   71 1   
    67   33   34 1   
    68   33   72 1   
    69   33   73 1   
    70   34   35 1   
    71   35   36 ar  
    72   35   38 ar  
    73   36   37 1   
    74   36   43 ar  
    75   38   39 1   
    76   38   40 ar  
    77   40   41 1   
    78   40   42 ar  
    79   42   43 ar  
    80   42   74 1   
    81   43   75 1   
@<TRIPOS>SUBSTRUCTURE
     1 A5T         1 TEMP              0 ****  ****    0 ROOT
