@<TRIPOS>MOLECULE
A5T
   76    81     1     0     0
SMALL
bcc


@<TRIPOS>ATOM
      1 CLA        -0.8290   -0.2220   -0.3550 cl        1 A5T     -0.019400
      2 C36         0.8600   -0.2330   -0.3920 ca        1 A5T      0.026400
      3 C33         1.6110   -0.2590    0.7930 ca        1 A5T      0.023400
      4 CLR3        0.8210   -0.2790    2.2980 cl        1 A5T     -0.071400
      5 C38         1.5160   -0.2140   -1.6320 ca        1 A5T     -0.078000
      6 C37         2.9060   -0.2230   -1.6850 ca        1 A5T     -0.105000
      7 C34         3.6540   -0.2520   -0.5090 ca        1 A5T     -0.089000
      8 C32         3.0150   -0.2660    0.7350 ca        1 A5T     -0.152300
      9 C29         3.8480   -0.2220    1.9750 c3        1 A5T      0.173100
     10 N26         3.7940   -1.4980    2.7710 n4        1 A5T     -0.565200
     11 C28         4.1360   -1.2650    4.1840 cx        1 A5T      0.004500
     12 C31         3.2550   -0.4130    5.0770 cx        1 A5T     -0.104900
     13 C30         3.3120   -1.8930    5.2920 cx        1 A5T     -0.104900
     14 C22         4.6760   -2.5830    2.1400 c         1 A5T      0.598300
     15 O25         4.0680   -3.3130    1.3710 o         1 A5T     -0.420100
     16 C20         6.0960   -2.6480    2.5080 ce        1 A5T     -0.244400
     17 C23         7.0330   -1.6790    1.8200 c3        1 A5T      0.220700
     18 N27         8.2690   -2.3880    1.4750 n3        1 A5T     -0.777200
     19 C24         8.9210   -2.8140    2.7140 c3        1 A5T      0.155500
     20 C21         8.0540   -3.8430    3.4560 c3        1 A5T     -0.049200
     21 C           7.3230   -0.4430    2.7270 c3        1 A5T      0.122800
     22 NB          8.0760   -0.7930    3.9130 n3        1 A5T     -0.828200
     23 CA          9.2420   -1.6180    3.6530 c3        1 A5T      0.118800
     24 C19         6.5830   -3.6470    3.2850 cf        1 A5T      0.130600
     25 C18         5.7520   -4.6310    3.9840 ca        1 A5T     -0.146800
     26 C16         4.9420   -5.5240    3.2700 ca        1 A5T     -0.107500
     27 C14         4.2080   -6.4980    3.9440 ca        1 A5T     -0.127500
     28 C17         5.8170   -4.7290    5.3820 ca        1 A5T     -0.107500
     29 C15         5.0740   -5.6960    6.0510 ca        1 A5T     -0.127500
     30 C13         4.2680   -6.5950    5.3390 ca        1 A5T     -0.042300
     31 C12         3.4900   -7.6380    6.0620 c3        1 A5T     -0.046100
     32 C10         4.4010   -8.6990    6.6470 c3        1 A5T     -0.082400
     33 C8          3.5830   -9.7320    7.4020 c3        1 A5T      0.128400
     34 O5          4.5460  -10.6430    7.9650 os        1 A5T     -0.324900
     35 C3          3.9640  -11.6810    8.6740 ca        1 A5T      0.078100
     36 C6          3.4840  -12.8100    7.9710 ca        1 A5T      0.104900
     37 F1          3.4740  -12.8110    6.6190 f         1 A5T     -0.125900
     38 C2          3.9570  -11.6610   10.0790 ca        1 A5T     -0.013600
     39 CL11        4.5120  -10.3000   10.9220 cl        1 A5T     -0.043400
     40 C4          3.4870  -12.7970   10.7760 ca        1 A5T      0.131900
     41 F2          3.4700  -12.8260   12.1280 f         1 A5T     -0.115900
     42 C7          3.0220  -13.9220   10.0670 ca        1 A5T     -0.137000
     43 C9          3.0160  -13.9310    8.6810 ca        1 A5T     -0.129000
     44 H38         0.9250   -0.1920   -2.5640 ha        1 A5T      0.176000
     45 H37         3.4180   -0.2090   -2.6610 ha        1 A5T      0.166000
     46 H34         4.7550   -0.2580   -0.5640 ha        1 A5T      0.145000
     47 H29         4.9260   -0.0240    1.7120 hx        1 A5T      0.108200
     48 H29A        3.4870    0.6140    2.6470 hx        1 A5T      0.108200
     49 H28         5.2440   -1.2060    4.3150 hx        1 A5T      0.160700
     50 H31         2.3250    0.0330    4.6770 hc        1 A5T      0.105450
     51 H31A        3.7620    0.2670    5.7880 hc        1 A5T      0.105450
     52 H30         3.8630   -2.3050    6.1600 hc        1 A5T      0.105450
     53 H30A        2.4240   -2.5050    5.0450 hc        1 A5T      0.105450
     54 H23         6.5650   -1.3100    0.8620 h1        1 A5T      0.063700
     55 HN27        8.8770   -1.7810    0.9530 hn        1 A5T      0.378800
     56 H24         9.8990   -3.3050    2.4400 h1        1 A5T      0.091700
     57 H21         8.3060   -3.8270    4.5510 hc        1 A5T      0.090700
     58 H21A        8.2970   -4.8720    3.0670 hc        1 A5T      0.090700
     59 H           6.3590    0.0190    3.0740 h1        1 A5T      0.032700
     60 HA          7.8490    0.3250    2.0850 h1        1 A5T      0.032700
     61 HNB         8.3460    0.0380    4.4080 hn        1 A5T      0.380800
     62 HAA        10.0870   -1.0290    3.1890 h1        1 A5T      0.052200
     63 HAB         9.6050   -2.0100    4.6430 h1        1 A5T      0.052200
     64 H16         4.8960   -5.4690    2.1700 ha        1 A5T      0.146000
     65 H14         3.5860   -7.2030    3.3710 ha        1 A5T      0.151500
     66 H17         6.4600   -4.0410    5.9520 ha        1 A5T      0.146000
     67 H15         5.1320   -5.7700    7.1490 ha        1 A5T      0.151500
     68 H12         2.9020   -7.1520    6.8880 hc        1 A5T      0.058200
     69 H12A        2.7520   -8.1210    5.3670 hc        1 A5T      0.058200
     70 H10         4.9810   -9.2080    5.8340 hc        1 A5T      0.065700
     71 H10A        5.1450   -8.2310    7.3450 hc        1 A5T      0.065700
     72 H8          2.9000  -10.2960    6.7150 h1        1 A5T      0.044700
     73 H8A         2.9900   -9.2620    8.2290 h1        1 A5T      0.044700
     74 H7          2.6620  -14.7970   10.6320 ha        1 A5T      0.167000
     75 H9          2.6530  -14.8100    8.1270 ha        1 A5T      0.165000
     76 H261        2.8190   -1.8430    2.7240 hn        1 A5T      0.453800
@<TRIPOS>BOND
     1    1    2 1   
     2    2    3 ar  
     3    2    5 ar  
     4    3    4 1   
     5    3    8 ar  
     6    5    6 ar  
     7    5   44 1   
     8    6    7 ar  
     9    6   45 1   
    10    7    8 ar  
    11    7   46 1   
    12    8    9 1   
    13    9   10 1   
    14    9   47 1   
    15    9   48 1   
    16   10   11 1   
    17   10   14 1   
    18   10   76 1   
    19   11   12 1   
    20   11   13 1   
    21   11   49 1   
    22   12   13 1   
    23   12   50 1   
    24   12   51 1   
    25   13   52 1   
    26   13   53 1   
    27   14   15 2   
    28   14   16 1   
    29   16   17 1   
    30   16   24 2   
    31   17   18 1   
    32   17   21 1   
    33   17   54 1   
    34   18   19 1   
    35   18   55 1   
    36   19   20 1   
    37   19   23 1   
    38   19   56 1   
    39   20   24 1   
    40   20   57 1   
    41   20   58 1   
    42   21   22 1   
    43   21   59 1   
    44   21   60 1   
    45   22   23 1   
    46   22   61 1   
    47   23   62 1   
    48   23   63 1   
    49   24   25 1   
    50   25   26 ar  
    51   25   28 ar  
    52   26   27 ar  
    53   26   64 1   
    54   27   30 ar  
    55   27   65 1   
    56   28   29 ar  
    57   28   66 1   
    58   29   30 ar  
    59   29   67 1   
    60   30   31 1   
    61   31   32 1   
    62   31   68 1   
    63   31   69 1   
    64   32   33 1   
    65   32   70 1   
    66   32   71 1   
    67   33   34 1   
    68   33   72 1   
    69   33   73 1   
    70   34   35 1   
    71   35   36 ar  
    72   35   38 ar  
    73   36   37 1   
    74   36   43 ar  
    75   38   39 1   
    76   38   40 ar  
    77   40   41 1   
    78   40   42 ar  
    79   42   43 ar  
    80   42   74 1   
    81   43   75 1   
@<TRIPOS>SUBSTRUCTURE
     1 A5T         1 TEMP              0 ****  ****    0 ROOT
