@<TRIPOS>MOLECULE
A5V
   45    46     1     0     0
SMALL
bcc


@<TRIPOS>ATOM
      1 O           0.1850    0.2690    0.0600 oh        1 A5V     -0.628800
      2 C2          1.5920    0.0680   -0.0120 c3        1 A5V      0.208400
      3 C1          2.0880    0.0370    1.4420 c3        1 A5V     -0.113400
      4 C           1.6610    1.3230    2.1320 c3        1 A5V      0.098800
      5 N           1.9080    1.2930    3.6050 nz        1 A5V     -0.838600
      6 C3          1.9750   -1.2030   -0.7080 ca        1 A5V     -0.130300
      7 C15         3.1410   -1.2370   -1.4690 ca        1 A5V     -0.149000
      8 C7          3.5020   -2.4320   -2.1240 ca        1 A5V      0.146100
      9 C6          2.6960   -3.5730   -2.0180 ca        1 A5V     -0.184000
     10 C5          1.5310   -3.5160   -1.2540 ca        1 A5V     -0.081000
     11 C4          1.1680   -2.3420   -0.5980 ca        1 A5V     -0.164000
     12 O1          4.6770   -2.3590   -2.8330 os        1 A5V     -0.325900
     13 C8          5.0350   -3.5300   -3.5880 c3        1 A5V      0.127400
     14 C9          6.3190   -3.1760   -4.3310 c3        1 A5V     -0.067700
     15 C14         6.0270   -2.2570   -5.5080 c3        1 A5V     -0.073900
     16 C13         7.2930   -1.9440   -6.2780 c3        1 A5V     -0.075900
     17 C12         7.9830   -3.2110   -6.7400 c3        1 A5V     -0.079400
     18 C11         8.2610   -4.1400   -5.5760 c3        1 A5V     -0.075900
     19 C10         6.9970   -4.4540   -4.8020 c3        1 A5V     -0.073900
     20 H1         -0.2020   -0.0520   -0.7650 ho        1 A5V      0.443000
     21 H2          2.0440    0.9540   -0.5460 h1        1 A5V      0.058700
     22 H3          1.6410   -0.8590    1.9480 hc        1 A5V      0.079700
     23 H4          3.2030   -0.0710    1.4370 hc        1 A5V      0.079700
     24 H5          0.5520    1.4890    1.9700 hx        1 A5V      0.124200
     25 H6          2.2250    2.2020    1.7060 hx        1 A5V      0.124200
     26 H7          1.3830    0.5220    4.0310 hn        1 A5V      0.459800
     27 H8          2.9050    1.1510    3.7940 hn        1 A5V      0.459800
     28 H10         3.7830   -0.3510   -1.5800 ha        1 A5V      0.151000
     29 H11         2.9670   -4.5080   -2.5290 ha        1 A5V      0.154000
     30 H12         0.8920   -4.4090   -1.1720 ha        1 A5V      0.148000
     31 H13         0.2460   -2.3040    0.0020 ha        1 A5V      0.138000
     32 H14         5.2050   -4.3820   -2.8780 h1        1 A5V      0.046200
     33 H15         4.2070   -3.7840   -4.3000 h1        1 A5V      0.046200
     34 H16         7.0060   -2.6380   -3.6180 hc        1 A5V      0.067700
     35 H17         5.2840   -2.7470   -6.1910 hc        1 A5V      0.043200
     36 H18         5.5650   -1.3090   -5.1270 hc        1 A5V      0.043200
     37 H19         7.0400   -1.3080   -7.1670 hc        1 A5V      0.044450
     38 H20         7.9900   -1.3520   -5.6280 hc        1 A5V      0.044450
     39 H21         8.9470   -2.9490   -7.2480 hc        1 A5V      0.045700
     40 H22         7.3370   -3.7360   -7.4920 hc        1 A5V      0.045700
     41 H23         9.0110   -3.6660   -4.8900 hc        1 A5V      0.044450
     42 H24         8.7090   -5.0950   -5.9570 hc        1 A5V      0.044450
     43 H25         7.2490   -5.0960   -3.9180 hc        1 A5V      0.043200
     44 H26         6.2910   -5.0340   -5.4530 hc        1 A5V      0.043200
     45 HN3         1.6090    2.1760    4.0290 hn        1 A5V      0.459800
@<TRIPOS>BOND
     1    1    2 1   
     2    1   20 1   
     3    2    3 1   
     4    2    6 1   
     5    2   21 1   
     6    3    4 1   
     7    3   22 1   
     8    3   23 1   
     9    4    5 1   
    10    4   24 1   
    11    4   25 1   
    12    5   26 1   
    13    5   27 1   
    14    5   45 1   
    15    6    7 ar  
    16    6   11 ar  
    17    7    8 ar  
    18    7   28 1   
    19    8    9 ar  
    20    8   12 1   
    21    9   10 ar  
    22    9   29 1   
    23   10   11 ar  
    24   10   30 1   
    25   11   31 1   
    26   12   13 1   
    27   13   14 1   
    28   13   32 1   
    29   13   33 1   
    30   14   15 1   
    31   14   19 1   
    32   14   34 1   
    33   15   16 1   
    34   15   35 1   
    35   15   36 1   
    36   16   17 1   
    37   16   37 1   
    38   16   38 1   
    39   17   18 1   
    40   17   39 1   
    41   17   40 1   
    42   18   19 1   
    43   18   41 1   
    44   18   42 1   
    45   19   43 1   
    46   19   44 1   
@<TRIPOS>SUBSTRUCTURE
     1 A5V         1 TEMP              0 ****  ****    0 ROOT
