@<TRIPOS>MOLECULE
A5V
   45    46     1     0     0
SMALL
bcc


@<TRIPOS>ATOM
      1 O           0.1880    0.2710    0.0610 oh        1 A5V     -0.628800
      2 C2          1.5940    0.0680   -0.0100 c3        1 A5V      0.208400
      3 C1          2.0890    0.0350    1.4440 c3        1 A5V     -0.113400
      4 C           1.6630    1.3210    2.1360 c3        1 A5V      0.098800
      5 N           1.9090    1.2880    3.6090 n4        1 A5V     -0.838600
      6 C3          1.9760   -1.2030   -0.7070 ca        1 A5V     -0.130300
      7 C15         3.1420   -1.2370   -1.4680 ca        1 A5V     -0.149000
      8 C7          3.5020   -2.4310   -2.1240 ca        1 A5V      0.146100
      9 C6          2.6950   -3.5720   -2.0190 ca        1 A5V     -0.184000
     10 C5          1.5300   -3.5140   -1.2560 ca        1 A5V     -0.081000
     11 C4          1.1680   -2.3410   -0.5980 ca        1 A5V     -0.164000
     12 O1          4.6780   -2.3590   -2.8330 os        1 A5V     -0.325900
     13 C8          5.0340   -3.5300   -3.5890 c3        1 A5V      0.127400
     14 C9          6.3180   -3.1760   -4.3320 c3        1 A5V     -0.067700
     15 C14         6.0270   -2.2540   -5.5070 c3        1 A5V     -0.073900
     16 C13         7.2930   -1.9420   -6.2780 c3        1 A5V     -0.075900
     17 C12         7.9810   -3.2090   -6.7420 c3        1 A5V     -0.079400
     18 C11         8.2590   -4.1410   -5.5800 c3        1 A5V     -0.075900
     19 C10         6.9950   -4.4540   -4.8060 c3        1 A5V     -0.073900
     20 H1         -0.1990   -0.0500   -0.7640 ho        1 A5V      0.443000
     21 H2          2.0480    0.9540   -0.5430 h1        1 A5V      0.058700
     22 H3          1.6410   -0.8620    1.9480 hc        1 A5V      0.079700
     23 H4          3.2040   -0.0750    1.4400 hc        1 A5V      0.079700
     24 H5          0.5540    1.4880    1.9730 hx        1 A5V      0.124200
     25 H6          2.2280    2.2000    1.7120 hx        1 A5V      0.124200
     26 H7          1.6100    2.1710    4.0340 hn        1 A5V      0.459800
     27 H8          2.9060    1.1450    3.7990 hn        1 A5V      0.459800
     28 H10         3.7850   -0.3520   -1.5780 ha        1 A5V      0.151000
     29 H11         2.9650   -4.5070   -2.5310 ha        1 A5V      0.154000
     30 H12         0.8900   -4.4070   -1.1740 ha        1 A5V      0.148000
     31 H13         0.2460   -2.3030    0.0010 ha        1 A5V      0.138000
     32 H14         4.2060   -3.7810   -4.3020 h1        1 A5V      0.046200
     33 H15         5.2040   -4.3830   -2.8810 h1        1 A5V      0.046200
     34 H16         7.0060   -2.6400   -3.6190 hc        1 A5V      0.067700
     35 H17         5.5670   -1.3060   -5.1250 hc        1 A5V      0.043200
     36 H18         5.2840   -2.7420   -6.1910 hc        1 A5V      0.043200
     37 H19         7.0410   -1.3040   -7.1650 hc        1 A5V      0.044450
     38 H20         7.9920   -1.3520   -5.6270 hc        1 A5V      0.044450
     39 H21         8.9460   -2.9480   -7.2500 hc        1 A5V      0.045700
     40 H22         7.3340   -3.7320   -7.4940 hc        1 A5V      0.045700
     41 H23         9.0100   -3.6690   -4.8930 hc        1 A5V      0.044450
     42 H24         8.7050   -5.0960   -5.9620 hc        1 A5V      0.044450
     43 H25         6.2870   -5.0320   -5.4570 hc        1 A5V      0.043200
     44 H26         7.2460   -5.0980   -3.9220 hc        1 A5V      0.043200
     45 HN3         1.3830    0.5170    4.0330 hn        1 A5V      0.459800
@<TRIPOS>BOND
     1    1    2 1   
     2    1   20 1   
     3    2    3 1   
     4    2    6 1   
     5    2   21 1   
     6    3    4 1   
     7    3   22 1   
     8    3   23 1   
     9    4    5 1   
    10    4   24 1   
    11    4   25 1   
    12    5   26 1   
    13    5   27 1   
    14    5   45 1   
    15    6    7 ar  
    16    6   11 ar  
    17    7    8 ar  
    18    7   28 1   
    19    8    9 ar  
    20    8   12 1   
    21    9   10 ar  
    22    9   29 1   
    23   10   11 ar  
    24   10   30 1   
    25   11   31 1   
    26   12   13 1   
    27   13   14 1   
    28   13   32 1   
    29   13   33 1   
    30   14   15 1   
    31   14   19 1   
    32   14   34 1   
    33   15   16 1   
    34   15   35 1   
    35   15   36 1   
    36   16   17 1   
    37   16   37 1   
    38   16   38 1   
    39   17   18 1   
    40   17   39 1   
    41   17   40 1   
    42   18   19 1   
    43   18   41 1   
    44   18   42 1   
    45   19   43 1   
    46   19   44 1   
@<TRIPOS>SUBSTRUCTURE
     1 A5V         1 TEMP              0 ****  ****    0 ROOT
