@<TRIPOS>MOLECULE
A60
   83    85     1     0     0
SMALL
bcc


@<TRIPOS>ATOM
      1 N1          0.9750    2.7760   -1.6130 nh        1 A60     -0.770200
      2 C2          1.8290    2.0870   -0.8430 ca        1 A60      0.334600
      3 C3          1.4210    1.5360    0.4270 ca        1 A60     -0.234500
      4 C4          2.3040    0.8510    1.2050 ca        1 A60      0.072500
      5 C5          3.6710    0.6340    0.8260 ca        1 A60     -0.720500
      6 C6          4.0540    1.1730   -0.4480 ca        1 A60      0.072500
      7 C7          3.1960    1.8640   -1.2470 ca        1 A60     -0.234500
      8 S8          4.6600   -0.0650    1.7420 s4        1 A60      1.691300
      9 O9          5.9630   -0.1790    1.3710 o         1 A60     -0.452900
     10 O10         4.2940   -0.3200    3.0310 o         1 A60     -0.452900
     11 N11         4.3060   -2.6020    1.4450 n3        1 A60     -0.886200
     12 C12         3.9840   -3.2740    0.1850 c3        1 A60      0.136800
     13 C13         5.0100   -3.2870   -0.9540 c3        1 A60     -0.075700
     14 C14         5.7880   -1.9860   -1.0600 c3        1 A60     -0.073900
     15 C15         5.9490   -4.4830   -0.9330 c3        1 A60     -0.073900
     16 C16         5.3780   -3.1990    2.2270 c3        1 A60      0.115800
     17 C17         5.0020   -4.4970    2.9670 c3        1 A60      0.086100
     18 C18         5.2480   -5.8030   -1.1280 c3        1 A60     -0.106100
     19 O18         5.0650   -5.6620    2.1760 oh        1 A60     -0.603800
     20 C19         5.8870   -4.6840    4.2280 c3        1 A60      0.106500
     21 C20         6.3750   -1.7640   -2.4320 c3        1 A60     -0.106100
     22 N20         5.3780   -5.8630    5.0360 n4        1 A60     -0.639800
     23 C21         4.1360   -5.4990    5.7750 c         1 A60      0.616100
     24 O22         4.1380   -5.1260    6.9380 o         1 A60     -0.397000
     25 O23         3.0430   -5.6710    4.9970 os        1 A60     -0.405900
     26 C24         1.8740   -4.8530    5.3150 c3        1 A60      0.134100
     27 C25         2.2300   -3.3610    5.2090 c3        1 A60      0.094400
     28 O26         2.0110   -2.9660    3.8500 os        1 A60     -0.440600
     29 C27         1.0640   -3.8510    3.2500 c3        1 A60      0.315900
     30 O28         1.7330   -4.2750    2.0740 os        1 A60     -0.451600
     31 C29         1.7260   -5.7150    1.9920 c3        1 A60      0.116400
     32 C30         1.0980   -6.2780    3.2670 c3        1 A60     -0.100400
     33 C31         0.8640   -5.0800    4.1760 c3        1 A60     -0.110700
     34 C32         7.3640   -4.8910    3.8650 c3        1 A60     -0.051100
     35 C33         8.5320   -6.5200    5.3620 ca        1 A60     -0.133000
     36 C34         9.3390   -6.8040    6.4630 ca        1 A60     -0.108500
     37 C35         9.8140   -5.7660    7.2680 ca        1 A60     -0.089000
     38 C36         9.4840   -4.4440    6.9680 ca        1 A60     -0.108500
     39 C37         8.6780   -4.1570    5.8670 ca        1 A60     -0.133000
     40 C38         8.1940   -5.1930    5.0600 ca        1 A60     -0.171300
     41 HN1         0.0350    2.9350   -1.3230 hn        1 A60      0.471800
     42 HN1A        1.2680    3.1600   -2.4850 hn        1 A60      0.471800
     43 H3          0.3820    1.6820    0.7700 ha        1 A60      0.176500
     44 H4          1.9690    0.4480    2.1810 ha        1 A60      0.170000
     45 H6          5.1030    1.0280   -0.7780 ha        1 A60      0.170000
     46 H7          3.5460    2.2670   -2.2130 ha        1 A60      0.176500
     47 H12         3.0630   -2.7440   -0.2010 h1        1 A60      0.064200
     48 H12A        3.6810   -4.3440    0.3990 h1        1 A60      0.064200
     49 H13         4.3850   -3.3890   -1.8930 hc        1 A60      0.076700
     50 H14         5.0910   -1.1340   -0.8290 hc        1 A60      0.032700
     51 H14A        6.6060   -1.9610   -0.2910 hc        1 A60      0.032700
     52 H15         6.6930   -4.3520   -1.7690 hc        1 A60      0.032700
     53 H15A        6.5470   -4.4990    0.0140 hc        1 A60      0.032700
     54 H16         6.2690   -3.3790    1.5630 h1        1 A60      0.082200
     55 H16A        5.6750   -2.4330    3.0030 h1        1 A60      0.082200
     56 H17         3.9090   -4.4410    3.2840 h1        1 A60      0.115700
     57 H18         4.5950   -6.0600   -0.2570 hc        1 A60      0.047367
     58 H18A        6.0010   -6.6190   -1.2500 hc        1 A60      0.047367
     59 H18B        4.6110   -5.7790   -2.0460 hc        1 A60      0.047367
     60 HO18        5.7850   -5.5760    1.5330 ho        1 A60      0.437000
     61 H19         5.7920   -3.7740    4.8930 hx        1 A60      0.114700
     62 H20         5.5850   -1.8260   -3.2190 hc        1 A60      0.047367
     63 H20A        7.1610   -2.5230   -2.6630 hc        1 A60      0.047367
     64 H20B        6.8480   -0.7520   -2.4830 hc        1 A60      0.047367
     65 HN20        6.1090   -6.1460    5.7140 hn        1 A60      0.491300
     66 H24         1.5060   -5.1590    6.3270 h1        1 A60      0.123700
     67 H25         1.5630   -2.7510    5.8730 h1        1 A60      0.082700
     68 H25A        3.3030   -3.1410    5.4360 h1        1 A60      0.082700
     69 H27         0.1450   -3.2740    2.9770 h2        1 A60      0.112700
     70 H29         1.1370   -5.9810    1.0770 h1        1 A60      0.072700
     71 H29A        2.7960   -6.0280    1.8660 h1        1 A60      0.072700
     72 H30         1.7590   -7.0460    3.7380 hc        1 A60      0.083700
     73 H30A        0.1220   -6.7760    3.0330 hc        1 A60      0.083700
     74 H31        -0.1640   -5.1010    4.6210 hc        1 A60      0.117700
     75 H32         7.4570   -5.7130    3.1040 hc        1 A60      0.087200
     76 H32A        7.7150   -3.9380    3.3810 hc        1 A60      0.087200
     77 H35        10.4590   -5.9920    8.1330 ha        1 A60      0.166000
     78 H36         9.8690   -3.6240    7.5950 ha        1 A60      0.161000
     79 H37         8.4380   -3.1110    5.6240 ha        1 A60      0.134000
     80 H33         8.2020   -7.3390    4.7050 ha        1 A60      0.134000
     81 H111        3.4570   -2.6370    2.0080 hn        1 A60      0.402800
     82 H202        5.1820   -6.6380    4.3850 hn        1 A60      0.491300
     83 H34         9.6150   -7.8470    6.6880 ha        1 A60      0.161000
@<TRIPOS>BOND
     1    1    2 1   
     2    1   41 1   
     3    1   42 1   
     4    2    3 ar  
     5    2    7 ar  
     6    3    4 ar  
     7    3   43 1   
     8    4    5 ar  
     9    4   44 1   
    10    5    6 ar  
    11    5    8 1   
    12    6    7 ar  
    13    6   45 1   
    14    7   46 1   
    15    8    9 1   
    16    8   10 1   
    17   11   12 1   
    18   11   16 1   
    19   11   81 1   
    20   12   13 1   
    21   12   47 1   
    22   12   48 1   
    23   13   14 1   
    24   13   15 1   
    25   13   49 1   
    26   14   21 1   
    27   14   50 1   
    28   14   51 1   
    29   15   18 1   
    30   15   52 1   
    31   15   53 1   
    32   16   17 1   
    33   16   54 1   
    34   16   55 1   
    35   17   19 1   
    36   17   20 1   
    37   17   56 1   
    38   18   57 1   
    39   18   58 1   
    40   18   59 1   
    41   19   60 1   
    42   20   22 1   
    43   20   34 1   
    44   20   61 1   
    45   21   62 1   
    46   21   63 1   
    47   21   64 1   
    48   22   23 1   
    49   22   65 1   
    50   22   82 1   
    51   23   24 2   
    52   23   25 1   
    53   25   26 1   
    54   26   27 1   
    55   26   33 1   
    56   26   66 1   
    57   27   28 1   
    58   27   67 1   
    59   27   68 1   
    60   28   29 1   
    61   29   30 1   
    62   29   33 1   
    63   29   69 1   
    64   30   31 1   
    65   31   32 1   
    66   31   70 1   
    67   31   71 1   
    68   32   33 1   
    69   32   72 1   
    70   32   73 1   
    71   33   74 1   
    72   34   40 1   
    73   34   75 1   
    74   34   76 1   
    75   35   36 ar  
    76   35   40 ar  
    77   35   80 1   
    78   36   37 ar  
    79   36   83 1   
    80   37   38 ar  
    81   37   77 1   
    82   38   39 ar  
    83   38   78 1   
    84   39   40 ar  
    85   39   79 1   
@<TRIPOS>SUBSTRUCTURE
     1 A60         1 TEMP              0 ****  ****    0 ROOT
