@<TRIPOS>MOLECULE
A60
   81    78     1     0     0
SMALL
bcc


@<TRIPOS>ATOM
      1 N1         -4.8110    4.0130   -3.8780 n3        1 A60     -0.357000
      2 C2         -3.5340    3.7740   -3.2180 c2        1 A60      0.153000
      3 C3         -3.4440    3.8440   -1.8350 c2        1 A60     -0.230000
      4 C4         -2.2370    3.6240   -1.2150 c1        1 A60      0.035000
      5 C5         -1.0800    3.3240   -1.9960 c1        1 A60     -0.911000
      6 C6         -1.1750    3.2550   -3.3720 c1        1 A60      0.030000
      7 C7         -2.3830    3.4750   -3.9900 c1        1 A60     -0.239000
      8 S8          0.4970    3.1830   -1.2190 s4        1 A60      2.070800
      9 O9          1.3430    4.2690   -1.5790 o         1 A60     -0.546400
     10 O10         0.3960    3.3610    0.2020 o         1 A60     -0.546400
     11 N11         1.2140    1.6920   -1.5940 n2        1 A60     -0.818000
     12 C12         1.4840    1.3380   -2.9870 c3        1 A60     -0.016000
     13 C13         2.8080    2.0650   -3.4750 c3        1 A60     -0.117000
     14 C14         3.4750    1.2270   -4.5650 c3        1 A60     -0.163500
     15 C15         2.4400    3.4980   -4.0530 c3        1 A60     -0.163500
     16 C16         1.5520    0.7330   -0.4950 c3        1 A60     -0.044000
     17 C17         0.3840   -0.1760   -0.2450 c3        1 A60     -0.036000
     18 C18         3.7290    4.3860   -4.1220 c3        1 A60     -0.212500
     19 O18         0.3140   -1.1360   -1.2670 oh        1 A60     -0.321000
     20 C19         0.5640   -0.8850    1.1210 c3        1 A60     -0.008000
     21 C20         5.0580    1.4080   -4.4680 c3        1 A60     -0.212500
     22 N20        -0.5160   -1.7460    1.3440 n         1 A60     -0.308000
     23 C21        -1.1600   -1.7920    2.6660 c2        1 A60      0.387000
     24 O22        -1.0860   -0.8190    3.4240 o         1 A60     -0.406000
     25 O23        -1.9040   -3.0010    3.0840 os        1 A60     -0.269000
     26 C24        -2.8980   -2.7530    4.0960 c3        1 A60      0.020000
     27 C25        -3.7270   -1.8360    3.6950 c3        1 A60     -0.029000
     28 O26        -5.0540   -2.2280    4.2860 os        1 A60     -0.276000
     29 C27        -4.8540   -3.7070    4.8190 c3        1 A60      0.139000
     30 O28        -5.9400   -4.6740    4.2550 os        1 A60     -0.276000
     31 C29        -5.2540   -5.4430    3.1460 c3        1 A60     -0.026000
     32 C30        -4.1590   -4.8190    2.9440 c3        1 A60     -0.183000
     33 C31        -3.7960   -4.0900    4.3460 c3        1 A60     -0.171000
     34 C32         1.8450   -1.6810    1.1090 c3        1 A60     -0.127000
     35 C33         2.6490   -3.1560    2.8240 c1        1 A60     -0.122000
     36 C34         3.3770   -3.4810    3.9830 c1        1 A60     -0.125250
     37 C35         3.7960   -2.4840    4.8340 c1        1 A60     -0.125250
     38 C36         3.5000   -1.1600    4.5460 c1        1 A60     -0.125250
     39 C37         2.7760   -0.8410    3.3930 c1        1 A60     -0.125250
     40 C38         2.3560   -1.8470    2.5390 c1        1 A60     -0.075000
     41 HN1        -5.4650    4.4760   -3.4490 hn        1 A60      0.214000
     42 HN1A       -4.9790    3.6350   -4.7100 hn        1 A60      0.214000
     43 H3         -4.2370    4.0520   -1.3030 ha        1 A60      0.150000
     44 H4         -2.1730    3.6730   -0.2480 ha        1 A60      0.156000
     45 H6         -0.3620    3.0450   -3.9210 ha        1 A60      0.155000
     46 H7         -2.4490    3.4240   -4.9590 ha        1 A60      0.138000
     47 H12         0.7330    1.6190   -3.5460 h1        1 A60      0.096000
     48 H12A        1.5950    0.3970   -3.0590 h1        1 A60      0.096000
     49 H13         3.4480    2.1670   -2.6890 hc        1 A60      0.088000
     50 H14         3.2260    0.2130   -4.4280 hc        1 A60      0.089750
     51 H14A        3.1560    1.5320   -5.4730 hc        1 A60      0.089750
     52 H15         2.0570    3.4020   -4.9590 hc        1 A60      0.089750
     53 H15A        1.7890    3.9230   -3.4700 hc        1 A60      0.089750
     54 H16         2.3890    0.1570   -0.7720 h1        1 A60      0.107500
     55 H16A        1.7530    1.2280    0.3110 h1        1 A60      0.107500
     56 H17        -0.4560    0.3600   -0.2340 h1        1 A60      0.136000
     57 H18         3.4800    5.3030   -4.3210 hc        1 A60      0.071833
     58 H18A        4.3250    4.0450   -4.8300 hc        1 A60      0.071833
     59 H18B        4.1910    4.3540   -3.2660 hc        1 A60      0.071833
     60 HO18        1.1940   -1.3370   -1.5750 ho        1 A60      0.200000
     61 H19         0.6010   -0.2460    1.8010 h1        1 A60      0.136000
     62 H20         5.4950    0.7050   -4.9640 hc        1 A60      0.071833
     63 H20A        5.3290    1.3640   -3.5340 hc        1 A60      0.071833
     64 H20B        5.3270    2.3270   -4.8620 hc        1 A60      0.071833
     65 HN20       -0.8000   -2.3400    0.6540 hn        1 A60      0.236000
     66 H24        -2.4560   -2.4680    4.9500 h1        1 A60      0.127000
     67 H25        -3.4630   -0.9860    4.0150 h1        1 A60      0.104500
     68 H25A       -3.7810   -1.8300    2.7380 h1        1 A60      0.104500
     69 H27        -4.8320   -3.7320    5.7300 h2        1 A60      0.140000
     70 H29        -5.0780   -6.3420    3.4230 h1        1 A60      0.091500
     71 H29A       -5.8210   -5.4370    2.3110 h1        1 A60      0.091500
     72 H30        -4.2810   -4.1310    2.2150 hc        1 A60      0.106500
     73 H30A       -3.4370   -5.4630    2.6940 hc        1 A60      0.106500
     74 H31        -3.3530   -4.6920    4.9370 hc        1 A60      0.125000
     75 H32         1.6710   -2.5860    0.7060 hc        1 A60      0.096500
     76 H32A        2.4980   -1.2230    0.5900 hc        1 A60      0.096500
     77 H33         2.3690   -3.8280    2.2510 ha        1 A60      0.128000
     78 H34         3.5850   -4.4100    4.1840 ha        1 A60      0.134250
     79 H35         4.3200   -2.7170    5.6650 ha        1 A60      0.134250
     80 H36         3.7860   -0.4710    5.1300 ha        1 A60      0.134250
     81 H37         2.5590    0.1230    3.1820 ha        1 A60      0.134250
@<TRIPOS>BOND
     1    1    2 1   
     2    1   41 1   
     3    1   42 1   
     4    2    3 1   
     5    2    7 1   
     6    3    4 1   
     7    3   43 1   
     8    4   44 1   
     9    5    6 1   
    10    5    8 1   
    11    6   45 1   
    12    7   46 1   
    13    8    9 1   
    14    8   10 1   
    15   11   12 1   
    16   11   16 1   
    17   12   13 1   
    18   12   47 1   
    19   12   48 1   
    20   13   14 1   
    21   13   15 1   
    22   13   49 1   
    23   14   21 1   
    24   14   50 1   
    25   14   51 1   
    26   15   18 1   
    27   15   52 1   
    28   15   53 1   
    29   16   17 1   
    30   16   54 1   
    31   16   55 1   
    32   17   19 1   
    33   17   20 1   
    34   17   56 1   
    35   18   57 1   
    36   18   58 1   
    37   18   59 1   
    38   19   60 1   
    39   20   22 1   
    40   20   34 1   
    41   20   61 1   
    42   21   62 1   
    43   21   63 1   
    44   21   64 1   
    45   22   23 1   
    46   22   65 1   
    47   23   24 1   
    48   23   25 1   
    49   25   26 1   
    50   26   27 1   
    51   26   33 1   
    52   26   66 1   
    53   27   28 1   
    54   27   67 1   
    55   27   68 1   
    56   28   29 1   
    57   29   30 1   
    58   29   33 1   
    59   29   69 1   
    60   30   31 1   
    61   31   32 1   
    62   31   70 1   
    63   31   71 1   
    64   32   33 1   
    65   32   72 1   
    66   32   73 1   
    67   33   74 1   
    68   34   40 1   
    69   34   75 1   
    70   34   76 1   
    71   35   40 1   
    72   35   77 1   
    73   36   37 1   
    74   36   78 1   
    75   37   79 1   
    76   38   39 1   
    77   38   80 1   
    78   39   81 1   
@<TRIPOS>SUBSTRUCTURE
     1 A60         1 TEMP              0 ****  ****    0 ROOT
