@<TRIPOS>MOLECULE
A60
   83    85     1     0     0
SMALL
bcc


@<TRIPOS>ATOM
      1 N1          0.9570    2.7810   -1.5880 nv        1 A60     -0.770200
      2 C2          1.8180    2.0900   -0.8280 ca        1 A60      0.334600
      3 C3          1.4270    1.5490    0.4520 ca        1 A60     -0.234500
      4 C4          2.3180    0.8630    1.2190 ca        1 A60      0.072500
      5 C5          3.6770    0.6330    0.8190 ca        1 A60     -0.720500
      6 C6          4.0430    1.1620   -0.4640 ca        1 A60      0.072500
      7 C7          3.1770    1.8550   -1.2530 ca        1 A60     -0.234500
      8 S8          4.6750   -0.0680    1.7230 s4        1 A60      1.691300
      9 O9          5.9710   -0.1940    1.3320 o         1 A60     -0.452900
     10 O10         4.3290   -0.3130    3.0190 o         1 A60     -0.452900
     11 N11         4.2990   -2.6040    1.4460 n7        1 A60     -0.886200
     12 C12         3.9520   -3.2800    0.1950 c3        1 A60      0.136800
     13 C13         4.9600   -3.3070   -0.9610 c3        1 A60     -0.075700
     14 C14         5.7470   -2.0130   -1.0860 c3        1 A60     -0.073900
     15 C15         5.8910   -4.5100   -0.9470 c3        1 A60     -0.073900
     16 C16         5.3780   -3.2040    2.2140 c3        1 A60      0.115800
     17 C17         5.0050   -4.4950    2.9670 c3        1 A60      0.086100
     18 C18         5.1760   -5.8260   -1.1230 c3        1 A60     -0.106100
     19 O18         5.0470   -5.6650    2.1830 oh        1 A60     -0.603800
     20 C19         5.9080   -4.6810    4.2150 c3        1 A60      0.106500
     21 C20         6.3150   -1.8030   -2.4670 c3        1 A60     -0.106100
     22 N20         5.4040   -5.8510    5.0380 ny        1 A60     -0.639800
     23 C21         4.1750   -5.4740    5.7940 c         1 A60      0.616100
     24 O22         4.1980   -5.0950    6.9550 o         1 A60     -0.397000
     25 O23         3.0690   -5.6440    5.0340 os        1 A60     -0.405900
     26 C24         1.9110   -4.8150    5.3660 c3        1 A60      0.134100
     27 C25         2.2760   -3.3260    5.2450 c3        1 A60      0.094400
     28 O26         2.0380   -2.9370    3.8880 os        1 A60     -0.440600
     29 C27         1.0760   -3.8190    3.3070 c3        1 A60      0.315900
     30 O28         1.7240   -4.2550    2.1230 os        1 A60     -0.451600
     31 C29         1.7060   -5.6950    2.0500 c3        1 A60      0.116400
     32 C30         1.0940   -6.2470    3.3380 c3        1 A60     -0.100400
     33 C31         0.8820   -5.0420    4.2440 c3        1 A60     -0.110700
     34 C32         7.3770   -4.9010    3.8310 c3        1 A60     -0.051100
     35 C33         8.5570   -6.5290    5.3200 ca        1 A60     -0.133000
     36 C34         9.3790   -6.8110    6.4100 ca        1 A60     -0.108500
     37 C35         9.8750   -5.7720    7.2010 ca        1 A60     -0.089000
     38 C36         9.5500   -4.4500    6.8970 ca        1 A60     -0.108500
     39 C37         8.7280   -4.1630    5.8070 ca        1 A60     -0.133000
     40 C38         8.2240   -5.2020    5.0150 ca        1 A60     -0.171300
     41 HN1         1.2380    3.1590   -2.4670 hn        1 A60      0.471800
     42 HN1A        0.0240    2.9490   -1.2840 hn        1 A60      0.471800
     43 H3          0.3950    1.7050    0.8110 ha        1 A60      0.176500
     44 H4          1.9960    0.4680    2.2030 ha        1 A60      0.170000
     45 H6          5.0860    1.0080   -0.8110 ha        1 A60      0.170000
     46 H7          3.5140    2.2500   -2.2280 ha        1 A60      0.176500
     47 H12         3.0290   -2.7450   -0.1800 h1        1 A60      0.064200
     48 H12A        3.6450   -4.3460    0.4190 h1        1 A60      0.064200
     49 H13         4.3200   -3.4100   -1.8890 hc        1 A60      0.076700
     50 H14         5.0590   -1.1550   -0.8490 hc        1 A60      0.032700
     51 H14A        6.5760   -1.9890   -0.3290 hc        1 A60      0.032700
     52 H15         6.6220   -4.3900   -1.7950 hc        1 A60      0.032700
     53 H15A        6.5030   -4.5260   -0.0090 hc        1 A60      0.032700
     54 H16         6.2580   -3.3940    1.5370 h1        1 A60      0.082200
     55 H16A        5.6930   -2.4350    2.9800 h1        1 A60      0.082200
     56 H17         3.9170   -4.4290    3.3010 h1        1 A60      0.115700
     57 H18         5.9220   -6.6490   -1.2520 hc        1 A60      0.047367
     58 H18A        4.5360   -6.0730   -0.2400 hc        1 A60      0.047367
     59 H18B        4.5250   -5.8020   -2.0300 hc        1 A60      0.047367
     60 HO18        5.7570   -5.5880    1.5280 ho        1 A60      0.437000
     61 H19         5.8300   -3.7660    4.8760 hx        1 A60      0.114700
     62 H20         6.7940   -0.7950   -2.5310 hc        1 A60      0.047367
     63 H20A        5.5140   -1.8660   -3.2430 hc        1 A60      0.047367
     64 H20B        7.0930   -2.5690   -2.7040 hc        1 A60      0.047367
     65 HN20        6.1430   -6.1360    5.7070 hn        1 A60      0.491300
     66 H24         1.5570   -5.1130    6.3850 h1        1 A60      0.123700
     67 H25         1.6230   -2.7080    5.9160 h1        1 A60      0.082700
     68 H25A        3.3540   -3.1120    5.4540 h1        1 A60      0.082700
     69 H27         0.1580   -3.2380    3.0450 h2        1 A60      0.112700
     70 H29         2.7720   -6.0160    1.9090 h1        1 A60      0.072700
     71 H29A        1.1010   -5.9620    1.1460 h1        1 A60      0.072700
     72 H30         0.1110   -6.7390    3.1220 hc        1 A60      0.083700
     73 H30A        1.7570   -7.0160    3.8030 hc        1 A60      0.083700
     74 H31        -0.1390   -5.0530    4.7040 hc        1 A60      0.117700
     75 H32         7.7280   -3.9530    3.3350 hc        1 A60      0.087200
     76 H32A        7.4520   -5.7280    3.0740 hc        1 A60      0.087200
     77 H35        10.5320   -5.9970    8.0570 ha        1 A60      0.166000
     78 H36         9.9510   -3.6280    7.5120 ha        1 A60      0.161000
     79 H37         8.4930   -3.1170    5.5610 ha        1 A60      0.134000
     80 H33         8.2110   -7.3500    4.6740 ha        1 A60      0.134000
     81 H111        3.4580   -2.6300    2.0220 hn        1 A60      0.402800
     82 H202        5.1920   -6.6290    4.3950 hn        1 A60      0.491300
     83 H34         9.6510   -7.8550    6.6380 ha        1 A60      0.161000
@<TRIPOS>BOND
     1    1    2 1   
     2    1   41 1   
     3    1   42 1   
     4    2    3 ar  
     5    2    7 ar  
     6    3    4 ar  
     7    3   43 1   
     8    4    5 ar  
     9    4   44 1   
    10    5    6 ar  
    11    5    8 1   
    12    6    7 ar  
    13    6   45 1   
    14    7   46 1   
    15    8    9 1   
    16    8   10 1   
    17   11   12 1   
    18   11   16 1   
    19   11   81 1   
    20   12   13 1   
    21   12   47 1   
    22   12   48 1   
    23   13   14 1   
    24   13   15 1   
    25   13   49 1   
    26   14   21 1   
    27   14   50 1   
    28   14   51 1   
    29   15   18 1   
    30   15   52 1   
    31   15   53 1   
    32   16   17 1   
    33   16   54 1   
    34   16   55 1   
    35   17   19 1   
    36   17   20 1   
    37   17   56 1   
    38   18   57 1   
    39   18   58 1   
    40   18   59 1   
    41   19   60 1   
    42   20   22 1   
    43   20   34 1   
    44   20   61 1   
    45   21   62 1   
    46   21   63 1   
    47   21   64 1   
    48   22   23 1   
    49   22   65 1   
    50   22   82 1   
    51   23   24 2   
    52   23   25 1   
    53   25   26 1   
    54   26   27 1   
    55   26   33 1   
    56   26   66 1   
    57   27   28 1   
    58   27   67 1   
    59   27   68 1   
    60   28   29 1   
    61   29   30 1   
    62   29   33 1   
    63   29   69 1   
    64   30   31 1   
    65   31   32 1   
    66   31   70 1   
    67   31   71 1   
    68   32   33 1   
    69   32   72 1   
    70   32   73 1   
    71   33   74 1   
    72   34   40 1   
    73   34   75 1   
    74   34   76 1   
    75   35   36 ar  
    76   35   40 ar  
    77   35   80 1   
    78   36   37 ar  
    79   36   83 1   
    80   37   38 ar  
    81   37   77 1   
    82   38   39 ar  
    83   38   78 1   
    84   39   40 ar  
    85   39   79 1   
@<TRIPOS>SUBSTRUCTURE
     1 A60         1 TEMP              0 ****  ****    0 ROOT
