@<TRIPOS>MOLECULE
A60
   84    87     1     0     0
SMALL
bcc


@<TRIPOS>ATOM
      1 N1         -0.5050    0.6090   -1.4400 n4        1 A60     -0.725000
      2 C2          0.6750    0.2300   -0.6550 ca        1 A60      0.056600
      3 C3          0.6030   -0.8410    0.2480 ca        1 A60     -0.119000
      4 C4          1.7200   -1.1550    1.0280 ca        1 A60      0.032000
      5 C5          2.9140   -0.4220    0.9200 ca        1 A60     -0.450500
      6 C6          2.9670    0.6280   -0.0200 ca        1 A60      0.032000
      7 C7          1.8680    0.9640   -0.8020 ca        1 A60     -0.119000
      8 S8          4.1600   -0.6350    1.9670 sy        1 A60      1.454200
      9 O9          5.0780    0.3890    1.9220 o         1 A60     -0.553800
     10 O10         3.8000   -1.2430    3.1540 o         1 A60     -0.553800
     11 N11         5.1340   -2.0760    1.1500 n4        1 A60     -0.615300
     12 C12         5.9030   -1.5880   -0.0280 c3        1 A60      0.116800
     13 C13         6.2710   -2.6150   -1.1010 c3        1 A60     -0.090700
     14 C14         7.4520   -3.5030   -0.7380 c3        1 A60     -0.095400
     15 C15         5.1000   -3.4800   -1.5410 c3        1 A60     -0.095400
     16 C16         6.0120   -2.6760    2.1900 c3        1 A60      0.068800
     17 C17         5.3320   -3.8510    2.9210 c3        1 A60      0.094100
     18 C18         3.9250   -2.6860   -2.0450 c3        1 A60     -0.106600
     19 O18         5.0670   -4.9160    2.0380 oh        1 A60     -0.588800
     20 C19         6.1700   -4.2870    4.1470 c3        1 A60      0.103500
     21 C20         8.7060   -2.7420   -0.3980 c3        1 A60     -0.106600
     22 N20         5.4350   -5.3580    4.9180 n4        1 A60     -0.636800
     23 C21         4.2080   -4.8170    5.5790 c         1 A60      0.609100
     24 O22         4.2220   -4.2890    6.6780 o         1 A60     -0.385000
     25 O23         3.1310   -5.0040    4.7860 os        1 A60     -0.412900
     26 C24         1.8540   -4.4680    5.2650 c3        1 A60      0.136100
     27 C25         1.8200   -2.9500    5.0350 c3        1 A60      0.099400
     28 O26         1.1180   -2.7010    3.8110 os        1 A60     -0.449600
     29 C27         0.4020   -3.8640    3.4080 c3        1 A60      0.317900
     30 O28         0.9310   -4.1300    2.1150 os        1 A60     -0.471600
     31 C29         1.4920   -5.4560    2.0690 c3        1 A60      0.126400
     32 C30         1.1800   -6.1560    3.3910 c3        1 A60     -0.098400
     33 C31         0.7650   -5.0430    4.3450 c3        1 A60     -0.109700
     34 C32         7.5760   -4.7830    3.7670 c3        1 A60     -0.045100
     35 C33         8.2780   -6.7430    5.1550 ca        1 A60     -0.131500
     36 C34         8.9910   -7.2910    6.2180 ca        1 A60     -0.103000
     37 C35         9.7250   -6.4610    7.0710 ca        1 A60     -0.074000
     38 C36         9.7430   -5.0820    6.8560 ca        1 A60     -0.103000
     39 C37         9.0310   -4.5300    5.7900 ca        1 A60     -0.131500
     40 C38         8.2920   -5.3570    4.9370 ca        1 A60     -0.194300
     41 HN1        -1.1670   -0.1780   -1.5010 hn        1 A60      0.488800
     42 HN1A       -0.2260    0.8870   -2.3920 hn        1 A60      0.488800
     43 H3         -0.3160   -1.4440    0.3760 ha        1 A60      0.198500
     44 H4          1.6250   -1.9900    1.7660 ha        1 A60      0.217500
     45 H6          3.8940    1.2320   -0.1230 ha        1 A60      0.217500
     46 H7          1.9510    1.8070   -1.5140 ha        1 A60      0.198500
     47 H12         6.8430   -1.0800    0.3420 hx        1 A60      0.099200
     48 H12A        5.2440   -0.8060   -0.5130 hx        1 A60      0.099200
     49 H13         6.5910   -1.9840   -1.9870 hc        1 A60      0.110700
     50 H14         7.1680   -4.1950    0.0990 hc        1 A60      0.058700
     51 H14A        7.6680   -4.1600   -1.6280 hc        1 A60      0.058700
     52 H15         5.4620   -4.1460   -2.3760 hc        1 A60      0.058700
     53 H15A        4.7840   -4.1690   -0.7120 hc        1 A60      0.058700
     54 H16         6.2850   -1.8710    2.9340 hx        1 A60      0.122700
     55 H16A        6.9740   -3.0370    1.7170 hx        1 A60      0.122700
     56 H17         4.2980   -3.5390    3.2800 h1        1 A60      0.126700
     57 H18         3.1520   -3.3770   -2.4660 hc        1 A60      0.046200
     58 H18A        4.2410   -1.9830   -2.8540 hc        1 A60      0.046200
     59 H18B        3.4510   -2.0910   -1.2240 hc        1 A60      0.046200
     60 HO18        5.8980   -5.2140    1.6350 ho        1 A60      0.436000
     61 H19         6.2750   -3.4030    4.8490 hx        1 A60      0.132700
     62 H20         8.9370   -1.9830   -1.1850 hc        1 A60      0.046200
     63 H20A        9.5740   -3.4470   -0.3390 hc        1 A60      0.046200
     64 H20B        8.6230   -2.2170    0.5850 hc        1 A60      0.046200
     65 HN20        6.0780   -5.7310    5.6480 hn        1 A60      0.496800
     66 H24         1.7330   -4.7560    6.3420 h1        1 A60      0.128700
     67 H25         1.2610   -2.4370    5.8630 h1        1 A60      0.091200
     68 H25A        2.8400   -2.5020    4.9160 h1        1 A60      0.091200
     69 H27        -0.6840   -3.6090    3.3160 h2        1 A60      0.120700
     70 H29         1.0250   -5.9680    1.1900 h1        1 A60      0.061700
     71 H29A        2.5970   -5.3400    1.9130 h1        1 A60      0.061700
     72 H30         2.0590   -6.7340    3.7640 hc        1 A60      0.086700
     73 H30A        0.3330   -6.8790    3.2610 hc        1 A60      0.086700
     74 H31        -0.1070   -5.3530    4.9780 hc        1 A60      0.129700
     75 H32         8.1440   -3.8960    3.3730 hc        1 A60      0.081700
     76 H32A        7.5090   -5.5440    2.9440 hc        1 A60      0.081700
     77 H35        10.2990   -6.8980    7.9060 ha        1 A60      0.178000
     78 H36        10.3330   -4.4280    7.5200 ha        1 A60      0.171500
     79 H37         9.0710   -3.4440    5.6150 ha        1 A60      0.132500
     80 H33         7.7480   -7.4100    4.4570 ha        1 A60      0.132500
     81 H131       -0.9780    1.4070   -0.9860 hn        1 A60      0.488800
     82 H111        4.4970   -2.8090    0.8210 hn        1 A60      0.459800
     83 H202        5.1730   -6.1160    4.2710 hn        1 A60      0.496800
     84 H34         8.9930   -8.3820    6.3770 ha        1 A60      0.171500
@<TRIPOS>BOND
     1    1    2 1   
     2    1   41 1   
     3    1   42 1   
     4    1   81 1   
     5    2    3 ar  
     6    2    7 ar  
     7    3    4 ar  
     8    3   43 1   
     9    4    5 ar  
    10    4   44 1   
    11    5    6 ar  
    12    5    8 1   
    13    6    7 ar  
    14    6   45 1   
    15    7   46 1   
    16    8    9 2   
    17    8   10 2   
    18    8   11 1   
    19   11   12 1   
    20   11   16 1   
    21   11   82 1   
    22   12   13 1   
    23   12   47 1   
    24   12   48 1   
    25   13   14 1   
    26   13   15 1   
    27   13   49 1   
    28   14   21 1   
    29   14   50 1   
    30   14   51 1   
    31   15   18 1   
    32   15   52 1   
    33   15   53 1   
    34   16   17 1   
    35   16   54 1   
    36   16   55 1   
    37   17   19 1   
    38   17   20 1   
    39   17   56 1   
    40   18   57 1   
    41   18   58 1   
    42   18   59 1   
    43   19   60 1   
    44   20   22 1   
    45   20   34 1   
    46   20   61 1   
    47   21   62 1   
    48   21   63 1   
    49   21   64 1   
    50   22   23 1   
    51   22   65 1   
    52   22   83 1   
    53   23   24 2   
    54   23   25 1   
    55   25   26 1   
    56   26   27 1   
    57   26   33 1   
    58   26   66 1   
    59   27   28 1   
    60   27   67 1   
    61   27   68 1   
    62   28   29 1   
    63   29   30 1   
    64   29   33 1   
    65   29   69 1   
    66   30   31 1   
    67   31   32 1   
    68   31   70 1   
    69   31   71 1   
    70   32   33 1   
    71   32   72 1   
    72   32   73 1   
    73   33   74 1   
    74   34   40 1   
    75   34   75 1   
    76   34   76 1   
    77   35   36 ar  
    78   35   40 ar  
    79   35   80 1   
    80   36   37 ar  
    81   36   84 1   
    82   37   38 ar  
    83   37   77 1   
    84   38   39 ar  
    85   38   78 1   
    86   39   40 ar  
    87   39   79 1   
@<TRIPOS>SUBSTRUCTURE
     1 A60         1 TEMP              0 ****  ****    0 ROOT
