@<TRIPOS>MOLECULE
A60
   81    84     1     0     0
SMALL
bcc


@<TRIPOS>ATOM
      1 N1         -0.4840    5.1260   -1.1150 nh        1 A60     -0.856200
      2 C2         -1.1300    3.9230   -1.2730 ca        1 A60      0.245600
      3 C3         -0.4030    2.7380   -1.5690 ca        1 A60     -0.240000
      4 C4         -1.0570    1.5240   -1.6590 ca        1 A60      0.033000
      5 C5         -2.4430    1.4120   -1.4640 ca        1 A60     -0.473500
      6 C6         -3.1580    2.5870   -1.1860 ca        1 A60      0.033000
      7 C7         -2.5370    3.8170   -1.0920 ca        1 A60     -0.240000
      8 S8         -3.2240   -0.0530   -1.6100 sy        1 A60      1.510200
      9 O9         -4.5910    0.1870   -1.8650 o         1 A60     -0.657800
     10 O10        -2.5530   -0.8600   -2.5630 o         1 A60     -0.657800
     11 N11        -3.0270   -0.7410   -0.1240 n3        1 A60     -0.787500
     12 C12        -3.6880   -0.2340    1.0510 c3        1 A60      0.226800
     13 C13        -4.9670   -0.9330    1.5420 c3        1 A60     -0.073700
     14 C14        -6.1530   -0.7300    0.6110 c3        1 A60     -0.080400
     15 C15        -4.7880   -2.4140    1.8350 c3        1 A60     -0.080400
     16 C16        -1.9910   -1.7130    0.0840 c3        1 A60      0.183800
     17 C17        -0.6910   -1.1560    0.7140 c3        1 A60      0.073100
     18 C18        -3.9120   -2.6670    3.0350 c3        1 A60     -0.093100
     19 O18        -0.7020   -1.2690    2.1240 oh        1 A60     -0.594800
     20 C19         0.5570   -1.8520    0.1010 c3        1 A60      0.065700
     21 C20        -6.6300    0.7000    0.5710 c3        1 A60     -0.093100
     22 N20         1.7970   -1.2360    0.5370 n         1 A60     -0.501900
     23 C21         2.2440   -0.1030   -0.1140 c         1 A60      0.735100
     24 O22         1.9010    0.3400   -1.2230 o         1 A60     -0.592000
     25 O23         3.2410    0.5520    0.5930 os        1 A60     -0.434900
     26 C24         3.9130    1.6090   -0.1000 c3        1 A60      0.131100
     27 C25         3.2690    2.9640    0.2470 c3        1 A60      0.106400
     28 O26         4.3270    3.9090    0.4060 os        1 A60     -0.419600
     29 C27         5.5640    3.2400    0.6200 c3        1 A60      0.319900
     30 O28         5.8850    3.4660    1.9810 os        1 A60     -0.419600
     31 C29         5.7420    2.2550    2.7350 c3        1 A60      0.123400
     32 C30         5.6610    1.0880    1.7520 c3        1 A60     -0.102400
     33 C31         5.3650    1.7170    0.3950 c3        1 A60     -0.113700
     34 C32         0.5480   -3.3570    0.4260 c3        1 A60     -0.041100
     35 C33         2.6340   -4.7250    0.1870 ca        1 A60     -0.121000
     36 C34         3.5300   -5.4560   -0.5920 ca        1 A60     -0.126000
     37 C35         3.3200   -5.5870   -1.9640 ca        1 A60     -0.127000
     38 C36         2.2090   -4.9860   -2.5570 ca        1 A60     -0.126000
     39 C37         1.3110   -4.2560   -1.7810 ca        1 A60     -0.121000
     40 C38         1.5190   -4.1200   -0.4020 ca        1 A60     -0.083300
     41 HN1         0.4580    5.2010   -1.4120 hn        1 A60      0.425800
     42 HN1A       -1.0250    5.9550   -1.0940 hn        1 A60      0.425800
     43 H3          0.6870    2.7720   -1.7240 ha        1 A60      0.143000
     44 H4         -0.4640    0.6200   -1.9020 ha        1 A60      0.156000
     45 H6         -4.2550    2.5220   -1.0530 ha        1 A60      0.156000
     46 H7         -3.1330    4.7150   -0.8750 ha        1 A60      0.143000
     47 H12        -2.9490   -0.2400    1.9070 h1        1 A60      0.051700
     48 H12A       -3.9620    0.8450    0.8430 h1        1 A60      0.051700
     49 H13        -5.2100   -0.4210    2.5210 hc        1 A60      0.048700
     50 H14        -5.8870   -1.0620   -0.4270 hc        1 A60      0.047950
     51 H14A       -6.9990   -1.3810    0.9620 hc        1 A60      0.047950
     52 H15        -5.7990   -2.8660    2.0330 hc        1 A60      0.047950
     53 H15A       -4.3800   -2.9370    0.9320 hc        1 A60      0.047950
     54 H16        -2.3770   -2.5300    0.7600 h1        1 A60      0.073200
     55 H16A       -1.7400   -2.1820   -0.9140 h1        1 A60      0.073200
     56 H17        -0.6070   -0.0420    0.5360 h1        1 A60      0.095700
     57 H18        -4.3830   -2.2510    3.9590 hc        1 A60      0.032200
     58 H18A       -3.7640   -3.7640    3.1800 hc        1 A60      0.032200
     59 H18B       -2.9100   -2.1870    2.9130 hc        1 A60      0.032200
     60 HO18       -0.8330   -2.2010    2.3420 ho        1 A60      0.400000
     61 H19         0.4940   -1.7240   -1.0250 h1        1 A60      0.104700
     62 H20        -5.9230    1.3340   -0.0200 hc        1 A60      0.032200
     63 H20A       -7.6300    0.7530    0.0760 hc        1 A60      0.032200
     64 H20B       -6.7210    1.1250    1.5990 hc        1 A60      0.032200
     65 HN20        2.0120   -1.3140    1.5070 hn        1 A60      0.322500
     66 H24         3.8850    1.4220   -1.2080 h1        1 A60      0.092700
     67 H25         2.6230    3.3490   -0.5810 h1        1 A60      0.062200
     68 H25A        2.6880    2.9040    1.2030 h1        1 A60      0.062200
     69 H27         6.3370    3.7530   -0.0050 h2        1 A60      0.102700
     70 H29         6.6390    2.1980    3.4010 h1        1 A60      0.052700
     71 H29A        4.8110    2.3420    3.3520 h1        1 A60      0.052700
     72 H30         6.6360    0.5400    1.7130 hc        1 A60      0.067200
     73 H30A        4.8730    0.3590    2.0610 hc        1 A60      0.067200
     74 H31         6.0590    1.3260   -0.3870 hc        1 A60      0.080700
     75 H32         0.7580   -3.5160    1.5180 hc        1 A60      0.055200
     76 H32A       -0.4880   -3.7450    0.2230 hc        1 A60      0.055200
     77 H34         4.4050   -5.9290   -0.1220 ha        1 A60      0.133500
     78 H35         4.0270   -6.1630   -2.5780 ha        1 A60      0.133000
     79 H36         2.0400   -5.0860   -3.6390 ha        1 A60      0.133500
     80 H37         0.4360   -3.7820   -2.2520 ha        1 A60      0.133000
     81 H33         2.8070   -4.6240    1.2690 ha        1 A60      0.133000
@<TRIPOS>BOND
     1    1    2 1   
     2    1   41 1   
     3    1   42 1   
     4    2    3 ar  
     5    2    7 ar  
     6    3    4 ar  
     7    3   43 1   
     8    4    5 ar  
     9    4   44 1   
    10    5    6 ar  
    11    5    8 1   
    12    6    7 ar  
    13    6   45 1   
    14    7   46 1   
    15    8    9 2   
    16    8   10 2   
    17    8   11 1   
    18   11   12 1   
    19   11   16 1   
    20   12   13 1   
    21   12   47 1   
    22   12   48 1   
    23   13   14 1   
    24   13   15 1   
    25   13   49 1   
    26   14   21 1   
    27   14   50 1   
    28   14   51 1   
    29   15   18 1   
    30   15   52 1   
    31   15   53 1   
    32   16   17 1   
    33   16   54 1   
    34   16   55 1   
    35   17   19 1   
    36   17   20 1   
    37   17   56 1   
    38   18   57 1   
    39   18   58 1   
    40   18   59 1   
    41   19   60 1   
    42   20   22 1   
    43   20   34 1   
    44   20   61 1   
    45   21   62 1   
    46   21   63 1   
    47   21   64 1   
    48   22   23 1   
    49   22   65 1   
    50   23   24 2   
    51   23   25 1   
    52   25   26 1   
    53   26   27 1   
    54   26   33 1   
    55   26   66 1   
    56   27   28 1   
    57   27   67 1   
    58   27   68 1   
    59   28   29 1   
    60   29   30 1   
    61   29   33 1   
    62   29   69 1   
    63   30   31 1   
    64   31   32 1   
    65   31   70 1   
    66   31   71 1   
    67   32   33 1   
    68   32   72 1   
    69   32   73 1   
    70   33   74 1   
    71   34   40 1   
    72   34   75 1   
    73   34   76 1   
    74   35   36 ar  
    75   35   40 ar  
    76   35   81 1   
    77   36   37 ar  
    78   36   77 1   
    79   37   38 ar  
    80   37   78 1   
    81   38   39 ar  
    82   38   79 1   
    83   39   40 ar  
    84   39   80 1   
@<TRIPOS>SUBSTRUCTURE
     1 A60         1 TEMP              0 ****  ****    0 ROOT
