@<TRIPOS>MOLECULE
A61
   81    77     1     0     0
SMALL
bcc


@<TRIPOS>ATOM
      1 C1          2.8190    5.8580   -5.8060 c1        1 A61     -0.289000
      2 N1          3.9250    5.0770   -5.3350 n2        1 A61     -0.101000
      3 S1          1.6950    5.7860   -4.7380 ss        1 A61      0.472000
      4 C2          3.5360    4.4580   -3.9010 c1        1 A61     -0.007000
      5 C3          2.2170    4.8880   -3.5670 c1        1 A61     -0.357000
      6 C4          1.6210    4.4480   -2.3880 c1        1 A61      0.050000
      7 C5          2.3180    3.5850   -1.5300 c1        1 A61     -0.828000
      8 C6          3.6220    3.1600   -1.8590 c1        1 A61     -0.042000
      9 C7          4.2230    3.6000   -3.0450 c1        1 A61     -0.101000
     10 S8          1.4320    3.4480    0.0180 s4        1 A61      2.056800
     11 O9          1.8550    4.4720    0.9620 o         1 A61     -0.536400
     12 O10         0.0270    3.7810   -0.1510 o         1 A61     -0.536400
     13 N11         1.6200    1.9050    0.6660 n2        1 A61     -0.828000
     14 C12         2.9290    1.3290    0.7870 c3        1 A61     -0.004000
     15 C13         3.6510    1.9220    2.0640 c3        1 A61     -0.121000
     16 C14         4.4760    0.7810    2.7800 c3        1 A61     -0.158500
     17 C15         4.6100    3.0620    1.6290 c3        1 A61     -0.158500
     18 C16         0.4550    1.1580    1.1100 c3        1 A61     -0.058000
     19 C17         0.2230   -0.0470    0.1650 c3        1 A61     -0.026000
     20 C18         4.8640    4.0130    2.8110 c3        1 A61     -0.211500
     21 O18         1.2130   -0.9850    0.3630 oh        1 A61     -0.332000
     22 C19        -1.1300   -0.6720    0.4570 c3        1 A61      0.039000
     23 C20         4.5830    1.0930    4.2630 c3        1 A61     -0.211500
     24 N20        -1.3860   -1.6830   -0.4760 n         1 A61     -0.318000
     25 C21        -2.7650   -1.9820   -0.8690 c2        1 A61      0.391000
     26 O22        -3.5740   -1.0780   -0.9790 o         1 A61     -0.418000
     27 O23        -3.1390   -3.3180   -1.2160 os        1 A61     -0.269000
     28 C24        -4.3440   -3.3960   -2.0770 c3        1 A61      0.019000
     29 C25        -4.1000   -2.8720   -3.2250 c3        1 A61     -0.029000
     30 O26        -4.9040   -3.6990   -4.2100 os        1 A61     -0.275000
     31 C27        -5.3720   -4.9650   -3.4080 c3        1 A61      0.139000
     32 O28        -4.9800   -6.2740   -4.1340 os        1 A61     -0.276000
     33 C29        -3.7780   -6.7880   -3.4010 c3        1 A61     -0.026000
     34 C30        -3.4100   -5.8200   -2.6470 c3        1 A61     -0.183000
     35 C31        -4.7230   -4.9570   -2.3680 c3        1 A61     -0.171000
     36 C32        -1.1280   -1.2760    1.8800 c3        1 A61     -0.127000
     37 C33        -2.7100   -2.3830    3.1260 c1        1 A61     -0.126000
     38 C34        -3.6640   -2.5150    4.1230 c1        1 A61     -0.126000
     39 C35        -4.4400   -1.4260    4.4890 c1        1 A61     -0.126000
     40 C36        -4.2620   -0.2070    3.8600 c1        1 A61     -0.126000
     41 C37        -3.3040   -0.0720    2.8580 c1        1 A61     -0.126000
     42 C38        -2.5310   -1.1550    2.4920 c1        1 A61     -0.077000
     43 H1          2.7620    6.3380   -6.7060 DU        1 A61      0.196000
     44 H4          0.7000    4.7460   -2.1540 ha        1 A61      0.179000
     45 H6          4.1220    2.5380   -1.2400 ha        1 A61      0.160000
     46 H7          5.1150    3.3100   -3.2670 ha        1 A61      0.160000
     47 H12         3.4470    1.5370   -0.0040 h1        1 A61      0.082000
     48 H12A        2.8510    0.3650    0.8780 h1        1 A61      0.082000
     49 H13         2.9920    2.2700    2.6710 hc        1 A61      0.107000
     50 H14         5.3990    0.7280    2.3790 hc        1 A61      0.082000
     51 H14A        3.9980   -0.1160    2.6520 hc        1 A61      0.082000
     52 H15         4.2120    3.5550    0.9050 hc        1 A61      0.082000
     53 H15A        5.4650    2.6730    1.3310 hc        1 A61      0.082000
     54 H16        -0.3670    1.7680    1.0950 h1        1 A61      0.118000
     55 H16A        0.6100    0.8210    2.0570 h1        1 A61      0.118000
     56 H17         0.2460    0.2550   -0.7550 h1        1 A61      0.096000
     57 H18         5.2380    4.8790    2.4670 hc        1 A61      0.075000
     58 H18A        3.9980    4.1920    3.2940 hc        1 A61      0.075000
     59 H18B        5.5010    3.6060    3.4250 hc        1 A61      0.075000
     60 HO18        1.6580   -1.1210   -0.4090 ho        1 A61      0.209000
     61 H19        -1.7850   -0.0270    0.3990 h1        1 A61      0.130000
     62 H20         4.9290    0.3140    4.7350 hc        1 A61      0.075000
     63 H20A        5.1720    1.8280    4.3910 hc        1 A61      0.075000
     64 H20B        3.7130    1.3160    4.6050 hc        1 A61      0.075000
     65 HN20       -0.7270   -2.1680   -0.7860 hn        1 A61      0.244000
     66 H24        -5.0990   -2.9360   -1.6490 h1        1 A61      0.129000
     67 H25        -3.1290   -2.9300   -3.4320 h1        1 A61      0.103500
     68 H25A       -4.3940   -1.9510   -3.2440 h1        1 A61      0.103500
     69 H27        -6.3610   -4.9320   -3.2200 h2        1 A61      0.141000
     70 H29        -3.0400   -7.0230   -4.0560 h1        1 A61      0.091500
     71 H29A       -4.0130   -7.5540   -2.8720 h1        1 A61      0.091500
     72 H30        -2.7390   -5.2780   -3.1030 hc        1 A61      0.106000
     73 H30A       -3.0500   -6.1660   -1.8010 hc        1 A61      0.106000
     74 H31        -5.2580   -5.3490   -1.6030 hc        1 A61      0.125000
     75 H32        -0.4940   -0.7990    2.4320 hc        1 A61      0.107500
     76 H32A       -0.8740   -2.2210    1.8320 hc        1 A61      0.107500
     77 H33        -2.1600   -3.1570    2.8660 ha        1 A61      0.130000
     78 H34        -3.7930   -3.3960    4.5790 ha        1 A61      0.133500
     79 H35        -5.1210   -1.5190    5.2020 ha        1 A61      0.133500
     80 H36        -4.8140    0.5670    4.1200 ha        1 A61      0.133500
     81 H37        -3.1800    0.7860    2.4160 ha        1 A61      0.133500
@<TRIPOS>BOND
     1    1    2 1   
     2    1    3 1   
     3    2    4 1   
     4    3    5 1   
     5    4    9 1   
     6    5    6 1   
     7    6   44 1   
     8    7    8 1   
     9    7   10 1   
    10    8   45 1   
    11    9   46 1   
    12   10   11 1   
    13   10   12 1   
    14   13   14 1   
    15   13   18 1   
    16   14   15 1   
    17   14   47 1   
    18   14   48 1   
    19   15   16 1   
    20   15   17 1   
    21   15   49 1   
    22   16   23 1   
    23   16   50 1   
    24   16   51 1   
    25   17   20 1   
    26   17   52 1   
    27   17   53 1   
    28   18   19 1   
    29   18   54 1   
    30   18   55 1   
    31   19   21 1   
    32   19   22 1   
    33   19   56 1   
    34   20   57 1   
    35   20   58 1   
    36   20   59 1   
    37   21   60 1   
    38   22   24 1   
    39   22   36 1   
    40   22   61 1   
    41   23   62 1   
    42   23   63 1   
    43   23   64 1   
    44   24   25 1   
    45   24   65 1   
    46   25   26 1   
    47   25   27 1   
    48   27   28 1   
    49   28   29 1   
    50   28   35 1   
    51   28   66 1   
    52   29   30 1   
    53   29   67 1   
    54   29   68 1   
    55   30   31 1   
    56   31   32 1   
    57   31   35 1   
    58   31   69 1   
    59   32   33 1   
    60   33   34 1   
    61   33   70 1   
    62   33   71 1   
    63   34   35 1   
    64   34   72 1   
    65   34   73 1   
    66   35   74 1   
    67   36   42 1   
    68   36   75 1   
    69   36   76 1   
    70   37   42 1   
    71   37   77 1   
    72   38   39 1   
    73   38   78 1   
    74   39   79 1   
    75   40   41 1   
    76   40   80 1   
    77   41   81 1   
@<TRIPOS>SUBSTRUCTURE
     1 A61         1 TEMP              0 ****  ****    0 ROOT
