@<TRIPOS>MOLECULE
A61
   83    86     1     0     0
SMALL
bcc


@<TRIPOS>ATOM
      1 C1          2.0930    2.6170   -0.5460 cc        1 A61      0.404100
      2 N1          3.1400    2.6410    0.2770 nd        1 A61     -0.509100
      3 S1          0.6890    1.8310    0.0110 ss        1 A61      0.141900
      4 C2          2.8080    1.9840    1.4520 ca        1 A61      0.218400
      5 C3          1.4530    1.4540    1.4750 ca        1 A61     -0.193100
      6 C4          0.9960    0.7810    2.5870 ca        1 A61      0.127000
      7 C5          1.8220    0.5970    3.7240 ca        1 A61     -0.628500
      8 C6          3.1520    1.1360    3.6750 ca        1 A61     -0.016000
      9 C7          3.6410    1.8060    2.5850 ca        1 A61     -0.083000
     10 S8          1.3110   -0.0890    5.0110 s4        1 A61      1.680300
     11 O9          2.1190   -0.1770    6.0960 o         1 A61     -0.439900
     12 O10        -0.0290   -0.3060    5.1260 o         1 A61     -0.439900
     13 N11         1.4840   -2.5300    4.5210 n3        1 A61     -0.894200
     14 C12         2.5840   -3.1370    3.7650 c3        1 A61      0.133800
     15 C13         3.9880   -3.2190    4.3750 c3        1 A61     -0.078700
     16 C14         4.3520   -1.9920    5.1940 c3        1 A61     -0.073900
     17 C15         4.2600   -4.4950    5.1560 c3        1 A61     -0.073900
     18 C16         1.1270   -3.1920    5.7690 c3        1 A61      0.110800
     19 C17         0.2880   -4.4730    5.6080 c3        1 A61      0.089100
     20 C18         4.1690   -5.7460    4.3200 c3        1 A61     -0.107100
     21 O18         1.0390   -5.6300    5.3240 oh        1 A61     -0.600800
     22 C19        -0.5860   -4.7190    6.8660 c3        1 A61      0.105500
     23 C20         5.8400   -1.8150    5.3570 c3        1 A61     -0.107100
     24 N20        -1.5320   -5.8760    6.6100 n4        1 A61     -0.639800
     25 C21        -2.6490   -5.4560    5.7140 c         1 A61      0.615100
     26 O22        -3.7370   -5.0950    6.1310 o         1 A61     -0.394000
     27 O23        -2.2900   -5.5660    4.4140 os        1 A61     -0.406900
     28 C24        -2.9860   -4.7000    3.4650 c3        1 A61      0.134100
     29 C25        -2.7600   -3.2240    3.8330 c3        1 A61      0.094400
     30 O26        -1.5600   -2.7990    3.1760 os        1 A61     -0.445600
     31 C27        -1.3240   -3.6340    2.0410 c3        1 A61      0.315900
     32 O28         0.0100   -4.0670    2.2440 os        1 A61     -0.456600
     33 C29         0.0860   -5.5040    2.1340 c3        1 A61      0.117400
     34 C30        -1.3290   -6.0600    1.9680 c3        1 A61     -0.100400
     35 C31        -2.2630   -4.8670    2.1160 c3        1 A61     -0.109700
     36 C32         0.2670   -5.0010    8.1110 c3        1 A61     -0.050100
     37 C33        -0.7530   -6.7030    9.6360 ca        1 A61     -0.133000
     38 C34        -1.5060   -7.0390   10.7590 ca        1 A61     -0.108000
     39 C35        -2.0780   -6.0350   11.5440 ca        1 A61     -0.088000
     40 C36        -1.8930   -4.6940   11.2040 ca        1 A61     -0.108000
     41 C37        -1.1390   -4.3550   10.0800 ca        1 A61     -0.133000
     42 C38        -0.5690   -5.3580    9.2880 ca        1 A61     -0.173300
     43 H1          2.1570    3.0950   -1.5390 h5        1 A61      0.106800
     44 H4         -0.0380    0.3820    2.6100 ha        1 A61      0.170000
     45 H6          3.7980    1.0160    4.5670 ha        1 A61      0.177000
     46 H7          4.6680    2.2170    2.5750 ha        1 A61      0.201000
     47 H12         2.6640   -2.5150    2.8240 h1        1 A61      0.068200
     48 H12A        2.2780   -4.1800    3.4480 h1        1 A61      0.068200
     49 H13         4.6790   -3.2450    3.4770 hc        1 A61      0.081700
     50 H14         3.9410   -1.0840    4.6720 hc        1 A61      0.032200
     51 H14A        3.8660   -2.0390    6.2040 hc        1 A61      0.032200
     52 H15         5.3030   -4.4260    5.5730 hc        1 A61      0.032200
     53 H15A        3.5770   -4.5720    6.0410 hc        1 A61      0.032200
     54 H16         0.5140   -2.4500    6.3630 h1        1 A61      0.084700
     55 H16A        2.0610   -3.4130    6.3570 h1        1 A61      0.084700
     56 H17        -0.3910   -4.3620    4.6990 h1        1 A61      0.116700
     57 H18         3.1180   -5.9650    4.0080 hc        1 A61      0.049200
     58 H18A        4.5460   -6.6220    4.9040 hc        1 A61      0.049200
     59 H18B        4.7940   -5.6510    3.3980 hc        1 A61      0.049200
     60 HO18        1.8800   -5.5970    5.8050 ho        1 A61      0.438000
     61 H19        -1.2330   -3.8110    7.0580 hx        1 A61      0.114700
     62 H20         6.2780   -2.6290    5.9850 hc        1 A61      0.049200
     63 H20A        6.3560   -1.8210    4.3660 hc        1 A61      0.049200
     64 H20B        6.0540   -0.8400    5.8620 hc        1 A61      0.049200
     65 HN20       -0.9980   -6.6380    6.1660 hn        1 A61      0.492300
     66 H24        -4.0640   -5.0010    3.4510 h1        1 A61      0.125700
     67 H25        -2.6020   -3.0550    4.9270 h1        1 A61      0.083700
     68 H25A       -3.6120   -2.5940    3.4650 h1        1 A61      0.083700
     69 H27        -1.3860   -3.0140    1.1110 h2        1 A61      0.111700
     70 H29         0.7320   -5.7240    1.2460 h1        1 A61      0.073700
     71 H29A        0.5830   -5.8640    3.0720 h1        1 A61      0.073700
     72 H30        -1.4510   -6.5170    0.9520 hc        1 A61      0.084700
     73 H30A       -1.5390   -6.8600    2.7200 hc        1 A61      0.084700
     74 H31        -3.0340   -4.8510    1.3040 hc        1 A61      0.119700
     75 H32         1.0030   -5.8210    7.8900 hc        1 A61      0.087700
     76 H32A        0.8540   -4.0650    8.3220 hc        1 A61      0.087700
     77 H35        -2.6660   -6.3020   12.4380 ha        1 A61      0.167000
     78 H36        -2.3330   -3.9010   11.8300 ha        1 A61      0.162500
     79 H37        -0.9790   -3.2950    9.8300 ha        1 A61      0.133500
     80 H33        -0.2650   -7.4990    9.0520 ha        1 A61      0.133500
     81 H111        0.6690   -2.5720    3.9070 hn        1 A61      0.406800
     82 H202       -1.9220   -6.1980    7.5160 hn        1 A61      0.492300
     83 H34        -1.6360   -8.0970   11.0380 ha        1 A61      0.162500
@<TRIPOS>BOND
     1    1    2 2   
     2    1    3 1   
     3    1   43 1   
     4    2    4 1   
     5    3    5 1   
     6    4    5 ar  
     7    4    9 ar  
     8    5    6 ar  
     9    6    7 ar  
    10    6   44 1   
    11    7    8 ar  
    12    7   10 1   
    13    8    9 ar  
    14    8   45 1   
    15    9   46 1   
    16   10   11 1   
    17   10   12 1   
    18   13   14 1   
    19   13   18 1   
    20   13   81 1   
    21   14   15 1   
    22   14   47 1   
    23   14   48 1   
    24   15   16 1   
    25   15   17 1   
    26   15   49 1   
    27   16   23 1   
    28   16   50 1   
    29   16   51 1   
    30   17   20 1   
    31   17   52 1   
    32   17   53 1   
    33   18   19 1   
    34   18   54 1   
    35   18   55 1   
    36   19   21 1   
    37   19   22 1   
    38   19   56 1   
    39   20   57 1   
    40   20   58 1   
    41   20   59 1   
    42   21   60 1   
    43   22   24 1   
    44   22   36 1   
    45   22   61 1   
    46   23   62 1   
    47   23   63 1   
    48   23   64 1   
    49   24   25 1   
    50   24   65 1   
    51   24   82 1   
    52   25   26 2   
    53   25   27 1   
    54   27   28 1   
    55   28   29 1   
    56   28   35 1   
    57   28   66 1   
    58   29   30 1   
    59   29   67 1   
    60   29   68 1   
    61   30   31 1   
    62   31   32 1   
    63   31   35 1   
    64   31   69 1   
    65   32   33 1   
    66   33   34 1   
    67   33   70 1   
    68   33   71 1   
    69   34   35 1   
    70   34   72 1   
    71   34   73 1   
    72   35   74 1   
    73   36   42 1   
    74   36   75 1   
    75   36   76 1   
    76   37   38 ar  
    77   37   42 ar  
    78   37   80 1   
    79   38   39 ar  
    80   38   83 1   
    81   39   40 ar  
    82   39   77 1   
    83   40   41 ar  
    84   40   78 1   
    85   41   42 ar  
    86   41   79 1   
@<TRIPOS>SUBSTRUCTURE
     1 A61         1 TEMP              0 ****  ****    0 ROOT
