@<TRIPOS>MOLECULE
A61
   83    86     1     0     0
SMALL
bcc


@<TRIPOS>ATOM
      1 C1          1.9910    0.9490   -0.8340 cc        1 A61      0.394100
      2 N1          2.5790    1.6750    0.1200 nd        1 A61     -0.509100
      3 S1          0.9910   -0.3260   -0.3280 ss        1 A61      0.169900
      4 C2          2.2030    1.1820    1.3570 ca        1 A61      0.218400
      5 C3          1.3010    0.0410    1.2970 ca        1 A61     -0.202100
      6 C4          0.8410   -0.5440    2.4570 ca        1 A61      0.143000
      7 C5          1.2280   -0.0460    3.7280 ca        1 A61     -0.650500
      8 C6          2.1330    1.0760    3.7570 ca        1 A61     -0.028000
      9 C7          2.6060    1.6790    2.6250 ca        1 A61     -0.081000
     10 S8          0.6820   -0.5870    5.0560 s4        1 A61      1.692300
     11 O9          1.0120    0.0420    6.2140 o         1 A61     -0.454900
     12 O10        -0.3170   -1.5160    5.0460 o         1 A61     -0.454900
     13 N11         2.3260   -2.3570    5.7070 n3        1 A61     -0.907200
     14 C12         3.2000   -2.8310    4.6360 c3        1 A61      0.136800
     15 C13         4.7070   -2.9010    4.9180 c3        1 A61     -0.090700
     16 C14         5.3170   -1.5370    5.2060 c3        1 A61     -0.089900
     17 C15         5.0690   -3.8710    6.0330 c3        1 A61     -0.089900
     18 C16         1.7490   -3.3930    6.5630 c3        1 A61      0.099800
     19 C17         0.6440   -4.2630    5.9280 c3        1 A61      0.116100
     20 C18         4.7580   -5.3070    5.6980 c3        1 A61     -0.101600
     21 O18         1.1560   -5.5030    5.4660 oh        1 A61     -0.615800
     22 C19        -0.3990   -4.6380    7.0180 c3        1 A61      0.146500
     23 C20         5.3000   -0.6170    4.0140 c3        1 A61     -0.101600
     24 N20        -1.4630   -5.5460    6.4350 n4        1 A61     -0.637800
     25 C21        -2.4300   -4.8020    5.5850 c         1 A61      0.615100
     26 O22        -3.3830   -4.1850    6.0390 o         1 A61     -0.411000
     27 O23        -2.1140   -4.9190    4.2770 os        1 A61     -0.407900
     28 C24        -2.9870   -4.2240    3.3300 c3        1 A61      0.138100
     29 C25        -2.8090   -2.7050    3.4590 c3        1 A61      0.096400
     30 O26        -1.9410   -2.2620    2.4110 os        1 A61     -0.438600
     31 C27        -1.7600   -3.2910    1.4470 c3        1 A61      0.319900
     32 O28        -0.3580   -3.5260    1.4740 os        1 A61     -0.451600
     33 C29        -0.0880   -4.9030    1.7870 c3        1 A61      0.133400
     34 C30        -1.4170   -5.6580    1.8220 c3        1 A61     -0.100400
     35 C31        -2.4850   -4.5770    1.9210 c3        1 A61     -0.111700
     36 C32         0.2630   -5.3330    8.2200 c3        1 A61     -0.052100
     37 C33        -1.0730   -7.2220    9.1720 ca        1 A61     -0.132500
     38 C34        -1.9770   -7.7290   10.1040 ca        1 A61     -0.110000
     39 C35        -2.5510   -6.8830   11.0550 ca        1 A61     -0.088000
     40 C36        -2.2170   -5.5280   11.0730 ca        1 A61     -0.110000
     41 C37        -1.3120   -5.0170   10.1430 ca        1 A61     -0.132500
     42 C38        -0.7380   -5.8610    9.1840 ca        1 A61     -0.178300
     43 H1          2.1670    1.1920   -1.8950 h5        1 A61      0.106800
     44 H4          0.1420   -1.4110    2.4010 ha        1 A61      0.201000
     45 H6          2.4420    1.4680    4.7460 ha        1 A61      0.175000
     46 H7          3.2900    2.5460    2.6760 ha        1 A61      0.202000
     47 H12         3.0490   -2.1150    3.7730 h1        1 A61      0.054700
     48 H12A        2.8610   -3.8480    4.2950 h1        1 A61      0.054700
     49 H13         5.1690   -3.2890    3.9620 hc        1 A61      0.082700
     50 H14         6.3880   -1.6920    5.5170 hc        1 A61      0.055200
     51 H14A        4.8060   -1.0490    6.0760 hc        1 A61      0.055200
     52 H15         4.5600   -3.5710    6.9860 hc        1 A61      0.055200
     53 H15A        6.1750   -3.7870    6.2250 hc        1 A61      0.055200
     54 H16         2.5450   -4.1030    6.9440 h1        1 A61      0.089200
     55 H16A        1.3090   -2.8540    7.4530 h1        1 A61      0.089200
     56 H17         0.1210   -3.7280    5.0830 h1        1 A61      0.081700
     57 H18         3.6570   -5.4790    5.6140 hc        1 A61      0.040533
     58 H18A        5.2360   -5.6010    4.7320 hc        1 A61      0.040533
     59 H18B        5.1530   -5.9790    6.5000 hc        1 A61      0.040533
     60 HO18        1.7050   -5.3380    4.6890 ho        1 A61      0.442000
     61 H19        -0.9270   -3.6970    7.3600 hx        1 A61      0.119700
     62 H20         5.7270   -1.1220    3.1140 hc        1 A61      0.040533
     63 H20A        4.2610   -0.2810    3.7710 hc        1 A61      0.040533
     64 H20B        5.9160    0.2920    4.2270 hc        1 A61      0.040533
     65 HN20       -1.9810   -5.9860    7.2210 hn        1 A61      0.494300
     66 H24        -4.0380   -4.5590    3.5280 h1        1 A61      0.115700
     67 H25        -2.3270   -2.4100    4.4270 h1        1 A61      0.090200
     68 H25A       -3.7920   -2.1790    3.3340 h1        1 A61      0.090200
     69 H27        -2.0440   -2.8930    0.4390 h2        1 A61      0.121700
     70 H29         0.4200   -4.9200    2.7870 h1        1 A61      0.051200
     71 H29A        0.6050   -5.2790    0.9930 h1        1 A61      0.051200
     72 H30        -1.5570   -6.2440    0.8760 hc        1 A61      0.082700
     73 H30A       -1.4550   -6.3790    2.6730 hc        1 A61      0.082700
     74 H31        -3.3690   -4.8160    1.2770 hc        1 A61      0.120700
     75 H32         0.9360   -6.1550    7.8500 hc        1 A61      0.096700
     76 H32A        0.9140   -4.5710    8.7310 hc        1 A61      0.096700
     77 H35        -3.2570   -7.2880   11.7980 ha        1 A61      0.167000
     78 H36        -2.6580   -4.8620   11.8330 ha        1 A61      0.162000
     79 H37        -1.0360   -3.9520   10.1780 ha        1 A61      0.135500
     80 H33        -0.5870   -7.9050    8.4580 ha        1 A61      0.135500
     81 H111        2.8770   -1.7620    6.3190 hn        1 A61      0.405800
     82 H202       -0.9930   -6.2770    5.8780 hn        1 A61      0.494300
     83 H34        -2.2250   -8.8030   10.1010 ha        1 A61      0.162000
@<TRIPOS>BOND
     1    1    2 2   
     2    1    3 1   
     3    1   43 1   
     4    2    4 1   
     5    3    5 1   
     6    4    5 ar  
     7    4    9 ar  
     8    5    6 ar  
     9    6    7 ar  
    10    6   44 1   
    11    7    8 ar  
    12    7   10 1   
    13    8    9 ar  
    14    8   45 1   
    15    9   46 1   
    16   10   11 1   
    17   10   12 1   
    18   13   14 1   
    19   13   18 1   
    20   13   81 1   
    21   14   15 1   
    22   14   47 1   
    23   14   48 1   
    24   15   16 1   
    25   15   17 1   
    26   15   49 1   
    27   16   23 1   
    28   16   50 1   
    29   16   51 1   
    30   17   20 1   
    31   17   52 1   
    32   17   53 1   
    33   18   19 1   
    34   18   54 1   
    35   18   55 1   
    36   19   21 1   
    37   19   22 1   
    38   19   56 1   
    39   20   57 1   
    40   20   58 1   
    41   20   59 1   
    42   21   60 1   
    43   22   24 1   
    44   22   36 1   
    45   22   61 1   
    46   23   62 1   
    47   23   63 1   
    48   23   64 1   
    49   24   25 1   
    50   24   65 1   
    51   24   82 1   
    52   25   26 2   
    53   25   27 1   
    54   27   28 1   
    55   28   29 1   
    56   28   35 1   
    57   28   66 1   
    58   29   30 1   
    59   29   67 1   
    60   29   68 1   
    61   30   31 1   
    62   31   32 1   
    63   31   35 1   
    64   31   69 1   
    65   32   33 1   
    66   33   34 1   
    67   33   70 1   
    68   33   71 1   
    69   34   35 1   
    70   34   72 1   
    71   34   73 1   
    72   35   74 1   
    73   36   42 1   
    74   36   75 1   
    75   36   76 1   
    76   37   38 ar  
    77   37   42 ar  
    78   37   80 1   
    79   38   39 ar  
    80   38   83 1   
    81   39   40 ar  
    82   39   77 1   
    83   40   41 ar  
    84   40   78 1   
    85   41   42 ar  
    86   41   79 1   
@<TRIPOS>SUBSTRUCTURE
     1 A61         1 TEMP              0 ****  ****    0 ROOT
