@<TRIPOS>MOLECULE
A61
   83    86     1     0     0
SMALL
bcc


@<TRIPOS>ATOM
      1 C1          2.0250    1.0310   -0.7660 cc        1 A61      0.394100
      2 N1          2.5870    1.7540    0.2040 nd        1 A61     -0.509100
      3 S1          1.0330   -0.2630   -0.2910 ss        1 A61      0.169900
      4 C2          2.1970    1.2420    1.4290 ca        1 A61      0.218400
      5 C3          1.3130    0.0900    1.3420 ca        1 A61     -0.202100
      6 C4          0.8410   -0.5130    2.4890 ca        1 A61      0.143000
      7 C5          1.2020   -0.0240    3.7710 ca        1 A61     -0.650500
      8 C6          2.0910    1.1100    3.8260 ca        1 A61     -0.028000
      9 C7          2.5740    1.7310    2.7090 ca        1 A61     -0.081000
     10 S8          0.6420   -0.5870    5.0850 s4        1 A61      1.692300
     11 O9          0.9450    0.0340    6.2550 o         1 A61     -0.454900
     12 O10        -0.3430   -1.5290    5.0480 o         1 A61     -0.454900
     13 N11         2.3000   -2.3410    5.7430 n7        1 A61     -0.907200
     14 C12         3.1990   -2.7890    4.6820 c3        1 A61      0.136800
     15 C13         4.7020   -2.8420    4.9910 c3        1 A61     -0.090700
     16 C14         5.2870   -1.4730    5.3060 c3        1 A61     -0.089900
     17 C15         5.0580   -3.8210    6.0980 c3        1 A61     -0.089900
     18 C16         1.7240   -3.3970    6.5770 c3        1 A61      0.099800
     19 C17         0.6420   -4.2740    5.9140 c3        1 A61      0.116100
     20 C18         4.7730   -5.2560    5.7400 c3        1 A61     -0.101600
     21 O18         1.1790   -5.5000    5.4430 oh        1 A61     -0.615800
     22 C19        -0.4120   -4.6780    6.9830 c3        1 A61      0.146500
     23 C20         5.2780   -0.5380    4.1260 c3        1 A61     -0.101600
     24 N20        -1.4530   -5.5940    6.3700 ny        1 A61     -0.637800
     25 C21        -2.4180   -4.8530    5.5150 c         1 A61      0.615100
     26 O22        -3.3870   -4.2560    5.9630 o         1 A61     -0.411000
     27 O23        -2.0800   -4.9490    4.2110 os        1 A61     -0.407900
     28 C24        -2.9500   -4.2540    3.2600 c3        1 A61      0.138100
     29 C25        -2.7940   -2.7350    3.4110 c3        1 A61      0.096400
     30 O26        -1.9160   -2.2670    2.3810 os        1 A61     -0.438600
     31 C27        -1.7080   -3.2810    1.4070 c3        1 A61      0.319900
     32 O28        -0.3030   -3.4990    1.4520 os        1 A61     -0.451600
     33 C29        -0.0190   -4.8750    1.7520 c3        1 A61      0.133400
     34 C30        -1.3380   -5.6490    1.7580 c3        1 A61     -0.100400
     35 C31        -2.4210   -4.5830    1.8540 c3        1 A61     -0.111700
     36 C32         0.2420   -5.3800    8.1850 c3        1 A61     -0.052100
     37 C33        -1.0800   -7.3020    9.0900 ca        1 A61     -0.132500
     38 C34        -1.9890   -7.8360   10.0010 ca        1 A61     -0.110000
     39 C35        -2.5910   -7.0110   10.9540 ca        1 A61     -0.088000
     40 C36        -2.2770   -5.6520   10.9970 ca        1 A61     -0.110000
     41 C37        -1.3670   -5.1150   10.0880 ca        1 A61     -0.132500
     42 C38        -0.7660   -5.9360    9.1260 ca        1 A61     -0.178300
     43 H1          2.2140    1.2880   -1.8230 h5        1 A61      0.106800
     44 H4          0.1550   -1.3890    2.4120 ha        1 A61      0.201000
     45 H6          2.3790    1.4950    4.8250 ha        1 A61      0.175000
     46 H7          3.2450    2.6070    2.7800 ha        1 A61      0.202000
     47 H12         2.8810   -3.8070    4.3230 h1        1 A61      0.054700
     48 H12A        3.0530   -2.0650    3.8260 h1        1 A61      0.054700
     49 H13         5.1860   -3.2110    4.0380 hc        1 A61      0.082700
     50 H14         6.3540   -1.6170    5.6350 hc        1 A61      0.055200
     51 H14A        4.7530   -1.0040    6.1740 hc        1 A61      0.055200
     52 H15         6.1600   -3.7240    6.3110 hc        1 A61      0.055200
     53 H15A        4.5290   -3.5410    7.0470 hc        1 A61      0.055200
     54 H16         1.2610   -2.8750    7.4660 h1        1 A61      0.089200
     55 H16A        2.5230   -4.0990    6.9620 h1        1 A61      0.089200
     56 H17         0.1240   -3.7350    5.0680 h1        1 A61      0.081700
     57 H18         5.2720   -5.5310    4.7790 hc        1 A61      0.040533
     58 H18A        5.1640   -5.9330    6.5400 hc        1 A61      0.040533
     59 H18B        3.6760   -5.4430    5.6340 hc        1 A61      0.040533
     60 HO18        1.7370   -5.3160    4.6760 ho        1 A61      0.442000
     61 H19        -0.9590   -3.7510    7.3280 hx        1 A61      0.119700
     62 H20         5.8760    0.3770    4.3620 hc        1 A61      0.040533
     63 H20A        4.2390   -0.2150    3.8680 hc        1 A61      0.040533
     64 H20B        5.7290   -1.0250    3.2270 hc        1 A61      0.040533
     65 HN20       -1.9760   -6.0530    7.1420 hn        1 A61      0.494300
     66 H24        -3.9990   -4.6060    3.4380 h1        1 A61      0.115700
     67 H25        -2.3300   -2.4460    4.3890 h1        1 A61      0.090200
     68 H25A       -3.7820   -2.2200    3.2760 h1        1 A61      0.090200
     69 H27        -1.9820   -2.8750    0.4010 h2        1 A61      0.121700
     70 H29         0.6910   -5.2320    0.9640 h1        1 A61      0.051200
     71 H29A        0.4740   -4.8980    2.7590 h1        1 A61      0.051200
     72 H30        -1.4560   -6.2240    0.8030 hc        1 A61      0.082700
     73 H30A       -1.3790   -6.3810    2.5990 hc        1 A61      0.082700
     74 H31        -3.2930   -4.8250    1.1940 hc        1 A61      0.120700
     75 H32         0.9330   -6.1870    7.8140 hc        1 A61      0.096700
     76 H32A        0.8740   -4.6150    8.7160 hc        1 A61      0.096700
     77 H35        -3.3020   -7.4370   11.6810 ha        1 A61      0.167000
     78 H36        -2.7400   -5.0030   11.7580 ha        1 A61      0.162000
     79 H37        -1.1070   -4.0470   10.1420 ha        1 A61      0.135500
     80 H33        -0.5730   -7.9680    8.3740 ha        1 A61      0.135500
     81 H111        2.8310   -1.7450    6.3720 hn        1 A61      0.405800
     82 H202       -0.9640   -6.3110    5.8110 hn        1 A61      0.494300
     83 H34        -2.2210   -8.9130    9.9800 ha        1 A61      0.162000
@<TRIPOS>BOND
     1    1    2 2   
     2    1    3 1   
     3    1   43 1   
     4    2    4 1   
     5    3    5 1   
     6    4    5 ar  
     7    4    9 ar  
     8    5    6 ar  
     9    6    7 ar  
    10    6   44 1   
    11    7    8 ar  
    12    7   10 1   
    13    8    9 ar  
    14    8   45 1   
    15    9   46 1   
    16   10   11 1   
    17   10   12 1   
    18   13   14 1   
    19   13   18 1   
    20   13   81 1   
    21   14   15 1   
    22   14   47 1   
    23   14   48 1   
    24   15   16 1   
    25   15   17 1   
    26   15   49 1   
    27   16   23 1   
    28   16   50 1   
    29   16   51 1   
    30   17   20 1   
    31   17   52 1   
    32   17   53 1   
    33   18   19 1   
    34   18   54 1   
    35   18   55 1   
    36   19   21 1   
    37   19   22 1   
    38   19   56 1   
    39   20   57 1   
    40   20   58 1   
    41   20   59 1   
    42   21   60 1   
    43   22   24 1   
    44   22   36 1   
    45   22   61 1   
    46   23   62 1   
    47   23   63 1   
    48   23   64 1   
    49   24   25 1   
    50   24   65 1   
    51   24   82 1   
    52   25   26 2   
    53   25   27 1   
    54   27   28 1   
    55   28   29 1   
    56   28   35 1   
    57   28   66 1   
    58   29   30 1   
    59   29   67 1   
    60   29   68 1   
    61   30   31 1   
    62   31   32 1   
    63   31   35 1   
    64   31   69 1   
    65   32   33 1   
    66   33   34 1   
    67   33   70 1   
    68   33   71 1   
    69   34   35 1   
    70   34   72 1   
    71   34   73 1   
    72   35   74 1   
    73   36   42 1   
    74   36   75 1   
    75   36   76 1   
    76   37   38 ar  
    77   37   42 ar  
    78   37   80 1   
    79   38   39 ar  
    80   38   83 1   
    81   39   40 ar  
    82   39   77 1   
    83   40   41 ar  
    84   40   78 1   
    85   41   42 ar  
    86   41   79 1   
@<TRIPOS>SUBSTRUCTURE
     1 A61         1 TEMP              0 ****  ****    0 ROOT
