@<TRIPOS>MOLECULE
A61
   81    85     1     0     0
SMALL
bcc


@<TRIPOS>ATOM
      1 C1         -0.6990   -4.8570    2.2990 cc        1 A61      0.351100
      2 N1         -1.9810   -4.6250    2.5120 nd        1 A61     -0.529100
      3 S1          0.2550   -3.5260    1.7870 ss        1 A61      0.030900
      4 C2         -2.2490   -3.2720    2.2520 ca        1 A61      0.136400
      5 C3         -1.1010   -2.5140    1.8320 ca        1 A61     -0.134100
      6 C4         -1.2260   -1.1560    1.5440 ca        1 A61      0.058000
      7 C5         -2.4640   -0.5310    1.6600 ca        1 A61     -0.391500
      8 C6         -3.5860   -1.2850    2.0760 ca        1 A61     -0.039000
      9 C7         -3.4990   -2.6300    2.3710 ca        1 A61     -0.105000
     10 S8         -2.6330    1.1250    1.4150 sy        1 A61      1.507200
     11 O9         -3.8280    1.5540    2.0230 o         1 A61     -0.660300
     12 O10        -1.4630    1.7850    1.8710 o         1 A61     -0.660300
     13 N11        -2.7120    1.2930   -0.2180 n3        1 A61     -0.797500
     14 C12        -3.3830    0.3830   -1.1080 c3        1 A61      0.228800
     15 C13        -4.8210    0.6900   -1.5620 c3        1 A61     -0.078700
     16 C14        -5.8290    0.6180   -0.4240 c3        1 A61     -0.086900
     17 C15        -4.9730    1.9970   -2.3200 c3        1 A61     -0.086900
     18 C16        -2.0250    2.4060   -0.8170 c3        1 A61      0.180800
     19 C17        -0.7210    2.0610   -1.5760 c3        1 A61      0.085100
     20 C18        -4.1720    2.0380   -3.5970 c3        1 A61     -0.100600
     21 O18        -0.6480    2.8030   -2.7790 oh        1 A61     -0.593800
     22 C19         0.5370    2.2800   -0.6900 c3        1 A61      0.071700
     23 C20        -6.2460   -0.7990   -0.1210 c3        1 A61     -0.100600
     24 N20         1.7110    1.6360   -1.2450 n         1 A61     -0.516900
     25 C21         1.9640    0.3100   -0.9900 c         1 A61      0.746100
     26 O22         1.4210   -0.4400   -0.1600 o         1 A61     -0.612000
     27 O23         2.9950   -0.1820   -1.7750 os        1 A61     -0.433900
     28 C24         3.4800   -1.4880   -1.4520 c3        1 A61      0.131100
     29 C25         4.0040   -2.0950   -2.7690 c3        1 A61      0.121400
     30 O26         5.2150   -2.7890   -2.4700 os        1 A61     -0.418600
     31 C27         5.7280   -2.3850   -1.2070 c3        1 A61      0.321900
     32 O28         6.8930   -1.6320   -1.4970 os        1 A61     -0.419600
     33 C29         6.6750   -0.2450   -1.2090 c3        1 A61      0.124400
     34 C30         5.4040   -0.1260   -0.3680 c3        1 A61     -0.104400
     35 C31         4.6940   -1.4670   -0.5070 c3        1 A61     -0.131700
     36 C32         0.7990    3.7840   -0.4750 c3        1 A61     -0.037100
     37 C33         2.9500    4.6650    0.4580 ca        1 A61     -0.122500
     38 C34         3.7970    4.9240    1.5350 ca        1 A61     -0.131000
     39 C35         3.4200    4.5560    2.8260 ca        1 A61     -0.129000
     40 C36         2.1920    3.9280    3.0380 ca        1 A61     -0.131000
     41 C37         1.3410    3.6680    1.9660 ca        1 A61     -0.122500
     42 C38         1.7180    4.0360    0.6670 ca        1 A61     -0.090300
     43 H1         -0.2730   -5.8570    2.4450 h5        1 A61      0.066800
     44 H4         -0.3340   -0.5770    1.2300 ha        1 A61      0.185000
     45 H6         -4.5580   -0.7650    2.1790 ha        1 A61      0.165000
     46 H7         -4.3820   -3.2010    2.6980 ha        1 A61      0.161000
     47 H12        -2.7620    0.2760   -2.0470 h1        1 A61      0.051700
     48 H12A       -3.4090   -0.6300   -0.6040 h1        1 A61      0.051700
     49 H13        -5.0640   -0.1430   -2.2900 hc        1 A61      0.052700
     50 H14        -5.4120    1.0990    0.5000 hc        1 A61      0.050450
     51 H14A       -6.7440    1.2070   -0.7030 hc        1 A61      0.050450
     52 H15        -6.0590    2.1280   -2.5810 hc        1 A61      0.050450
     53 H15A       -4.7020    2.8590   -1.6560 hc        1 A61      0.050450
     54 H16        -2.7070    2.9170   -1.5570 h1        1 A61      0.070200
     55 H16A       -1.7920    3.1550   -0.0030 h1        1 A61      0.070200
     56 H17        -0.7440    0.9900   -1.9340 h1        1 A61      0.090700
     57 H18        -4.4330    1.1710   -4.2520 hc        1 A61      0.035200
     58 H18A       -4.3930    2.9790   -4.1560 hc        1 A61      0.035200
     59 H18B       -3.0710    2.0030   -3.3970 hc        1 A61      0.035200
     60 HO18       -0.6900    3.7400   -2.5510 ho        1 A61      0.401000
     61 H19         0.3210    1.8030    0.3180 h1        1 A61      0.118700
     62 H20        -6.9420   -0.8150    0.7520 hc        1 A61      0.035200
     63 H20A       -6.7690   -1.2540   -0.9970 hc        1 A61      0.035200
     64 H20B       -5.3610   -1.4360    0.1240 hc        1 A61      0.035200
     65 HN20        2.1150    2.0410   -2.0590 hn        1 A61      0.329500
     66 H24         2.6530   -2.1090   -1.0140 h1        1 A61      0.090700
     67 H25         3.3000   -2.8560   -3.1890 h1        1 A61      0.065200
     68 H25A        4.2200   -1.2980   -3.5260 h1        1 A61      0.065200
     69 H27         6.0440   -3.3100   -0.6620 h2        1 A61      0.100700
     70 H29         7.5880    0.1040   -0.6640 h1        1 A61      0.052200
     71 H29A        6.5800    0.2980   -2.1840 h1        1 A61      0.052200
     72 H30         5.6590    0.0660    0.7040 hc        1 A61      0.067200
     73 H30A        4.7680    0.7220   -0.7250 hc        1 A61      0.067200
     74 H31         4.4020   -1.8690    0.4930 hc        1 A61      0.083700
     75 H32         1.2080    4.2430   -1.4150 hc        1 A61      0.053200
     76 H32A       -0.1840    4.2840   -0.2620 hc        1 A61      0.053200
     77 H34         4.7630    5.4200    1.3640 ha        1 A61      0.132500
     78 H35         4.0880    4.7610    3.6750 ha        1 A61      0.130000
     79 H36         1.8910    3.6360    4.0550 ha        1 A61      0.132500
     80 H37         0.3710    3.1660    2.1380 ha        1 A61      0.148500
     81 H33         3.2530    4.9590   -0.5570 ha        1 A61      0.148500
@<TRIPOS>BOND
     1    1    2 2   
     2    1    3 1   
     3    1   43 1   
     4    2    4 1   
     5    3    5 1   
     6    4    5 ar  
     7    4    9 ar  
     8    5    6 ar  
     9    6    7 ar  
    10    6   44 1   
    11    7    8 ar  
    12    7   10 1   
    13    8    9 ar  
    14    8   45 1   
    15    9   46 1   
    16   10   11 2   
    17   10   12 2   
    18   10   13 1   
    19   13   14 1   
    20   13   18 1   
    21   14   15 1   
    22   14   47 1   
    23   14   48 1   
    24   15   16 1   
    25   15   17 1   
    26   15   49 1   
    27   16   23 1   
    28   16   50 1   
    29   16   51 1   
    30   17   20 1   
    31   17   52 1   
    32   17   53 1   
    33   18   19 1   
    34   18   54 1   
    35   18   55 1   
    36   19   21 1   
    37   19   22 1   
    38   19   56 1   
    39   20   57 1   
    40   20   58 1   
    41   20   59 1   
    42   21   60 1   
    43   22   24 1   
    44   22   36 1   
    45   22   61 1   
    46   23   62 1   
    47   23   63 1   
    48   23   64 1   
    49   24   25 1   
    50   24   65 1   
    51   25   26 2   
    52   25   27 1   
    53   27   28 1   
    54   28   29 1   
    55   28   35 1   
    56   28   66 1   
    57   29   30 1   
    58   29   67 1   
    59   29   68 1   
    60   30   31 1   
    61   31   32 1   
    62   31   35 1   
    63   31   69 1   
    64   32   33 1   
    65   33   34 1   
    66   33   70 1   
    67   33   71 1   
    68   34   35 1   
    69   34   72 1   
    70   34   73 1   
    71   35   74 1   
    72   36   42 1   
    73   36   75 1   
    74   36   76 1   
    75   37   38 ar  
    76   37   42 ar  
    77   37   81 1   
    78   38   39 ar  
    79   38   77 1   
    80   39   40 ar  
    81   39   78 1   
    82   40   41 ar  
    83   40   79 1   
    84   41   42 ar  
    85   41   80 1   
@<TRIPOS>SUBSTRUCTURE
     1 A61         1 TEMP              0 ****  ****    0 ROOT
