@<TRIPOS>MOLECULE
A62
   50    48     1     0     0
SMALL
bcc


@<TRIPOS>ATOM
      1 C          -3.4500    1.3460   -1.1550 c3        1 A62     -0.072000
      2 N           3.6280   -1.3100    1.3830 n         1 A62     -0.238000
      3 O          -2.0860    1.3840   -0.8020 oh        1 A62     -0.336000
      4 C1          0.5540    0.1380    0.4760 c2        1 A62     -0.159000
      5 C2         -0.0160    0.2590    1.6730 c2        1 A62     -0.209000
      6 O2          3.7890   -2.9140    5.9580 oh        1 A62     -0.329000
      7 C3          2.3090   -1.2990    1.3460 c1        1 A62     -0.096000
      8 C4          1.5290   -0.9400    0.1250 c3        1 A62     -0.116000
      9 C5          2.3160   -0.5450   -1.1210 c3        1 A62     -0.158000
     10 C6          3.1750   -1.6460   -1.6260 c2        1 A62     -0.072000
     11 C7          4.1990   -1.4660   -2.4100 c1        1 A62     -0.190000
     12 C8          5.2200   -1.3170   -3.2110 c2        1 A62      0.052000
     13 C9          6.5910   -1.1190   -2.7810 c2        1 A62     -0.452000
     14 C10         7.0480   -0.2230   -1.9300 c1        1 A62      0.240000
     15 C11         4.3250   -1.6730    2.5790 c2        1 A62      0.323000
     16 C12         3.5170   -2.1320    3.7630 c3        1 A62     -0.172000
     17 C13         4.2670   -1.9060    5.0750 c3        1 A62      0.031000
     18 C14         3.9890   -0.5110    5.6310 c3        1 A62     -0.161000
     19 C15         4.9010   -0.0930    6.7240 c2        1 A62     -0.101000
     20 C16         9.0710   -0.6810    5.2730 c2        1 A62     -0.128000
     21 C17         8.5840   -1.1710    6.3690 c1        1 A62     -0.150000
     22 C18         8.0900   -1.6730    7.4730 c2        1 A62     -0.012000
     23 C19         6.7060   -1.5600    7.9050 c2        1 A62     -0.065000
     24 C20         5.8030   -0.8380    7.2940 c1        1 A62     -0.173000
     25 H          -3.5580    2.0860   -1.9880 h1        1 A62      0.068667
     26 HA         -4.0950    1.6440   -0.2910 h1        1 A62      0.068667
     27 HO         -1.9560    0.7530   -0.0810 ho        1 A62      0.200000
     28 H1         -3.7430    0.3260   -1.5100 h1        1 A62      0.068667
     29 H2          0.2110   -0.4180    2.5080 ha        1 A62      0.122000
     30 H2A        -0.7400    1.0570    1.8900 ha        1 A62      0.122000
     31 H3          0.3120    0.8330   -0.3480 ha        1 A62      0.137000
     32 H3A         4.2260   -1.0660    0.6100 hn        1 A62      0.192000
     33 H4          0.9370   -1.8780   -0.1130 hc        1 A62      0.132000
     34 H6          2.9290    0.3710   -0.9110 hc        1 A62      0.108000
     35 H7          2.8900   -2.6710   -1.3200 ha        1 A62      0.147000
     36 H9          7.3340   -1.8050   -3.2480 ha        1 A62      0.209000
     37 H10         1.5890   -0.2680   -1.9360 hc        1 A62      0.108000
     38 H12         3.3240   -3.2340    3.6360 hc        1 A62      0.146000
     39 H12A        2.5160   -1.6220    3.7890 hc        1 A62      0.146000
     40 H13         5.3760   -2.0420    4.9180 h1        1 A62      0.108000
     41 H14         4.0790    0.2320    4.7930 hc        1 A62      0.106500
     42 H14A        2.9310   -0.4740    6.0100 hc        1 A62      0.106500
     43 H16         9.0730   -1.2470    4.3270 ha        1 A62      0.143000
     44 H17         9.5020    0.3310    5.2210 ha        1 A62      0.143000
     45 H19         6.4320   -2.1360    8.8100 ha        1 A62      0.156000
     46 H20         4.7660    0.9540    7.0580 ha        1 A62      0.144000
     47 HO2         4.2690   -2.7980    6.7890 ho        1 A62      0.211000
     48 CL          4.9920   -1.3520   -4.9080 cl        1 A62     -0.014000
     49 O1          5.5610   -1.6110    2.5490 o         1 A62     -0.313000
     50 CL1         9.1150   -2.5520    8.5300 cl        1 A62     -0.024000
@<TRIPOS>BOND
     1    1    3 1   
     2    1   25 1   
     3    1   26 1   
     4    1   28 1   
     5    2    7 1   
     6    2   15 1   
     7    2   32 1   
     8    3   27 1   
     9    4    5 1   
    10    4    8 1   
    11    4   31 1   
    12    5   29 1   
    13    5   30 1   
    14    6   17 1   
    15    6   47 1   
    16    7    8 1   
    17    8    9 1   
    18    8   33 1   
    19    9   10 1   
    20    9   34 1   
    21    9   37 1   
    22   10   11 1   
    23   10   35 1   
    24   11   12 1   
    25   12   13 1   
    26   12   48 1   
    27   13   14 1   
    28   13   36 1   
    29   15   16 1   
    30   15   49 1   
    31   16   17 1   
    32   16   38 1   
    33   16   39 1   
    34   17   18 1   
    35   17   40 1   
    36   18   19 1   
    37   18   41 1   
    38   18   42 1   
    39   19   24 1   
    40   19   46 1   
    41   20   21 1   
    42   20   43 1   
    43   20   44 1   
    44   21   22 1   
    45   22   23 1   
    46   22   50 1   
    47   23   24 1   
    48   23   45 1   
@<TRIPOS>SUBSTRUCTURE
     1 A62         1 TEMP              0 ****  ****    0 ROOT
