@<TRIPOS>MOLECULE
A62
   50    44     1     0     0
SMALL
bcc


@<TRIPOS>ATOM
      1 C           1.6720    1.8420    1.4740 c3        1 A62      0.089000
      2 N           1.7690   -3.1940    0.8230 n         1 A62     -0.063000
      3 O           2.4980    0.6930    1.4740 oh        1 A62     -0.366000
      4 C1          1.1940    2.2000    0.1620 c1        1 A62     -0.220000
      5 C2          1.6750   -1.9850    0.3000 c1        1 A62     -0.164000
      6 O2          2.6430   -2.9600    5.1200 oh        1 A62     -0.337000
      7 C3          1.3770   -4.3420    0.1780 c1        1 A62     -0.160000
      8 C4          1.0390   -5.3290   -0.4090 c1        1 A62     -0.129000
      9 C5          0.7880    2.5150   -0.9180 c1        1 A62     -0.181000
     10 C6          1.9660   -1.9480   -3.1730 c1        1 A62      0.183000
     11 C7          3.0340   -1.3770   -2.7910 c1        1 A62     -0.603000
     12 C8          4.1440   -0.7590   -2.4000 c2        1 A62      0.330000
     13 C9          4.3650   -0.2820   -1.0640 c2        1 A62     -0.533000
     14 C10         5.4070    0.3340   -0.5230 c1        1 A62      0.341000
     15 C11         2.3170   -3.3470    2.1620 c2        1 A62      0.329000
     16 C12         2.7640   -2.0860    2.8530 c3        1 A62     -0.205000
     17 C13         3.5150   -2.4040    4.1470 c3        1 A62      0.040000
     18 C14         4.0790   -1.1120    4.7370 c3        1 A62     -0.167000
     19 C15         4.9300   -1.3800    5.9150 c2        1 A62      0.015000
     20 C16         7.2090    2.8130    7.9000 c2        1 A62     -0.158000
     21 C17         7.3210    2.1020    6.8240 c1        1 A62     -0.123000
     22 C18         7.3580    1.4150    5.6980 c2        1 A62     -0.046000
     23 C19         6.5000    0.3460    5.3460 c1        1 A62     -0.063000
     24 C20         6.0370   -0.6580    6.2160 c2        1 A62     -0.227000
     25 H           2.3260    2.6600    1.8920 h1        1 A62      0.099500
     26 HA         -0.2920   -0.8580    1.2440 ha        1 A62      0.007167
     27 HO          1.9760   -0.0580    1.1340 ho        1 A62      0.237000
     28 H1          0.7930    1.6780    2.1620 h1        1 A62      0.099500
     29 H2          1.2520   -1.9000   -0.7220 ha        1 A62      0.101000
     30 H2A         0.0160   -0.6370    1.8060 ha        1 A62      0.007167
     31 H3          4.8560    0.7750    1.6980 ha        1 A62      0.007167
     32 H3A         4.8790    0.0940    1.6820 ha        1 A62      0.007167
     33 H4          0.7370   -6.1990   -0.9340 ha        1 A62      0.243000
     34 H6          2.1510   -4.3380   -2.5750 ha        1 A62      0.007167
     35 H7          2.4600   -4.2780   -3.1770 ha        1 A62      0.007167
     36 H9          3.4950   -0.4470   -0.3660 ha        1 A62      0.245000
     37 H10         0.4280    2.7930   -1.8770 ha        1 A62      0.225000
     38 H12         1.8560   -1.4610    3.0760 hc        1 A62      0.147000
     39 H12A        3.4230   -1.4800    2.1720 hc        1 A62      0.147000
     40 H13         4.3490   -3.1280    3.9270 h1        1 A62      0.092000
     41 H14         3.2250   -0.4520    5.0540 hc        1 A62      0.135000
     42 H14A        4.6640   -0.5570    3.9480 hc        1 A62      0.135000
     43 H16         6.4440    3.5960    8.0160 ha        1 A62      0.145500
     44 H17         7.8760    2.6710    8.7650 ha        1 A62      0.145500
     45 H19         6.6020   -0.9060    7.1360 ha        1 A62      0.113000
     46 H20         4.5850   -2.1940    6.5780 ha        1 A62      0.139000
     47 HO2         2.4090   -3.8480    4.8140 ho        1 A62      0.222000
     48 CL          5.4050   -0.4940   -3.5160 cl        1 A62      0.002000
     49 O1          2.3790   -4.4710    2.6680 o         1 A62     -0.290000
     50 CL1         8.4240    1.9270    4.4540 cl        1 A62     -0.009000
@<TRIPOS>BOND
     1    1    3 1   
     2    1    4 1   
     3    1   25 1   
     4    1   28 1   
     5    2    5 1   
     6    2    7 1   
     7    2   15 1   
     8    3   27 1   
     9    4    9 1   
    10    5   29 1   
    11    6   17 1   
    12    6   47 1   
    13    7    8 1   
    14    8   33 1   
    15    9   37 1   
    16   10   11 1   
    17   11   12 1   
    18   12   13 1   
    19   12   48 1   
    20   13   14 1   
    21   13   36 1   
    22   15   16 1   
    23   15   49 1   
    24   16   17 1   
    25   16   38 1   
    26   16   39 1   
    27   17   18 1   
    28   17   40 1   
    29   18   19 1   
    30   18   41 1   
    31   18   42 1   
    32   19   24 1   
    33   19   46 1   
    34   20   21 1   
    35   20   43 1   
    36   20   44 1   
    37   21   22 1   
    38   22   23 1   
    39   22   50 1   
    40   23   24 1   
    41   24   45 1   
    42   26   30 1   
    43   31   32 1   
    44   34   35 1   
@<TRIPOS>SUBSTRUCTURE
     1 A62         1 TEMP              0 ****  ****    0 ROOT
