@<TRIPOS>MOLECULE
A62
   50    47     1     0     0
SMALL
bcc


@<TRIPOS>ATOM
      1 C           0.0920   -0.9710    2.7160 c1        1 A62     -0.030000
      2 N           3.9680   -1.0080    1.3290 ns        1 A62     -0.225000
      3 O           0.5600    0.2220    2.6410 oh        1 A62     -0.188000
      4 C1          1.9880    0.5420   -0.8820 c2        1 A62     -0.162000
      5 C2          0.9880    1.3410   -0.5180 c2        1 A62     -0.201000
      6 O2          3.8790   -2.4350    5.1590 oh        1 A62     -0.329000
      7 C3          2.7150   -0.7290    1.0430 c1        1 A62     -0.125000
      8 C4          2.1630   -0.8440   -0.3460 c3        1 A62     -0.081000
      9 C5          2.9370   -1.7440   -1.2510 c2        1 A62     -0.141000
     10 C6          1.0420   -1.9500   -5.2930 c2        1 A62     -0.131000
     11 C7          2.2470   -1.5440   -5.0440 c1        1 A62     -0.150000
     12 C8          3.4660   -1.1320   -4.8010 c2        1 A62     -0.009000
     13 C9          4.0950   -1.0790   -3.4910 c2        1 A62     -0.069000
     14 C10         3.4990   -1.3990   -2.3730 c1        1 A62     -0.135000
     15 C11         4.4980   -0.8740    2.6550 c2        1 A62      0.327000
     16 C12         3.5460   -0.5600    3.7780 c3        1 A62     -0.166000
     17 C13         4.1010   -1.0310    5.1220 c3        1 A62      0.034000
     18 C14         3.3710   -0.3290    6.2660 c3        1 A62     -0.162000
     19 C15         4.0140   -0.4940    7.5930 c2        1 A62     -0.101000
     20 C16         8.3960    0.3790    7.0690 c2        1 A62     -0.133000
     21 C17         7.8890   -0.6820    7.6120 c1        1 A62     -0.150000
     22 C18         7.3850   -1.7620    8.1550 c2        1 A62     -0.009000
     23 C19         5.9720   -2.1040    8.2060 c2        1 A62     -0.064000
     24 C20         5.0030   -1.2920    7.8720 c1        1 A62     -0.174000
     25 H          -1.4880   -0.7630    0.9410 ha        1 A62      0.004500
     26 HA          0.6780   -1.7720    2.1930 ha        1 A62     -0.013000
     27 HO          1.4030    0.3280    2.1160 ho        1 A62      0.199000
     28 H1         -0.9790   -0.9180    0.5190 ha        1 A62      0.004500
     29 H2          0.2200    1.0420    0.2120 ha        1 A62      0.122500
     30 H2A         0.8730    2.3530   -0.9270 ha        1 A62      0.122500
     31 H3          2.7460    0.8610   -1.6170 ha        1 A62      0.135000
     32 H3A         4.6410   -1.3150    0.6440 hn        1 A62      0.203000
     33 H4          1.1370   -1.3140   -0.2090 hc        1 A62      0.141000
     34 H6          0.1790   -1.2670   -5.2860 ha        1 A62      0.141000
     35 H7          0.8120   -3.0030   -5.5200 ha        1 A62      0.141000
     36 H9          5.1500   -0.7420   -3.4740 ha        1 A62      0.160000
     37 H10         2.9960   -2.7950   -0.9090 ha        1 A62      0.146000
     38 H12         2.5490   -1.0500    3.5990 hc        1 A62      0.136000
     39 H12A        3.3900    0.5520    3.7920 hc        1 A62      0.136000
     40 H13         5.2070   -0.8210    5.1810 h1        1 A62      0.107000
     41 H14         2.3200   -0.7270    6.3240 hc        1 A62      0.110000
     42 H14A        3.3080    0.7700    6.0410 hc        1 A62      0.110000
     43 H16         8.6980    0.4090    6.0100 ha        1 A62      0.141000
     44 H17         8.5520    1.3110    7.6350 ha        1 A62      0.141000
     45 H19         5.7350   -3.1270    8.5570 ha        1 A62      0.158000
     46 H20         3.5730    0.1290    8.3950 ha        1 A62      0.147000
     47 HO2         4.2780   -2.7560    5.9790 ho        1 A62      0.214000
     48 Cl          4.4460   -0.6010   -6.1030 cl        1 A62     -0.019000
     49 O1          5.7210   -1.0080    2.7810 o         1 A62     -0.295000
     50 Cl1         8.4380   -2.9070    8.8750 cl        1 A62     -0.019000
@<TRIPOS>BOND
     1    1    3 1   
     2    1   26 1   
     3    2    7 1   
     4    2   15 1   
     5    2   32 1   
     6    3   27 1   
     7    4    5 1   
     8    4    8 1   
     9    4   31 1   
    10    5   29 1   
    11    5   30 1   
    12    6   17 1   
    13    6   47 1   
    14    7    8 1   
    15    8    9 1   
    16    8   33 1   
    17    9   14 1   
    18    9   37 1   
    19   10   11 1   
    20   10   34 1   
    21   10   35 1   
    22   11   12 1   
    23   12   13 1   
    24   12   48 1   
    25   13   14 1   
    26   13   36 1   
    27   15   16 1   
    28   15   49 1   
    29   16   17 1   
    30   16   38 1   
    31   16   39 1   
    32   17   18 1   
    33   17   40 1   
    34   18   19 1   
    35   18   41 1   
    36   18   42 1   
    37   19   24 1   
    38   19   46 1   
    39   20   21 1   
    40   20   43 1   
    41   20   44 1   
    42   21   22 1   
    43   22   23 1   
    44   22   50 1   
    45   23   24 1   
    46   23   45 1   
    47   25   28 1   
@<TRIPOS>SUBSTRUCTURE
     1 A62         1 TEMP              0 ****  ****    0 ROOT
