@<TRIPOS>MOLECULE
A63
   31    33     1     0     0
SMALL
bcc


@<TRIPOS>ATOM
      1 CAQ        -6.0260    1.2760   -0.1120 c3        1 A63      0.111700
      2 OAO        -5.3960    0.0400    0.2130 os        1 A63     -0.322900
      3 CAK        -4.0210    0.0140    0.1290 ca        1 A63      0.148100
      4 CAM        -3.2270    1.1040   -0.2510 ca        1 A63     -0.189000
      5 CAI        -1.8430    0.9550   -0.3000 ca        1 A63     -0.057000
      6 CAL        -3.4310   -1.2220    0.4610 ca        1 A63     -0.189000
      7 CAJ        -2.0520   -1.3550    0.4060 ca        1 A63     -0.057000
      8 CAG        -1.2450   -0.2710    0.0200 ca        1 A63     -0.117800
      9 CAA         0.2060   -0.4330   -0.0500 cc        1 A63      0.205900
     10 OAC         0.8590    0.7750    0.1600 os        1 A63     -0.227200
     11 CAF         2.2440    0.7590    0.1150 ca        1 A63      0.143100
     12 CAP         2.8650    2.0040    0.3320 ca        1 A63     -0.160000
     13 CAS         4.2520    2.0690    0.3030 ca        1 A63     -0.079000
     14 CAR         5.0170    0.9210    0.0640 ca        1 A63     -0.166000
     15 CAN         4.3960   -0.3030   -0.1480 ca        1 A63     -0.047000
     16 CAE         2.9960   -0.4010   -0.1260 ca        1 A63     -0.214600
     17 CAD         2.3110   -1.6830   -0.3480 c         1 A63      0.590900
     18 OAH         2.9140   -2.7450   -0.5620 o         1 A63     -0.547100
     19 CAB         0.8540   -1.5960   -0.2960 cd        1 A63     -0.325200
     20 H1         -5.8130    1.5600   -1.1710 h1        1 A63      0.048033
     21 H2         -7.1140    1.0550    0.0270 h1        1 A63      0.048033
     22 H3         -5.6940    2.0820    0.5860 h1        1 A63      0.048033
     23 H4         -3.6780    2.0720   -0.5090 ha        1 A63      0.149500
     24 H5         -1.2110    1.8080   -0.5930 ha        1 A63      0.147500
     25 H6         -4.0730   -2.0630    0.7610 ha        1 A63      0.149500
     26 H7         -1.5870   -2.3170    0.6740 ha        1 A63      0.147500
     27 H8          2.2490    2.8940    0.5200 ha        1 A63      0.153000
     28 H9          4.7530    3.0350    0.4720 ha        1 A63      0.139000
     29 H10         6.1150    0.9920    0.0460 ha        1 A63      0.141000
     30 H11         4.9840   -1.2160   -0.3370 ha        1 A63      0.161000
     31 H12         0.2970   -2.5270   -0.4770 ha        1 A63      0.168000
@<TRIPOS>BOND
     1    1    2 1   
     2    1   20 1   
     3    1   21 1   
     4    1   22 1   
     5    2    3 1   
     6    3    4 ar  
     7    3    6 ar  
     8    4    5 ar  
     9    4   23 1   
    10    5    8 ar  
    11    5   24 1   
    12    6    7 ar  
    13    6   25 1   
    14    7    8 ar  
    15    7   26 1   
    16    8    9 1   
    17    9   10 1   
    18    9   19 2   
    19   10   11 1   
    20   11   12 ar  
    21   11   16 ar  
    22   12   13 ar  
    23   12   27 1   
    24   13   14 ar  
    25   13   28 1   
    26   14   15 ar  
    27   14   29 1   
    28   15   16 ar  
    29   15   30 1   
    30   16   17 1   
    31   17   18 2   
    32   17   19 1   
    33   19   31 1   
@<TRIPOS>SUBSTRUCTURE
     1 A63         1 TEMP              0 ****  ****    0 ROOT
