@<TRIPOS>MOLECULE
A63
   31    33     1     0     0
SMALL
bcc


@<TRIPOS>ATOM
      1 CAQ        -0.0340   -0.1410   -0.0300 c3        1 A63      0.111700
      2 OAO         1.3520    0.1820    0.0330 os        1 A63     -0.322900
      3 CAK         1.9420    0.1050    1.2760 ca        1 A63      0.148100
      4 CAM         1.2740   -0.2660    2.4510 ca        1 A63     -0.189000
      5 CAI         1.9800   -0.3080    3.6500 ca        1 A63     -0.057000
      6 CAL         3.3110    0.4350    1.3020 ca        1 A63     -0.189000
      7 CAJ         4.0000    0.3870    2.5050 ca        1 A63     -0.057000
      8 CAG         3.3440    0.0100    3.6890 ca        1 A63     -0.117800
      9 CAA         4.0880   -0.0540    4.9450 cc        1 A63      0.205900
     10 OAC         3.2570    0.1650    6.0360 os        1 A63     -0.227200
     11 CAF         3.8410    0.1270    7.2930 ca        1 A63      0.143100
     12 CAP         2.9630    0.3510    8.3690 ca        1 A63     -0.160000
     13 CAS         3.4740    0.3300    9.6600 ca        1 A63     -0.079000
     14 CAR         4.8350    0.0910    9.8860 ca        1 A63     -0.166000
     15 CAN         5.6950   -0.1300    8.8180 ca        1 A63     -0.047000
     16 CAE         5.2080   -0.1140    7.5020 ca        1 A63     -0.214600
     17 CAD         6.0940   -0.3450    6.3510 c         1 A63      0.590900
     18 OAH         7.3090   -0.5600    6.4640 o         1 A63     -0.547100
     19 CAB         5.4140   -0.3010    5.0580 cd        1 A63     -0.325200
     20 H1         -0.2070   -1.1970    0.2880 h1        1 A63      0.048033
     21 H2         -0.6310    0.5630    0.6000 h1        1 A63      0.048033
     22 H3         -0.2810   -0.0080   -1.1140 h1        1 A63      0.048033
     23 H4          0.2060   -0.5220    2.4390 ha        1 A63      0.149500
     24 H5          1.4620   -0.5940    4.5800 ha        1 A63      0.147500
     25 H6          3.8140    0.7280    0.3690 ha        1 A63      0.149500
     26 H7          5.0690    0.6530    2.5300 ha        1 A63      0.147500
     27 H8          1.8980    0.5390    8.1730 ha        1 A63      0.153000
     28 H9          2.8010    0.5050   10.5130 ha        1 A63      0.139000
     29 H10         5.2220    0.0780   10.9160 ha        1 A63      0.141000
     30 H11         6.7690   -0.3190    8.9780 ha        1 A63      0.161000
     31 H12         6.0340   -0.4880    4.1690 ha        1 A63      0.168000
@<TRIPOS>BOND
     1    1    2 1   
     2    1   20 1   
     3    1   21 1   
     4    1   22 1   
     5    2    3 1   
     6    3    4 ar  
     7    3    6 ar  
     8    4    5 ar  
     9    4   23 1   
    10    5    8 ar  
    11    5   24 1   
    12    6    7 ar  
    13    6   25 1   
    14    7    8 ar  
    15    7   26 1   
    16    8    9 1   
    17    9   10 1   
    18    9   19 2   
    19   10   11 1   
    20   11   12 ar  
    21   11   16 ar  
    22   12   13 ar  
    23   12   27 1   
    24   13   14 ar  
    25   13   28 1   
    26   14   15 ar  
    27   14   29 1   
    28   15   16 ar  
    29   15   30 1   
    30   16   17 1   
    31   17   18 2   
    32   17   19 1   
    33   19   31 1   
@<TRIPOS>SUBSTRUCTURE
     1 A63         1 TEMP              0 ****  ****    0 ROOT
