@<TRIPOS>MOLECULE
A63
   31    27     1     0     0
SMALL
bcc


@<TRIPOS>ATOM
      1 CAQ        -1.8800   -0.6540   -5.5960 c3        1 A63     -0.078000
      2 OAO        -2.3820    0.3640   -4.7110 os        1 A63     -0.206000
      3 CAK        -1.8000    0.3350   -3.4040 c2        1 A63      0.103000
      4 CAM        -0.7120    1.1590   -3.1070 c2        1 A63     -0.164000
      5 CAI        -0.1830    1.1710   -1.8310 c1        1 A63     -0.065000
      6 CAL        -2.3470   -0.4690   -2.4220 c1        1 A63     -0.214000
      7 CAJ        -1.8120   -0.4570   -1.1350 c1        1 A63     -0.049000
      8 CAG        -0.7310    0.3640   -0.8420 c1        1 A63     -0.106000
      9 CAA        -0.1340    0.3610    0.5470 c2        1 A63      0.124000
     10 OAC         0.9700   -0.5160    0.8530 os        1 A63     -0.138000
     11 CAF         1.5650   -0.5300    2.2360 c2        1 A63      0.124000
     12 CAP         2.6260   -1.4080    2.5360 c2        1 A63     -0.160000
     13 CAS         3.1810   -1.4190    3.8180 c1        1 A63     -0.079000
     14 CAR         2.6800   -0.5530    4.8120 c1        1 A63     -0.106500
     15 CAN         1.6250    0.3210    4.5140 c1        1 A63     -0.106500
     16 CAE         1.0660    0.3350    3.2290 c1        1 A63     -0.194000
     17 CAD        -0.0720    1.2850    2.9070 c1        1 A63      0.312000
     18 OAH        -0.4640    2.0960    3.7580 o         1 A63     -0.308000
     19 CAB        -0.6670    1.2740    1.5850 c1        1 A63     -0.306000
     20 H1         -0.9160   -0.6690   -5.5560 h1        1 A63      0.087333
     21 H2         -2.1690   -0.4560   -6.5230 h1        1 A63      0.087333
     22 H3         -2.2350   -1.5370   -5.3210 h1        1 A63      0.087333
     23 H4         -0.3280    1.7250   -3.7970 ha        1 A63      0.156000
     24 H5          0.5770    1.7470   -1.6240 ha        1 A63      0.146000
     25 H6         -3.1150   -1.0500   -2.6310 ha        1 A63      0.143000
     26 H7         -2.1990   -1.0270   -0.4370 ha        1 A63      0.149000
     27 H8          2.9760   -2.0110    1.8430 ha        1 A63      0.153000
     28 H9          3.9290   -2.0370    4.0300 ha        1 A63      0.139000
     29 H10         3.0660   -0.5610    5.7030 ha        1 A63      0.151000
     30 H11         1.2790    0.9180    5.2000 ha        1 A63      0.151000
     31 H12        -1.3950    1.9000    1.3650 ha        1 A63      0.168000
@<TRIPOS>BOND
     1    1    2 1   
     2    1   20 1   
     3    1   21 1   
     4    1   22 1   
     5    2    3 1   
     6    3    4 1   
     7    3    6 1   
     8    4    5 1   
     9    4   23 1   
    10    5   24 1   
    11    6   25 1   
    12    7    8 1   
    13    7   26 1   
    14    8    9 1   
    15    9   10 1   
    16    9   19 1   
    17   10   11 1   
    18   11   12 1   
    19   11   16 1   
    20   12   13 1   
    21   12   27 1   
    22   13   28 1   
    23   14   15 1   
    24   14   29 1   
    25   15   30 1   
    26   17   18 1   
    27   19   31 1   
@<TRIPOS>SUBSTRUCTURE
     1 A63         1 TEMP              0 ****  ****    0 ROOT
