@<TRIPOS>MOLECULE
A64
   36    38     1     0     0
SMALL
bcc


@<TRIPOS>ATOM
      1 CAS        -5.8960   -0.3070    1.0970 c3        1 A64     -0.089100
      2 CAP        -3.7200    0.3110    0.0710 ca        1 A64     -0.048300
      3 CAO        -2.8430    1.3600    0.3710 ca        1 A64     -0.135000
      4 CAN        -1.4670    1.1490    0.3880 ca        1 A64     -0.090000
      5 CAL        -3.1950   -0.9550   -0.2150 ca        1 A64     -0.135000
      6 CAM        -1.8200   -1.1730   -0.2000 ca        1 A64     -0.090000
      7 CAK        -0.9450   -0.1220    0.1080 ca        1 A64     -0.083800
      8 CAI         0.4990   -0.3600    0.1420 cc        1 A64      0.199900
      9 OAJ         1.2080    0.7960   -0.1560 os        1 A64     -0.225200
     10 CAF         2.5920    0.7050   -0.1510 ca        1 A64      0.143100
     11 CAA         3.2710    1.8990   -0.4570 ca        1 A64     -0.160000
     12 CAB         4.6600    1.8880   -0.4730 ca        1 A64     -0.079000
     13 CAC         5.3690    0.7140   -0.1920 ca        1 A64     -0.166000
     14 CAD         4.6900   -0.4590    0.1090 ca        1 A64     -0.047000
     15 CAE         3.2870   -0.4800    0.1330 ca        1 A64     -0.214600
     16 CAG         2.5410   -1.7080    0.4480 c         1 A64      0.590900
     17 OAQ         3.0920   -2.7880    0.7040 o         1 A64     -0.547100
     18 CAH         1.0890   -1.5420    0.4340 cd        1 A64     -0.321200
     19 C1         -5.1980    0.5490    0.0580 c3        1 A64     -0.028400
     20 C          -5.7770    0.2910   -1.3210 c3        1 A64     -0.089100
     21 HAS1       -5.4900   -0.0940    2.1150 hc        1 A64      0.038367
     22 HAS2       -6.9910   -0.0880    1.0970 hc        1 A64      0.038367
     23 HAS3       -5.7510   -1.3920    0.8770 hc        1 A64      0.038367
     24 H1         -5.3890    1.6320    0.3160 hc        1 A64      0.053700
     25 HAO        -3.2400    2.3610    0.5960 ha        1 A64      0.138500
     26 HAL        -3.8750   -1.7860   -0.4570 ha        1 A64      0.138500
     27 HAN        -0.7820    1.9790    0.6200 ha        1 A64      0.145000
     28 HAM        -1.4210   -2.1720   -0.4360 ha        1 A64      0.145000
     29 HAH         0.4880   -2.4300    0.6820 ha        1 A64      0.168000
     30 HAA         2.6990    2.8110   -0.6770 ha        1 A64      0.153000
     31 HAB         5.2070    2.8130   -0.7110 ha        1 A64      0.139000
     32 HAC         6.4690    0.7250   -0.2090 ha        1 A64      0.141000
     33 HAD         5.2330   -1.3930    0.3330 ha        1 A64      0.161000
     34 HC1        -5.6290   -0.7750   -1.6180 hc        1 A64      0.038367
     35 HC2        -6.8720    0.5100   -1.3200 hc        1 A64      0.038367
     36 HC3        -5.2830    0.9430   -2.0800 hc        1 A64      0.038367
@<TRIPOS>BOND
     1    1   19 1   
     2    1   21 1   
     3    1   22 1   
     4    1   23 1   
     5    2    3 ar  
     6    2    5 ar  
     7    2   19 1   
     8    3    4 ar  
     9    3   25 1   
    10    4    7 ar  
    11    4   27 1   
    12    5    6 ar  
    13    5   26 1   
    14    6    7 ar  
    15    6   28 1   
    16    7    8 1   
    17    8    9 1   
    18    8   18 2   
    19    9   10 1   
    20   10   11 ar  
    21   10   15 ar  
    22   11   12 ar  
    23   11   30 1   
    24   12   13 ar  
    25   12   31 1   
    26   13   14 ar  
    27   13   32 1   
    28   14   15 ar  
    29   14   33 1   
    30   15   16 1   
    31   16   17 2   
    32   16   18 1   
    33   18   29 1   
    34   19   20 1   
    35   19   24 1   
    36   20   34 1   
    37   20   35 1   
    38   20   36 1   
@<TRIPOS>SUBSTRUCTURE
     1 A64         1 TEMP              0 ****  ****    0 ROOT
