@<TRIPOS>MOLECULE
A64
   36    38     1     0     0
SMALL
bcc


@<TRIPOS>ATOM
      1 CAS         0.0120    0.0600    0.2470 c3        1 A64     -0.089100
      2 CAP         1.9560    1.2520   -0.7370 ca        1 A64     -0.048300
      3 CAO         2.4980    1.1920   -2.0260 ca        1 A64     -0.135000
      4 CAN         2.9270    2.3500   -2.6690 ca        1 A64     -0.090000
      5 CAL         1.8530    2.4960   -0.1000 ca        1 A64     -0.135000
      6 CAM         2.2790    3.6570   -0.7380 ca        1 A64     -0.090000
      7 CAK         2.8150    3.5930   -2.0320 ca        1 A64     -0.083800
      8 CAI         3.2440    4.8190   -2.7060 cc        1 A64      0.199900
      9 OAJ         4.2560    4.5640   -3.6230 os        1 A64     -0.225200
     10 CAF         4.7480    5.6460   -4.3360 ca        1 A64      0.143100
     11 CAA         5.7700    5.3430   -5.2540 ca        1 A64     -0.160000
     12 CAB         6.3160    6.3750   -6.0050 ca        1 A64     -0.079000
     13 CAC         5.8590    7.6900   -5.8530 ca        1 A64     -0.166000
     14 CAD         4.8500    7.9790   -4.9440 ca        1 A64     -0.047000
     15 CAE         4.2780    6.9580   -4.1700 ca        1 A64     -0.214600
     16 CAG         3.2080    7.2350   -3.2000 c         1 A64      0.590900
     17 OAQ         2.7500    8.3690   -3.0010 o         1 A64     -0.547100
     18 CAH         2.7290    6.0510   -2.4890 cd        1 A64     -0.321200
     19 C1          1.4980    0.0010   -0.0550 c3        1 A64     -0.028400
     20 C           2.2900   -0.2480    1.2140 c3        1 A64     -0.089100
     21 HAS1       -0.2150    0.9000    0.9470 hc        1 A64      0.038367
     22 HAS2       -0.5710    0.2130   -0.6920 hc        1 A64      0.038367
     23 HAS3       -0.3170   -0.8960    0.7210 hc        1 A64      0.038367
     24 H1          1.6750   -0.8710   -0.7500 hc        1 A64      0.053700
     25 HAO         2.5880    0.2220   -2.5390 ha        1 A64      0.138500
     26 HAL         1.4330    2.5550    0.9160 ha        1 A64      0.138500
     27 HAN         3.3560    2.2940   -3.6820 ha        1 A64      0.145000
     28 HAM         2.2000    4.6260   -0.2210 ha        1 A64      0.145000
     29 HAH         1.9150    6.2060   -1.7660 ha        1 A64      0.168000
     30 HAA         6.1180    4.3060   -5.3590 ha        1 A64      0.153000
     31 HAB         7.1170    6.1550   -6.7280 ha        1 A64      0.139000
     32 HAC         6.3030    8.4950   -6.4570 ha        1 A64      0.141000
     33 HAD         4.4780    9.0090   -4.8120 ha        1 A64      0.161000
     34 HC1         3.3800   -0.3200    0.9860 hc        1 A64      0.038367
     35 HC2         2.1350    0.5820    1.9450 hc        1 A64      0.038367
     36 HC3         1.9590   -1.2040    1.6880 hc        1 A64      0.038367
@<TRIPOS>BOND
     1    1   19 1   
     2    1   21 1   
     3    1   22 1   
     4    1   23 1   
     5    2    3 ar  
     6    2    5 ar  
     7    2   19 1   
     8    3    4 ar  
     9    3   25 1   
    10    4    7 ar  
    11    4   27 1   
    12    5    6 ar  
    13    5   26 1   
    14    6    7 ar  
    15    6   28 1   
    16    7    8 1   
    17    8    9 1   
    18    8   18 2   
    19    9   10 1   
    20   10   11 ar  
    21   10   15 ar  
    22   11   12 ar  
    23   11   30 1   
    24   12   13 ar  
    25   12   31 1   
    26   13   14 ar  
    27   13   32 1   
    28   14   15 ar  
    29   14   33 1   
    30   15   16 1   
    31   16   17 2   
    32   16   18 1   
    33   18   29 1   
    34   19   20 1   
    35   19   24 1   
    36   20   34 1   
    37   20   35 1   
    38   20   36 1   
@<TRIPOS>SUBSTRUCTURE
     1 A64         1 TEMP              0 ****  ****    0 ROOT
