@<TRIPOS>MOLECULE
A64
   36    38     1     0     0
SMALL
bcc


@<TRIPOS>ATOM
      1 CAS         0.0090    0.0620    0.2460 c3        1 A64     -0.089100
      2 CAP         1.9530    1.2500   -0.7420 ca        1 A64     -0.048300
      3 CAO         2.4890    1.1940   -2.0340 ca        1 A64     -0.135000
      4 CAN         2.9190    2.3530   -2.6740 ca        1 A64     -0.090000
      5 CAL         1.8590    2.4910   -0.0990 ca        1 A64     -0.135000
      6 CAM         2.2860    3.6540   -0.7340 ca        1 A64     -0.090000
      7 CAK         2.8160    3.5930   -2.0300 ca        1 A64     -0.083800
      8 CAI         3.2470    4.8210   -2.7010 cc        1 A64      0.199900
      9 OAJ         4.2530    4.5650   -3.6240 os        1 A64     -0.225200
     10 CAF         4.7470    5.6480   -4.3340 ca        1 A64      0.143100
     11 CAA         5.7630    5.3450   -5.2590 ca        1 A64     -0.160000
     12 CAB         6.3100    6.3780   -6.0090 ca        1 A64     -0.079000
     13 CAC         5.8590    7.6940   -5.8480 ca        1 A64     -0.166000
     14 CAD         4.8560    7.9840   -4.9330 ca        1 A64     -0.047000
     15 CAE         4.2840    6.9620   -4.1600 ca        1 A64     -0.214600
     16 CAG         3.2200    7.2390   -3.1830 c         1 A64      0.590900
     17 OAQ         2.7680    8.3740   -2.9770 o         1 A64     -0.547100
     18 CAH         2.7390    6.0540   -2.4760 cd        1 A64     -0.321200
     19 C1          1.4920   -0.0020   -0.0640 c3        1 A64     -0.028400
     20 C           2.2890   -0.2600    1.2010 c3        1 A64     -0.089100
     21 HAS1       -0.2110    0.9000    0.9500 hc        1 A64      0.038367
     22 HAS2       -0.5790    0.2220   -0.6900 hc        1 A64      0.038367
     23 HAS3       -0.3230   -0.8940    0.7170 hc        1 A64      0.038367
     24 H1          1.6630   -0.8720   -0.7640 hc        1 A64      0.053700
     25 HAO         2.5730    0.2260   -2.5520 ha        1 A64      0.138500
     26 HAL         1.4430    2.5480    0.9190 ha        1 A64      0.138500
     27 HAN         3.3440    2.3000   -3.6890 ha        1 A64      0.145000
     28 HAM         2.2140    4.6210   -0.2120 ha        1 A64      0.145000
     29 HAH         1.9290    6.2090   -1.7470 ha        1 A64      0.168000
     30 HAA         6.1060    4.3070   -5.3710 ha        1 A64      0.153000
     31 HAB         7.1060    6.1580   -6.7360 ha        1 A64      0.139000
     32 HAC         6.3040    8.5000   -6.4510 ha        1 A64      0.141000
     33 HAD         4.4900    9.0150   -4.7930 ha        1 A64      0.161000
     34 HC1         3.3780   -0.3360    0.9670 hc        1 A64      0.038367
     35 HC2         2.1420    0.5670    1.9360 hc        1 A64      0.038367
     36 HC3         1.9570   -1.2160    1.6710 hc        1 A64      0.038367
@<TRIPOS>BOND
     1    1   19 1   
     2    1   21 1   
     3    1   22 1   
     4    1   23 1   
     5    2    3 ar  
     6    2    5 ar  
     7    2   19 1   
     8    3    4 ar  
     9    3   25 1   
    10    4    7 ar  
    11    4   27 1   
    12    5    6 ar  
    13    5   26 1   
    14    6    7 ar  
    15    6   28 1   
    16    7    8 1   
    17    8    9 1   
    18    8   18 2   
    19    9   10 1   
    20   10   11 ar  
    21   10   15 ar  
    22   11   12 ar  
    23   11   30 1   
    24   12   13 ar  
    25   12   31 1   
    26   13   14 ar  
    27   13   32 1   
    28   14   15 ar  
    29   14   33 1   
    30   15   16 1   
    31   16   17 2   
    32   16   18 1   
    33   18   29 1   
    34   19   20 1   
    35   19   24 1   
    36   20   34 1   
    37   20   35 1   
    38   20   36 1   
@<TRIPOS>SUBSTRUCTURE
     1 A64         1 TEMP              0 ****  ****    0 ROOT
