@<TRIPOS>MOLECULE
A64
   36    33     1     0     0
SMALL
bcc


@<TRIPOS>ATOM
      1 CAS        -2.6280    3.5350    2.6970 c3        1 A64     -0.207000
      2 CAP        -0.7840    2.6030    1.3430 c1        1 A64     -0.041000
      3 CAO        -0.5920    2.6150   -0.0300 c1        1 A64     -0.108750
      4 CAN        -0.1590    1.4690   -0.6790 c1        1 A64     -0.108750
      5 CAL        -0.5430    1.4460    2.0660 c1        1 A64     -0.133000
      6 CAM        -0.1100    0.3000    1.4170 c1        1 A64     -0.095000
      7 CAK         0.0820    0.3120    0.0440 c1        1 A64     -0.072000
      8 CAI         0.6240   -0.9160   -0.6530 c2        1 A64      0.144000
      9 OAJ        -0.2750   -1.9320   -1.1200 os        1 A64     -0.136000
     10 CAF         0.2460   -3.0850   -1.9130 c2        1 A64      0.098000
     11 CAA        -0.6450   -3.9870   -2.5030 c2        1 A64     -0.160000
     12 CAB        -0.1580   -5.0890   -3.2080 c1        1 A64     -0.079000
     13 CAC         1.2260   -5.2930   -3.3250 c1        1 A64     -0.108750
     14 CAD         2.1170   -4.3940   -2.7370 c1        1 A64     -0.108750
     15 CAE         1.6320   -3.2900   -2.0310 c1        1 A64     -0.194000
     16 CAG         2.5900   -2.2690   -1.4790 c2        1 A64      0.312000
     17 OAQ         3.7820   -2.3840   -1.6810 o         1 A64     -0.308000
     18 CAH         2.0800   -1.0940   -0.8090 c2        1 A64     -0.302000
     19 C1         -1.2970    3.8410    2.0460 c3        1 A64     -0.075000
     20 C          -0.3040    4.2690    3.1030 c3        1 A64     -0.207000
     21 HAS1       -3.2580    3.2150    2.0190 hc        1 A64      0.077667
     22 HAS2       -2.5050    2.8430    3.3810 hc        1 A64      0.077667
     23 HAS3       -2.9810    4.3480    3.1150 hc        1 A64      0.077667
     24 H1         -1.4110    4.5600    1.3960 hc        1 A64      0.093000
     25 HAO        -0.7620    3.4300   -0.5390 ha        1 A64      0.147000
     26 HAL        -0.6780    1.4380    3.0330 ha        1 A64      0.139000
     27 HAN        -0.0240    1.4780   -1.6460 ha        1 A64      0.147000
     28 HAM         0.0600   -0.5150    1.9270 ha        1 A64      0.142000
     29 HAH         2.6900   -0.3780   -0.5470 ha        1 A64      0.168000
     30 HAA        -1.6070   -3.8460   -2.4220 ha        1 A64      0.153000
     31 HAB        -0.7810   -5.7180   -3.6200 ha        1 A64      0.139000
     32 HAC         1.5650   -6.0630   -3.8190 ha        1 A64      0.147000
     33 HAD         3.0790   -4.5360   -2.8200 ha        1 A64      0.147000
     34 HC1         0.5810    4.3790    2.6950 hc        1 A64      0.077667
     35 HC2        -0.2580    3.5860    3.8040 hc        1 A64      0.077667
     36 HC3        -0.5910    5.1200    3.4950 hc        1 A64      0.077667
@<TRIPOS>BOND
     1    1   19 1   
     2    1   21 1   
     3    1   22 1   
     4    1   23 1   
     5    2    5 1   
     6    2   19 1   
     7    3    4 1   
     8    3   25 1   
     9    4   27 1   
    10    5   26 1   
    11    6    7 1   
    12    6   28 1   
    13    7    8 1   
    14    8    9 1   
    15    8   18 1   
    16    9   10 1   
    17   10   11 1   
    18   10   15 1   
    19   11   12 1   
    20   11   30 1   
    21   12   31 1   
    22   13   14 1   
    23   13   32 1   
    24   14   33 1   
    25   15   16 1   
    26   16   17 1   
    27   16   18 1   
    28   18   29 1   
    29   19   20 1   
    30   19   24 1   
    31   20   34 1   
    32   20   35 1   
    33   20   36 1   
@<TRIPOS>SUBSTRUCTURE
     1 A64         1 TEMP              0 ****  ****    0 ROOT
