@<TRIPOS>MOLECULE
A66
   49    50     1     0     0
SMALL
bcc


@<TRIPOS>ATOM
      1 C8'         3.4130    0.0320   -3.6000 c3        1 A66     -0.057700
      2 C7'         2.6910   -0.6290   -2.4130 c         1 A66      0.642100
      3 O7'         2.8180   -1.8540   -2.1790 o         1 A66     -0.655100
      4 C5'         1.5720    1.5340   -2.0130 c3        1 A66     -0.056300
      5 C'          0.3780    1.5300   -3.0410 c         1 A66      0.903600
      6 O1'        -0.7930    1.5630   -2.5870 o         1 A66     -0.820800
      7 OXT         0.7070    1.4730   -4.2580 o         1 A66     -0.820800
      8 N4'         1.9080    0.1730   -1.5960 n         1 A66     -0.408800
      9 C3'         0.9370   -0.4950   -0.7500 c3        1 A66      0.032000
     10 C2'         1.3670   -0.5750    0.7350 c3        1 A66      0.132800
     11 N1'         0.4290   -1.2510    1.5970 n3        1 A66     -0.904800
     12 N9          4.2520   -0.8560   -4.3520 na        1 A66     -0.230000
     13 C8          3.9510   -2.1780   -4.7530 cc        1 A66      0.452700
     14 N7          4.9370   -2.7720   -5.4470 nd        1 A66     -0.582100
     15 C5          5.9610   -1.8160   -5.5090 ca        1 A66     -0.211200
     16 C6          7.2650   -1.8240   -6.0990 ca        1 A66      0.721200
     17 N6          7.6750   -2.9130   -6.8550 nh        1 A66     -0.940500
     18 N1          8.0700   -0.7240   -5.9550 nb        1 A66     -0.799000
     19 C2          7.5560    0.3420   -5.2770 ca        1 A66      0.661900
     20 N3          6.3530    0.5040   -4.6870 nb        1 A66     -0.715000
     21 C4          5.5510   -0.5990   -4.8080 ca        1 A66      0.442800
     22 CB          1.2440    2.4840   -0.8620 c3        1 A66     -0.067400
     23 CG          2.4700    2.8760   -0.0660 c3        1 A66     -0.084400
     24 CD          2.1180    3.8670    1.0240 c3        1 A66     -0.083400
     25 CE          3.3770    4.3100    1.7660 c3        1 A66      0.152800
     26 NZ          3.1320    5.2750    2.8130 n3        1 A66     -0.915800
     27 H8'1        2.6020    0.4570   -4.2840 h1        1 A66      0.128200
     28 H8'2        4.0540    0.8790   -3.2230 h1        1 A66      0.128200
     29 H5'1        2.4690    1.9690   -2.5430 h1        1 A66      0.045700
     30 H3'1        0.7760   -1.5490   -1.1250 h1        1 A66      0.070700
     31 H3'2       -0.0490    0.0520   -0.8360 h1        1 A66      0.070700
     32 H2'1        1.5130    0.4680    1.1340 h1        1 A66      0.055200
     33 H2'2        2.3530   -1.1140    0.8030 h1        1 A66      0.055200
     34 H1'1        0.2940   -2.1960    1.2920 hn        1 A66      0.337800
     35 H1'2       -0.4610   -0.7880    1.5740 hn        1 A66      0.337800
     36 H8          2.9930   -2.6370   -4.4640 h5        1 A66      0.096800
     37 HN61        7.1690   -3.7540   -6.7080 hn        1 A66      0.421800
     38 HN62        8.6440   -3.0030   -7.0480 hn        1 A66      0.421800
     39 H2          8.2440    1.2110   -5.1980 h5        1 A66      0.040100
     40 HB1         0.7840    3.3980   -1.3250 hc        1 A66      0.056200
     41 HB2         0.4660    2.0410   -0.1880 hc        1 A66      0.056200
     42 HG1         3.2340    3.3280   -0.7520 hc        1 A66      0.038200
     43 HG2         2.9380    1.9640    0.3930 hc        1 A66      0.038200
     44 HD1         1.3970    3.3960    1.7420 hc        1 A66      0.043700
     45 HD2         1.6060    4.7550    0.5700 hc        1 A66      0.043700
     46 HE1         3.8490    3.4080    2.2520 h1        1 A66      0.025200
     47 HE2         4.1160    4.6940    1.0000 h1        1 A66      0.025200
     48 HZ1         2.4550    5.9540    2.5240 hn        1 A66      0.339800
     49 HZ2         3.9810    5.7480    3.0510 hn        1 A66      0.339800
@<TRIPOS>BOND
     1    1    2 1   
     2    1   12 1   
     3    1   27 1   
     4    1   28 1   
     5    2    3 2   
     6    2    8 1   
     7    4    5 1   
     8    4    8 1   
     9    4   22 1   
    10    4   29 1   
    11    5    6 1   
    12    5    7 1   
    13    8    9 1   
    14    9   10 1   
    15    9   30 1   
    16    9   31 1   
    17   10   11 1   
    18   10   32 1   
    19   10   33 1   
    20   11   34 1   
    21   11   35 1   
    22   12   13 1   
    23   12   21 1   
    24   13   14 2   
    25   13   36 1   
    26   14   15 1   
    27   15   16 ar  
    28   15   21 ar  
    29   16   17 1   
    30   16   18 ar  
    31   17   37 1   
    32   17   38 1   
    33   18   19 ar  
    34   19   20 ar  
    35   19   39 1   
    36   20   21 ar  
    37   22   23 1   
    38   22   40 1   
    39   22   41 1   
    40   23   24 1   
    41   23   42 1   
    42   23   43 1   
    43   24   25 1   
    44   24   44 1   
    45   24   45 1   
    46   25   26 1   
    47   25   46 1   
    48   25   47 1   
    49   26   48 1   
    50   26   49 1   
@<TRIPOS>SUBSTRUCTURE
     1 A66         1 TEMP              0 ****  ****    0 ROOT
