@<TRIPOS>MOLECULE
A66
   49    46     1     0     0
SMALL
bcc


@<TRIPOS>ATOM
      1 C8'         0.1200    0.0510    1.3950 c3        1 A66     -0.034700
      2 C7'         0.0790   -1.0140    0.2940 c         1 A66      0.640100
      3 O7'        -0.6290   -1.9900    0.4250 o         1 A66     -0.655100
      4 C5'         0.2010   -0.8100   -2.2000 c3        1 A66     -0.035300
      5 C'         -0.8880   -1.8040   -2.2220 c         1 A66      0.900600
      6 O1'        -0.9080   -2.7410   -1.3550 o         1 A66     -0.824800
      7 OXT        -1.7000   -1.8240   -3.1870 o         1 A66     -0.824800
      8 N4'         0.8640   -0.8460   -0.9070 n         1 A66     -0.411800
      9 C3'         2.2930   -0.8970   -0.8340 c3        1 A66      0.024000
     10 C2'         2.8130    0.2920   -0.0080 c3        1 A66      0.153800
     11 N1'         4.2360    0.5240   -0.3210 n3        1 A66     -0.920800
     12 N9         -0.1220   -0.5660    2.6580 n3        1 A66     -0.090400
     13 C8         -1.3300   -1.0570    3.0200 c1        1 A66      0.208400
     14 N7         -1.3440   -1.1830    4.3720 ne        1 A66     -0.422400
     15 C5         -0.1400   -0.7680    4.8430 cg        1 A66     -0.171000
     16 C6          0.3990   -0.7310    6.1300 c1        1 A66      0.588600
     17 N6         -0.0550   -1.1210    7.3780 n3        1 A66     -0.805400
     18 N1          1.6760   -0.3140    6.3210 n1        1 A66     -0.596800
     19 C2          2.4360    0.0700    5.2540 c1        1 A66      0.387300
     20 N3          1.9100    0.0360    3.9820 n1        1 A66     -0.520800
     21 C4          0.6150   -0.3860    3.7840 c1        1 A66     -0.005300
     22 CB         -0.3750    0.5990   -2.4400 c3        1 A66     -0.075400
     23 CG         -0.8600    0.7050   -3.8750 c3        1 A66     -0.073400
     24 CD         -1.9230    1.8100   -3.9770 c3        1 A66     -0.114400
     25 CE         -3.0740    1.3360   -4.8970 c3        1 A66      0.140800
     26 NZ         -4.2600    2.0680   -4.5870 n3        1 A66     -0.906800
     27 H8'1       -0.5500    0.7060    1.2310 h1        1 A66      0.088200
     28 H8'2        1.0260    0.4900    1.4040 h1        1 A66      0.088200
     29 H5'1        0.8210   -1.0160   -2.8800 h1        1 A66      0.080700
     30 H3'1        2.5580   -1.7090   -0.4150 h1        1 A66      0.069200
     31 H3'2        2.6650   -0.8590   -1.7230 h1        1 A66      0.069200
     32 H2'1        2.2980    1.0860   -0.2220 h1        1 A66      0.026700
     33 H2'2        2.7160    0.0830    0.9870 h1        1 A66      0.026700
     34 H1'1        4.6960    0.6050    0.4360 hn        1 A66      0.378800
     35 H1'2        4.3200    1.3040   -0.8200 hn        1 A66      0.378800
     36 H8         -2.1030   -1.2290    2.4040 DU        1 A66      0.244000
     37 HN61       -0.9330   -1.2060    7.5270 hn        1 A66      0.426300
     38 HN62        0.5570   -1.3520    8.0460 hn        1 A66      0.426300
     39 H2          3.3620    0.3700    5.3940 ha        1 A66      0.122500
     40 HB1        -1.1200    0.7550   -1.8320 hc        1 A66      0.037200
     41 HB2         0.2810    1.2280   -2.2870 hc        1 A66      0.037200
     42 HG1        -1.2420   -0.1280   -4.1420 hc        1 A66      0.054200
     43 HG2        -0.0710    0.9310   -4.4880 hc        1 A66      0.054200
     44 HD1        -1.5260    2.6080   -4.3480 hc        1 A66      0.031700
     45 HD2        -2.2920    2.0140   -3.0430 hc        1 A66      0.031700
     46 HE1        -2.8230    1.4980   -5.8620 h1        1 A66      0.052700
     47 HE2        -3.2380    0.3450   -4.7520 h1        1 A66      0.052700
     48 HZ1        -4.9060    1.5030   -4.3410 hn        1 A66      0.334300
     49 HZ2        -4.5260    2.5360   -5.3180 hn        1 A66      0.334300
@<TRIPOS>BOND
     1    1    2 1   
     2    1   12 1   
     3    1   27 1   
     4    1   28 1   
     5    2    3 2   
     6    2    8 1   
     7    4    5 1   
     8    4    8 1   
     9    4   22 1   
    10    4   29 1   
    11    5    6 1   
    12    5    7 1   
    13    8    9 1   
    14    9   10 1   
    15    9   30 1   
    16    9   31 1   
    17   10   11 1   
    18   10   32 1   
    19   10   33 1   
    20   11   34 1   
    21   11   35 1   
    22   12   13 2   
    23   12   21 1   
    24   13   14 2   
    25   14   15 1   
    26   15   21 3   
    27   16   17 1   
    28   16   18 3   
    29   17   37 1   
    30   17   38 1   
    31   19   20 3   
    32   19   39 1   
    33   22   23 1   
    34   22   40 1   
    35   22   41 1   
    36   23   24 1   
    37   23   42 1   
    38   23   43 1   
    39   24   25 1   
    40   24   44 1   
    41   24   45 1   
    42   25   26 1   
    43   25   46 1   
    44   25   47 1   
    45   26   48 1   
    46   26   49 1   
@<TRIPOS>SUBSTRUCTURE
     1 A66         1 TEMP              0 ****  ****    0 ROOT
