@<TRIPOS>MOLECULE
A68
   82    83     1     0     0
SMALL
bcc


@<TRIPOS>ATOM
      1 C27        -4.7710    2.5530    1.1590 c         1 A68      0.657100
      2 O27        -5.7380    1.8150    0.8850 o         1 A68     -0.605100
      3 C28        -4.8300    3.5500    2.2890 c3        1 A68     -0.174100
      4 N27        -3.6100    2.5330    0.3960 n         1 A68     -0.546900
      5 C22        -3.3500    1.4890   -0.5600 c3        1 A68      0.034700
      6 C21        -2.2450    0.5220   -0.0570 c         1 A68      0.643100
      7 O22        -1.4430    0.8440    0.8480 o         1 A68     -0.642100
      8 C23        -2.9780    2.0110   -1.9700 c3        1 A68     -0.064700
      9 C25        -2.0150    3.1880   -1.9980 c3        1 A68     -0.075400
     10 C24        -4.2510    2.3890   -2.7050 c3        1 A68     -0.095100
     11 C26        -0.6360    2.8560   -1.4920 c3        1 A68     -0.109100
     12 N11         2.5650   -1.6100   -0.0470 n3        1 A68     -0.800500
     13 C12         3.3000   -1.3140   -1.2500 c3        1 A68      0.219800
     14 C13         4.3980   -2.3260   -1.6230 c3        1 A68     -0.096700
     15 C14         3.8180   -3.6760   -1.9790 c3        1 A68     -0.087100
     16 C15         5.1890   -1.7660   -2.7880 c3        1 A68     -0.087100
     17 C17         0.1970   -1.3430   -0.8470 c3        1 A68      0.086100
     18 O18         0.2200   -1.4290   -2.2580 oh        1 A68     -0.592800
     19 C19        -1.2000   -1.7000   -0.2630 c3        1 A68      0.080700
     20 N20        -2.2080   -0.7300   -0.6250 n         1 A68     -0.547900
     21 C32        -1.6030   -3.1270   -0.6730 c3        1 A68     -0.049100
     22 C33        -4.0310   -3.7440   -0.6880 ca        1 A68     -0.124000
     23 C34        -5.1810   -4.1880   -0.0350 ca        1 A68     -0.124000
     24 C35        -5.1440   -4.4770    1.3290 ca        1 A68     -0.124000
     25 C36        -3.9530   -4.3230    2.0390 ca        1 A68     -0.124000
     26 C37        -2.8020   -3.8810    1.3890 ca        1 A68     -0.124000
     27 C38        -2.8350   -3.5870    0.0210 ca        1 A68     -0.087300
     28 S8          3.1590   -1.2150    1.4280 sy        1 A68      1.510200
     29 O9          4.5430   -1.5030    1.4870 o         1 A68     -0.657300
     30 O10         2.3600   -1.8270    2.4210 o         1 A68     -0.657300
     31 C5          2.9650    0.4510    1.4960 ca        1 A68     -0.431500
     32 C4          1.6910    1.0310    1.6060 ca        1 A68      0.019500
     33 C6          4.0820    1.2960    1.4880 ca        1 A68      0.019500
     34 C3          1.5270    2.4040    1.7020 ca        1 A68     -0.209500
     35 C7          3.9510    2.6760    1.5880 ca        1 A68     -0.209500
     36 C2          2.6670    3.2320    1.6950 ca        1 A68      0.185100
     37 O1          2.4090    4.5790    1.7940 os        1 A68     -0.321900
     38 C1          3.5410    5.4440    1.8200 c3        1 A68      0.110700
     39 H28        -4.0550    3.3100    3.0570 hc        1 A68      0.068367
     40 H28A       -4.6600    4.5870    1.9100 hc        1 A68      0.068367
     41 H28B       -5.8400    3.4970    2.7620 hc        1 A68      0.068367
     42 HN27       -2.8030    2.9910    0.7570 hn        1 A68      0.317500
     43 H22        -4.3080    0.8850   -0.6670 h1        1 A68      0.105700
     44 H23        -2.4930    1.1580   -2.5240 hc        1 A68      0.052700
     45 H25        -1.9330    3.5340   -3.0660 hc        1 A68      0.044200
     46 H25A       -2.4380    4.0500   -1.4180 hc        1 A68      0.044200
     47 H24        -4.7720    3.2270   -2.1840 hc        1 A68      0.040700
     48 H24A       -4.0120    2.7120   -3.7470 hc        1 A68      0.040700
     49 H24B       -4.9490    1.5180   -2.7580 hc        1 A68      0.040700
     50 H26        -0.2260    1.9580   -2.0150 hc        1 A68      0.041700
     51 H26A        0.0540    3.7150   -1.6750 hc        1 A68      0.041700
     52 H26B       -0.6490    2.6440   -0.3940 hc        1 A68      0.041700
     53 H12         2.5810   -1.2250   -2.1150 h1        1 A68      0.055700
     54 H12A        3.7930   -0.3060   -1.1120 h1        1 A68      0.055700
     55 H13         5.0920   -2.4500   -0.7420 hc        1 A68      0.080700
     56 H14         4.6190   -4.3460   -2.3790 hc        1 A68      0.033867
     57 H14A        3.3740   -4.1650   -1.0790 hc        1 A68      0.033867
     58 H14B        3.0240   -3.5730   -2.7580 hc        1 A68      0.033867
     59 H15         5.6470   -0.7850   -2.5150 hc        1 A68      0.033867
     60 H15A        6.0080   -2.4720   -3.0680 hc        1 A68      0.033867
     61 H15B        4.5310   -1.6170   -3.6770 hc        1 A68      0.033867
     62 H16         1.4030   -3.1570   -0.8490 h1        1 A68      0.067200
     63 H16A        0.9240   -2.5710    0.8140 h1        1 A68      0.067200
     64 H17         0.4010   -0.2490   -0.6430 h1        1 A68      0.102700
     65 HO18        0.1420   -2.3620   -2.4970 ho        1 A68      0.396000
     66 H19        -1.0970   -1.6620    0.8670 h1        1 A68      0.088700
     67 HN20       -2.7860   -0.9370   -1.4040 hn        1 A68      0.317500
     68 H32        -1.7440   -3.1790   -1.7860 hc        1 A68      0.055200
     69 H32A       -0.7510   -3.8100   -0.4080 hc        1 A68      0.055200
     70 H33        -4.0670   -3.5190   -1.7640 ha        1 A68      0.131500
     71 H34        -6.1180   -4.3070   -0.5970 ha        1 A68      0.134500
     72 H35        -6.0510   -4.8240    1.8440 ha        1 A68      0.134000
     73 H36        -3.9210   -4.5490    3.1160 ha        1 A68      0.134500
     74 H37        -1.8650   -3.7580    1.9530 ha        1 A68      0.131500
     75 H4          0.7890    0.3890    1.6200 ha        1 A68      0.163000
     76 H6          5.0910    0.8500    1.4100 ha        1 A68      0.163000
     77 H3          0.5230    2.8470    1.7780 ha        1 A68      0.153500
     78 H7          4.8470    3.3120    1.5850 ha        1 A68      0.153500
     79 H1          4.1910    5.2140    2.6990 h1        1 A68      0.049367
     80 H1A         4.1200    5.3610    0.8690 h1        1 A68      0.049367
     81 H1B         3.0860    6.4620    1.9190 h1        1 A68      0.049367
     82 C16         1.2830   -2.2360   -0.2040 c3        1 A68      0.191800
@<TRIPOS>BOND
     1    1    2 2   
     2    1    3 1   
     3    1    4 1   
     4    3   39 1   
     5    3   40 1   
     6    3   41 1   
     7    4    5 1   
     8    4   42 1   
     9    5    6 1   
    10    5    8 1   
    11    5   43 1   
    12    6    7 2   
    13    6   20 1   
    14    8    9 1   
    15    8   10 1   
    16    8   44 1   
    17    9   11 1   
    18    9   45 1   
    19    9   46 1   
    20   10   47 1   
    21   10   48 1   
    22   10   49 1   
    23   11   50 1   
    24   11   51 1   
    25   11   52 1   
    26   12   13 1   
    27   12   28 1   
    28   12   82 1   
    29   13   14 1   
    30   13   53 1   
    31   13   54 1   
    32   14   15 1   
    33   14   16 1   
    34   14   55 1   
    35   15   56 1   
    36   15   57 1   
    37   15   58 1   
    38   16   59 1   
    39   16   60 1   
    40   16   61 1   
    41   17   18 1   
    42   17   19 1   
    43   17   64 1   
    44   17   82 1   
    45   18   65 1   
    46   19   20 1   
    47   19   21 1   
    48   19   66 1   
    49   20   67 1   
    50   21   27 1   
    51   21   68 1   
    52   21   69 1   
    53   22   23 ar  
    54   22   27 ar  
    55   22   70 1   
    56   23   24 ar  
    57   23   71 1   
    58   24   25 ar  
    59   24   72 1   
    60   25   26 ar  
    61   25   73 1   
    62   26   27 ar  
    63   26   74 1   
    64   28   29 2   
    65   28   30 2   
    66   28   31 1   
    67   31   32 ar  
    68   31   33 ar  
    69   32   34 ar  
    70   32   75 1   
    71   33   35 ar  
    72   33   76 1   
    73   34   36 ar  
    74   34   77 1   
    75   35   36 ar  
    76   35   78 1   
    77   36   37 1   
    78   37   38 1   
    79   38   79 1   
    80   38   80 1   
    81   38   81 1   
    82   62   82 1   
    83   63   82 1   
@<TRIPOS>SUBSTRUCTURE
     1 A68         1 TEMP              0 ****  ****    0 ROOT
