@<TRIPOS>MOLECULE
A68
   85    81     1     0     0
SMALL
bcc


@<TRIPOS>ATOM
      1 C27        68.5220  152.5140  158.4400 c2        1 A68      0.269000
      2 O27        68.4750  153.1060  157.3750 o         1 A68     -0.168000
      3 C28        69.2120  151.2290  158.7510 c3        1 A68     -0.263000
      4 N27        67.7910  153.1390  159.6160 n4        1 A68     -0.123000
      5 C22        66.9720  154.3520  159.2810 c3        1 A68     -0.106000
      6 C21        67.8020  155.6400  159.5410 c2        1 A68      0.295000
      7 O22        68.7760  155.5880  160.3240 o         1 A68     -0.380000
      8 C23        65.6840  154.4220  160.1090 c3        1 A68     -0.183000
      9 C25        70.1790  152.4410  161.9130 c2        1 A68     -0.246000
     10 C24        64.7450  153.2780  159.8280 c3        1 A68     -0.240000
     11 C26        69.3240  153.2780  162.4900 c2        1 A68     -0.246000
     12 N11        68.5200  161.1910  160.2000 n3        1 A68     -0.344000
     13 C12        69.4880  162.2510  160.2810 c3        1 A68     -0.134000
     14 C13        69.1720  163.3030  161.2870 c2        1 A68      0.327000
     15 C14        67.8990  163.3460  161.9810 c3        1 A68     -0.309000
     16 C15        70.1670  164.3340  161.5220 c3        1 A68     -0.309000
     17 C17        67.9990  158.7510  160.3100 c3        1 A68     -0.183000
     18 O18        69.5440  164.9410  158.6340 oh        1 A68     -0.454000
     19 C19        68.1840  158.0030  158.9760 c3        1 A68      0.027000
     20 N20        67.3900  156.7820  158.9220 n         1 A68     -0.331000
     21 C32        67.8490  158.9430  157.7990 c3        1 A68     -0.044000
     22 C33        65.0630  158.4670  154.2300 c2        1 A68     -0.182000
     23 C34        65.4690  157.4230  153.5040 c2        1 A68     -0.161000
     24 C35        66.8380  156.9880  153.3400 c2        1 A68     -0.055000
     25 C36        67.8650  157.1440  154.1960 c2        1 A68     -0.117000
     26 C37        67.8200  157.7650  155.4500 c1        1 A68     -0.034000
     27 C38        67.8310  158.2810  156.5340 c1        1 A68     -0.257000
     28 S8       -256.2460 -578.4130 -621.3910 s4        1 A68      2.060800
     29 O9       -255.2840 -577.7430 -622.0690 o         1 A68     -0.410400
     30 O10      -257.5270 -577.9620 -621.3420 o         1 A68     -0.410400
     31 C5       -255.9270 -579.7130 -620.6700 c2        1 A68     -1.103000
     32 C4       -256.9050 -580.4770 -620.0010 c2        1 A68      0.209000
     33 C6       -254.5440 -580.1610 -620.7310 c2        1 A68     -0.483000
     34 C3       -256.8300 -581.6920 -619.3530 c2        1 A68     -0.314000
     35 C7       -253.5820 -580.0120 -619.8370 c1        1 A68      0.313000
     36 C2       -255.7020 -582.5010 -619.2110 c2        1 A68      0.235000
     37 O1       -255.8650 -583.6440 -618.5480 os        1 A68     -0.136000
     38 C1       -254.6990 -584.4860 -618.3890 c3        1 A68     -0.096000
     39 H28        69.8200  151.3020  159.6910 hc        1 A68      0.158667
     40 H28A       69.8950  150.9760  157.8960 hc        1 A68      0.158667
     41 H28B       68.4600  150.4050  158.8600 hc        1 A68      0.158667
     42 HN27       68.5040  153.4010  160.3360 hn        1 A68      0.274500
     43 H22        67.1740  152.4280  160.0260 hn        1 A68      0.274500
     44 H23        66.7050  154.2840  158.1810 hx        1 A68      0.174000
     45 H25        65.1740  155.3890  159.8430 hc        1 A68      0.126500
     46 H25A       70.1810  151.3600  162.1160 ha        1 A68      0.127750
     47 H24        65.1020  152.3200  160.2780 hc        1 A68      0.100333
     48 H24A       63.7430  153.5010  160.2770 hc        1 A68      0.100333
     49 H24B       64.6030  153.1290  158.7290 hc        1 A68      0.100333
     50 H26        70.9870  152.7850  161.2510 ha        1 A68      0.127750
     51 H26A       68.5580  152.9420  163.2050 ha        1 A68      0.127750
     52 H26B       69.3620  154.3680  162.3310 ha        1 A68      0.127750
     53 H12        68.0060  161.2140  159.3400 hn        1 A68      0.193000
     54 H12A       70.5320  161.8610  160.5040 h1        1 A68      0.175500
     55 H13        69.5820  162.8310  159.2950 h1        1 A68      0.175500
     56 H14        67.0390  163.2950  161.2520 hc        1 A68      0.179167
     57 H14A       67.7920  162.4180  162.6210 hc        1 A68      0.179167
     58 H14B       67.7780  164.2500  162.6320 hc        1 A68      0.179167
     59 H15        70.0900  164.7910  162.5440 hc        1 A68      0.179167
     60 H15A       71.2180  163.9890  161.3400 hc        1 A68      0.179167
     61 H15B       69.9690  165.1700  160.7700 hc        1 A68      0.179167
     62 H16        69.9510  159.6260  159.8870 h1        1 A68      0.089000
     63 H16A       68.1480  158.0180  161.1500 hc        1 A68      0.115500
     64 H17        66.9520  159.1430  160.3880 hc        1 A68      0.115500
     65 HO18       70.3170  165.1920  158.1170 ho        1 A68      0.230000
     66 H19        68.8230  165.4230  158.2140 ho        1 A68      0.230000
     67 HN20       69.2740  157.6990  158.8950 h1        1 A68      0.121000
     68 H32        66.8540  159.4380  157.9830 hc        1 A68      0.103000
     69 H32A       68.6380  159.7460  157.7800 hc        1 A68      0.103000
     70 H33        65.7560  159.1050  154.7950 ha        1 A68      0.119000
     71 H34        64.0060  158.7620  154.2820 ha        1 A68      0.119000
     72 H35        64.7330  156.8300  152.9280 ha        1 A68      0.141000
     73 H36        67.0360  156.4590  152.3860 ha        1 A68      0.147000
     74 H37        68.8670  156.7580  153.9200 ha        1 A68      0.153000
     75 H4       -257.9290 -580.0220 -619.9950 ha        1 A68      0.169000
     76 H6       -254.2370 -580.6840 -621.6710 ha        1 A68      0.212000
     77 H3       -257.7690 -582.0740 -618.8960 ha        1 A68      0.193000
     78 H7       -254.7000 -582.2490 -619.6140 h4        1 A68      0.172000
     79 H1       -254.3330 -584.8100 -619.3920 h1        1 A68      0.129667
     80 H1A      -253.9140 -583.9360 -617.8170 h1        1 A68      0.129667
     81 H1B      -255.1030 -585.3520 -617.8020 h1        1 A68      0.129667
     82 H272       65.9270  154.4690  161.2040 hc        1 A68      0.126500
     83 H111       69.3440  159.8720  161.5820 h1        1 A68      0.089000
     84 H202       66.6670  156.7440  158.2380 hn        1 A68      0.253000
     85 C16        69.0300  159.8640  160.4980 c3        1 A68     -0.064000
@<TRIPOS>BOND
     1    1    2 1   
     2    1    3 1   
     3    1    4 1   
     4    3   39 1   
     5    3   40 1   
     6    3   41 1   
     7    4    5 1   
     8    4   42 1   
     9    4   43 1   
    10    5    6 1   
    11    5    8 1   
    12    5   44 1   
    13    6    7 1   
    14    6   20 1   
    15    8   10 1   
    16    8   45 1   
    17    8   82 1   
    18    9   11 1   
    19    9   46 1   
    20    9   50 1   
    21   10   47 1   
    22   10   48 1   
    23   10   49 1   
    24   11   51 1   
    25   11   52 1   
    26   12   13 1   
    27   12   53 1   
    28   12   85 1   
    29   13   14 1   
    30   13   54 1   
    31   13   55 1   
    32   14   15 1   
    33   14   16 1   
    34   15   56 1   
    35   15   57 1   
    36   15   58 1   
    37   16   59 1   
    38   16   60 1   
    39   16   61 1   
    40   17   19 1   
    41   17   63 1   
    42   17   64 1   
    43   17   85 1   
    44   18   65 1   
    45   18   66 1   
    46   19   20 1   
    47   19   21 1   
    48   19   67 1   
    49   20   84 1   
    50   21   27 1   
    51   21   68 1   
    52   21   69 1   
    53   22   23 1   
    54   22   70 1   
    55   22   71 1   
    56   23   24 1   
    57   23   72 1   
    58   24   25 1   
    59   24   73 1   
    60   25   26 1   
    61   25   74 1   
    62   26   27 1   
    63   28   29 1   
    64   28   30 1   
    65   28   31 1   
    66   31   32 1   
    67   31   33 1   
    68   32   34 1   
    69   32   75 1   
    70   33   35 1   
    71   33   76 1   
    72   34   36 1   
    73   34   77 1   
    74   36   37 1   
    75   36   78 1   
    76   37   38 1   
    77   38   79 1   
    78   38   80 1   
    79   38   81 1   
    80   62   85 1   
    81   83   85 1   
@<TRIPOS>SUBSTRUCTURE
     1 A68         1 TEMP              0 ****  ****    0 ROOT
