@<TRIPOS>MOLECULE
A68
   82    73     1     0     0
SMALL
bcc


@<TRIPOS>ATOM
      1 C27         0.3920   -1.0310    5.8330 c1        1 A68      0.309000
      2 O27         1.4350   -1.4900    5.4240 o         1 A68     -0.396000
      3 C28         0.2950   -0.5070    7.2790 c3        1 A68     -0.243000
      4 N27        -0.7910   -1.0390    4.9820 n2        1 A68     -0.375000
      5 C22        -0.7750   -1.7390    3.7490 c3        1 A68      0.018000
      6 C21        -1.3010   -0.8190    2.6270 c1        1 A68      0.286000
      7 O22        -2.5040   -0.6500    2.4920 o         1 A68     -0.394000
      8 C23        -1.6570   -2.9660    3.8520 c3        1 A68     -0.103000
      9 C25        -2.3030   -3.0200    5.2440 c3        1 A68     -0.159000
     10 C24        -0.8310   -4.1970    3.6410 c3        1 A68     -0.213000
     11 C26        -3.2800   -4.2160    5.3120 c3        1 A68     -0.208000
     12 N11         1.1270    1.1910   -2.5400 n3        1 A68     -0.819000
     13 C12         2.1810    0.1580   -2.4760 c3        1 A68     -0.009000
     14 C13         3.5690    0.8230   -2.6640 c3        1 A68     -0.135000
     15 C14         4.3160    0.8190   -1.3380 c3        1 A68     -0.206000
     16 C15         4.3800    0.0390   -3.7080 c3        1 A68     -0.206000
     17 C16         0.4160    1.5970   -1.3020 c3        1 A68     -0.009000
     18 C17        -0.3020    0.3870   -0.7040 c3        1 A68     -0.014000
     19 O18         0.5810   -0.6830   -0.6260 oh        1 A68     -0.347000
     20 C19        -0.8120    0.7340    0.7020 c3        1 A68      0.002000
     21 N20        -0.3620   -0.2570    1.6330 n2        1 A68     -0.371000
     22 C32        -0.2810    2.0890    1.1130 c3        1 A68     -0.139000
     23 C33        -0.6540    3.1190    3.2310 c1        1 A68     -0.128000
     24 C34        -1.1640    4.1430    4.0300 c1        1 A68     -0.115833
     25 C35        -2.3130    4.8250    3.6380 c1        1 A68     -0.115833
     26 C36        -2.9530    4.4850    2.4500 c1        1 A68     -0.115833
     27 C37        -2.4420    3.4600    1.6500 c1        1 A68     -0.115833
     28 C38        -1.2940    2.7780    2.0410 c1        1 A68     -0.074000
     29 S8          0.9140    2.0830   -3.9580 s4        1 A68      2.065800
     30 O9          2.0530    2.9050   -4.2290 o         1 A68     -0.550900
     31 O10        -0.1180    3.0790   -3.7990 o         1 A68     -0.550900
     32 C5          0.5560    0.9860   -5.3420 c1        1 A68     -0.361500
     33 C4          1.3200   -0.1580   -5.5290 c1        1 A68     -0.115833
     34 C6         -0.3490    1.3840   -6.3230 c1        1 A68     -0.105500
     35 C3          1.1810   -0.9060   -6.6960 c1        1 A68     -0.115833
     36 C7         -0.4860    0.6350   -7.4890 c1        1 A68     -0.105500
     37 C2          0.2780   -0.5080   -7.6740 c1        1 A68     -0.361500
     38 O1          0.1410   -1.2680   -8.8640 o         1 A68     -0.205000
     39 C1         -0.8330   -2.3030   -8.7780 c3        1 A68     -0.079000
     40 H28        -0.1530    0.3660    7.2810 hc        1 A68      0.110000
     41 H28A       -0.2210   -1.1400    7.8220 hc        1 A68      0.110000
     42 H28B        1.2040   -0.4120    7.6570 hc        1 A68      0.110000
     43 HN27       -1.5440   -0.5790    5.2400 hn        1 A68      0.236000
     44 H22         0.1290   -2.0100    3.5440 h1        1 A68      0.129000
     45 H23        -2.3510   -2.9230    3.1760 hc        1 A68      0.120000
     46 H25        -1.6040   -3.1300    5.9240 hc        1 A68      0.084000
     47 H25A       -2.7900   -2.1940    5.4090 hc        1 A68      0.084000
     48 H24        -0.2000   -4.3000    4.3860 hc        1 A68      0.078333
     49 H24A       -1.4150   -4.9770    3.6000 hc        1 A68      0.078333
     50 H24B       -0.3320   -4.1160    2.7980 hc        1 A68      0.078333
     51 H26        -3.2900   -4.6790    4.4490 hc        1 A68      0.075667
     52 H26A       -2.9910   -4.8350    6.0090 hc        1 A68      0.075667
     53 H26B       -4.1850   -3.8890    5.5180 hc        1 A68      0.075667
     54 H12         2.1480   -0.2840   -1.6100 h1        1 A68      0.094000
     55 H12A        2.0350   -0.5010   -3.1850 h1        1 A68      0.094000
     56 H13         3.4510    1.7420   -2.9670 hc        1 A68      0.113000
     57 H14         4.2030   -0.0530   -0.9010 hc        1 A68      0.073833
     58 H14A        3.9600    1.5200   -0.7610 hc        1 A68      0.073833
     59 H14B        5.2680    0.9820   -1.4990 hc        1 A68      0.073833
     60 H15         5.2420    0.4880   -3.8570 hc        1 A68      0.073833
     61 H15A        4.5390   -0.8810   -3.3800 hc        1 A68      0.073833
     62 H15B        3.8810    0.0040   -4.5490 hc        1 A68      0.073833
     63 H16        -0.2420    2.2950   -1.5170 h1        1 A68      0.102500
     64 H16A        1.0630    1.9470   -0.6540 h1        1 A68      0.102500
     65 H17        -1.0600    0.1440   -1.2740 h1        1 A68      0.101000
     66 HO18        0.1910   -1.4160   -0.9530 ho        1 A68      0.230000
     67 H19        -1.7930    0.7560    0.6970 h1        1 A68      0.117000
     68 HN20        0.4920   -0.5790    1.5800 hn        1 A68      0.255000
     69 H32         0.5710    1.9760    1.5850 hc        1 A68      0.112000
     70 H32A       -0.1430    2.6390    0.3190 hc        1 A68      0.112000
     71 H33         0.1490    2.6430    3.5050 ha        1 A68      0.141000
     72 H34        -0.7220    4.3770    4.8530 ha        1 A68      0.140833
     73 H35        -2.6690    5.5390    4.1960 ha        1 A68      0.140833
     74 H36        -3.7510    4.9600    2.1780 ha        1 A68      0.140833
     75 H37        -2.8900    3.2220    0.8170 ha        1 A68      0.140833
     76 H4          1.9530   -0.4370   -4.8450 ha        1 A68      0.140833
     77 H6         -0.8860    2.1880   -6.1930 ha        1 A68      0.152500
     78 H3          1.7190   -1.7110   -6.8270 ha        1 A68      0.140833
     79 H7         -1.1210    0.9150   -8.1770 ha        1 A68      0.152500
     80 H1         -0.5140   -3.0040   -8.1690 h1        1 A68      0.089333
     81 H1A        -1.6790   -1.9310   -8.4360 h1        1 A68      0.089333
     82 H1B        -0.9830   -2.6880   -9.6710 h1        1 A68      0.089333
@<TRIPOS>BOND
     1    1    2 1   
     2    1    3 1   
     3    3   40 1   
     4    3   41 1   
     5    3   42 1   
     6    4    5 1   
     7    4   43 1   
     8    5    6 1   
     9    5    8 1   
    10    5   44 1   
    11    6    7 1   
    12    8    9 1   
    13    8   10 1   
    14    8   45 1   
    15    9   11 1   
    16    9   46 1   
    17    9   47 1   
    18   10   48 1   
    19   10   49 1   
    20   10   50 1   
    21   11   51 1   
    22   11   52 1   
    23   11   53 1   
    24   12   13 1   
    25   12   17 1   
    26   12   29 1   
    27   13   14 1   
    28   13   54 1   
    29   13   55 1   
    30   14   15 1   
    31   14   16 1   
    32   14   56 1   
    33   15   57 1   
    34   15   58 1   
    35   15   59 1   
    36   16   60 1   
    37   16   61 1   
    38   16   62 1   
    39   17   18 1   
    40   17   63 1   
    41   17   64 1   
    42   18   19 1   
    43   18   20 1   
    44   18   65 1   
    45   19   66 1   
    46   20   21 1   
    47   20   22 1   
    48   20   67 1   
    49   21   68 1   
    50   22   28 1   
    51   22   69 1   
    52   22   70 1   
    53   23   28 1   
    54   23   71 1   
    55   24   25 1   
    56   24   72 1   
    57   25   73 1   
    58   26   27 1   
    59   26   74 1   
    60   27   75 1   
    61   29   30 1   
    62   29   31 1   
    63   32   34 1   
    64   33   35 1   
    65   33   76 1   
    66   34   77 1   
    67   35   78 1   
    68   36   37 1   
    69   36   79 1   
    70   38   39 1   
    71   39   80 1   
    72   39   81 1   
    73   39   82 1   
@<TRIPOS>SUBSTRUCTURE
     1 A68         1 TEMP              0 ****  ****    0 ROOT
