@<TRIPOS>MOLECULE
A69
   76    80     1     0     0
SMALL
bcc


@<TRIPOS>ATOM
      1 C21         3.0760    0.4550   -0.3520 c         1 A69      0.678700
      2 O22         2.6690   -0.4380    0.4230 o         1 A69     -0.630100
      3 C22         4.3320    0.2940   -1.1410 ca        1 A69     -0.099600
      4 C27         5.4400   -0.2700   -0.5010 ca        1 A69     -0.167000
      5 C26         6.6270   -0.4410   -1.2240 ca        1 A69      0.119100
      6 C25         6.7130   -0.0620   -2.5760 ca        1 A69     -0.137000
      7 C24         5.5940    0.4870   -3.1930 ca        1 A69     -0.104000
      8 C23         4.4040    0.6700   -2.4840 ca        1 A69     -0.142000
      9 O27         7.7620   -0.9830   -0.6670 oh        1 A69     -0.494100
     10 N11        -2.0330   -0.0730    0.6260 n3        1 A69     -0.804500
     11 C12        -2.9030   -0.2240   -0.5130 c3        1 A69      0.216800
     12 C13        -4.2600    0.4700   -0.3720 c3        1 A69     -0.101400
     13 C14        -5.0970    0.2120   -1.6100 c3        1 A69     -0.034100
     14 C16        -1.2080    1.1000    0.6550 c3        1 A69      0.193800
     15 C17        -0.0280    1.0810   -0.3430 c3        1 A69      0.089100
     16 O18        -0.4170    1.5400   -1.6220 oh        1 A69     -0.590800
     17 C19         1.1670    1.8940    0.2340 c3        1 A69      0.081700
     18 N20         2.3940    1.6450   -0.4850 n         1 A69     -0.551900
     19 C32         0.8210    3.3920    0.2830 c3        1 A69     -0.050100
     20 C33         2.6740    5.0770    0.3150 ca        1 A69     -0.124500
     21 C34         3.6260    5.8310    1.0010 ca        1 A69     -0.125000
     22 C35         3.7590    5.7000    2.3830 ca        1 A69     -0.126000
     23 C36         2.9380    4.8120    3.0790 ca        1 A69     -0.125000
     24 C37         1.9850    4.0590    2.3960 ca        1 A69     -0.124500
     25 C38         1.8480    4.1860    1.0080 ca        1 A69     -0.087300
     26 C40        -6.4280    0.8730   -1.5210 ca        1 A69     -0.080300
     27 C41        -6.7610    1.9200   -2.3880 ca        1 A69     -0.127000
     28 C42        -8.0140    2.5260   -2.3100 ca        1 A69     -0.128500
     29 C43        -8.9450    2.0920   -1.3670 ca        1 A69     -0.132000
     30 C44        -8.6190    1.0480   -0.5010 ca        1 A69     -0.128500
     31 C45        -7.3680    0.4400   -0.5770 ca        1 A69     -0.127000
     32 C1          1.8100   -5.6460   -0.6110 cc        1 A69      0.344100
     33 N1          0.5210   -5.9340   -0.5890 nd        1 A69     -0.530100
     34 S1          2.2720   -4.1110   -0.0040 ss        1 A69      0.040900
     35 C2         -0.1780   -4.8480   -0.0410 ca        1 A69      0.131400
     36 C3          0.6570   -3.7400    0.3390 ca        1 A69     -0.133100
     37 C4          0.0890   -2.5950    0.8990 ca        1 A69      0.053000
     38 C5         -1.2860   -2.5260    1.0960 ca        1 A69     -0.382500
     39 C6         -2.0980   -3.6190    0.7170 ca        1 A69     -0.042000
     40 C7         -1.5720   -4.7670    0.1590 ca        1 A69     -0.103000
     41 S8         -2.0110   -1.1870    1.8240 sy        1 A69      1.505200
     42 O9         -3.3330   -1.5360    2.1780 o         1 A69     -0.652300
     43 O10        -1.1900   -0.7200    2.8750 o         1 A69     -0.652300
     44 H27         5.3650   -0.5820    0.5510 ha        1 A69      0.156000
     45 H25         7.6560   -0.2080   -3.1210 ha        1 A69      0.155000
     46 H24         5.6470    0.7790   -4.2530 ha        1 A69      0.141000
     47 H23         3.5270    1.0920   -2.9970 ha        1 A69      0.140000
     48 HO27        7.5660   -1.2080    0.2540 ho        1 A69      0.424000
     49 H12        -2.3810    0.1750   -1.4320 h1        1 A69      0.057200
     50 H12A       -3.0790   -1.3290   -0.6710 h1        1 A69      0.057200
     51 H13        -4.7960    0.0830    0.5360 hc        1 A69      0.058200
     52 H13A       -4.1160    1.5730   -0.2340 hc        1 A69      0.058200
     53 H14        -4.5450    0.5770   -2.5170 hc        1 A69      0.048700
     54 H14A       -5.2460   -0.8950   -1.7350 hc        1 A69      0.048700
     55 H16        -1.8480    2.0030    0.4290 h1        1 A69      0.066200
     56 H16A       -0.7970    1.2200    1.7010 h1        1 A69      0.066200
     57 H17         0.3180    0.0210   -0.5310 h1        1 A69      0.102700
     58 HO18       -0.8130    2.4140   -1.5130 ho        1 A69      0.395000
     59 H19         1.3260    1.5250    1.2960 h1        1 A69      0.087700
     60 HN20        2.6870    2.3140   -1.1550 hn        1 A69      0.320500
     61 H32         0.6910    3.7890   -0.7600 hc        1 A69      0.056200
     62 H32A       -0.1670    3.4930    0.8090 hc        1 A69      0.056200
     63 H33         2.5720    5.1880   -0.7750 ha        1 A69      0.132000
     64 H34         4.2710    6.5310    0.4500 ha        1 A69      0.134500
     65 H35         4.5100    6.2950    2.9230 ha        1 A69      0.134000
     66 H36         3.0400    4.7060    4.1690 ha        1 A69      0.134500
     67 H37         1.3390    3.3580    2.9470 ha        1 A69      0.132000
     68 H41        -6.0320    2.2650   -3.1350 ha        1 A69      0.133000
     69 H42        -8.2680    3.3480   -2.9960 ha        1 A69      0.130500
     70 H43        -9.9330    2.5710   -1.3060 ha        1 A69      0.130000
     71 H44        -9.3510    0.7030    0.2440 ha        1 A69      0.130500
     72 H45        -7.1120   -0.3830    0.1070 ha        1 A69      0.133000
     73 H4          0.7440   -1.7490    1.1870 ha        1 A69      0.176000
     74 H6         -3.1880   -3.5500    0.8940 ha        1 A69      0.162000
     75 H7         -2.2180   -5.6110   -0.1260 ha        1 A69      0.158000
     76 H1          2.5420   -6.3620   -1.0020 h5        1 A69      0.063800
@<TRIPOS>BOND
     1    1    2 2   
     2    1    3 1   
     3    1   18 1   
     4    3    4 ar  
     5    3    8 ar  
     6    4    5 ar  
     7    4   44 1   
     8    5    6 ar  
     9    5    9 1   
    10    6    7 ar  
    11    6   45 1   
    12    7    8 ar  
    13    7   46 1   
    14    8   47 1   
    15    9   48 1   
    16   10   11 1   
    17   10   14 1   
    18   10   41 1   
    19   11   12 1   
    20   11   49 1   
    21   11   50 1   
    22   12   13 1   
    23   12   51 1   
    24   12   52 1   
    25   13   26 1   
    26   13   53 1   
    27   13   54 1   
    28   14   15 1   
    29   14   55 1   
    30   14   56 1   
    31   15   16 1   
    32   15   17 1   
    33   15   57 1   
    34   16   58 1   
    35   17   18 1   
    36   17   19 1   
    37   17   59 1   
    38   18   60 1   
    39   19   25 1   
    40   19   61 1   
    41   19   62 1   
    42   20   21 ar  
    43   20   25 ar  
    44   20   63 1   
    45   21   22 ar  
    46   21   64 1   
    47   22   23 ar  
    48   22   65 1   
    49   23   24 ar  
    50   23   66 1   
    51   24   25 ar  
    52   24   67 1   
    53   26   27 ar  
    54   26   31 ar  
    55   27   28 ar  
    56   27   68 1   
    57   28   29 ar  
    58   28   69 1   
    59   29   30 ar  
    60   29   70 1   
    61   30   31 ar  
    62   30   71 1   
    63   31   72 1   
    64   32   33 2   
    65   32   34 1   
    66   32   76 1   
    67   33   35 1   
    68   34   36 1   
    69   35   36 ar  
    70   35   40 ar  
    71   36   37 ar  
    72   37   38 ar  
    73   37   73 1   
    74   38   39 ar  
    75   38   41 1   
    76   39   40 ar  
    77   39   74 1   
    78   40   75 1   
    79   41   42 2   
    80   41   43 2   
@<TRIPOS>SUBSTRUCTURE
     1 A69         1 TEMP              0 ****  ****    0 ROOT
