@<TRIPOS>MOLECULE
A69
   76    68     1     0     0
SMALL
bcc


@<TRIPOS>ATOM
      1 C21         0.5570   -1.3160    4.2940 c1        1 A69      0.351000
      2 O22         1.7220   -0.9730    4.3490 o         1 A69     -0.392000
      3 C22        -0.2380   -1.5690    5.5980 c2        1 A69     -0.085000
      4 C27         0.3760   -1.3960    6.8290 c2        1 A69     -0.107000
      5 C26        -0.3560   -1.5610    8.0010 c1        1 A69      0.073000
      6 C25        -1.7020   -1.9000    7.9370 c1        1 A69     -0.131375
      7 C24        -2.3150   -2.0730    6.7070 c1        1 A69     -0.131375
      8 C23        -1.5840   -1.9070    5.5350 c1        1 A69     -0.144000
      9 O27         0.2810   -1.4480    9.2480 oh        1 A69     -0.246000
     10 N11         0.3400    0.7840   -1.2210 n3        1 A69     -0.830000
     11 C12        -0.8440    0.4910   -2.0100 c3        1 A69     -0.008000
     12 C13        -0.4360    0.2630   -3.4930 c3        1 A69     -0.184000
     13 C14        -1.6700    0.4290   -4.3940 c3        1 A69     -0.119000
     14 C16         0.9150   -0.2530   -0.3470 c3        1 A69     -0.052000
     15 C17         0.0290   -0.4410    0.8630 c3        1 A69     -0.017000
     16 O18        -1.2090   -0.9470    0.4590 oh        1 A69     -0.330000
     17 C19         0.6880   -1.4230    1.8320 c3        1 A69      0.046000
     18 N20        -0.0770   -1.4950    3.0240 n2        1 A69     -0.362000
     19 C32         0.7560   -2.7920    1.1940 c3        1 A69     -0.135000
     20 C33         1.6780   -4.7880    2.2610 c1        1 A69     -0.133000
     21 C34         2.6980   -5.6860    2.5350 c1        1 A69     -0.131375
     22 C35         4.0180   -5.3400    2.2720 c1        1 A69     -0.131375
     23 C36         4.3150   -4.0980    1.7370 c1        1 A69     -0.131375
     24 C37         3.2920   -3.1960    1.4630 c1        1 A69     -0.131375
     25 C38         1.9750   -3.5410    1.7250 c1        1 A69     -0.079000
     26 C40        -1.2230    0.5070   -5.8680 c2        1 A69     -0.074000
     27 C41        -1.3010   -0.6210   -6.6730 c2        1 A69     -0.128000
     28 C42        -1.0540   -0.5190   -8.0390 c1        1 A69     -0.130000
     29 C43        -0.7280    0.7120   -8.5960 c1        1 A69     -0.131375
     30 C44        -0.6500    1.8400   -7.7910 c1        1 A69     -0.131375
     31 C45        -0.8970    1.7390   -6.4280 c1        1 A69     -0.124000
     32 C1         -1.6170    8.0070   -0.2460 c1        1 A69     -0.301000
     33 N1         -2.2880    7.3070   -1.2930 n2        1 A69     -0.105000
     34 S1         -0.4530    7.1260    0.2400 ss        1 A69      0.506000
     35 C2         -1.5560    5.9180   -1.5170 c1        1 A69     -0.009000
     36 C3         -0.4710    5.8280   -0.5980 c1        1 A69     -0.364000
     37 C4          0.2930    4.6720   -0.5400 c1        1 A69      0.053000
     38 C5         -0.0030    3.5940   -1.3830 c1        1 A69     -0.830000
     39 C6         -1.0740    3.6830   -2.2890 c1        1 A69     -0.044000
     40 C7         -1.8470    4.8510   -2.3490 c1        1 A69     -0.103000
     41 S8          1.1470    2.2260   -1.4420 s6        1 A69      2.843000
     42 O9          1.8900    2.2230   -2.6670 o         1 A69     -0.930000
     43 O10         2.1960    2.3880   -0.4810 o         1 A69     -0.930000
     44 H27         1.3170   -1.1590    6.8730 ha        1 A69      0.172000
     45 H25        -2.2170   -2.0160    8.7620 ha        1 A69      0.134375
     46 H24        -3.2630   -2.3110    6.6620 ha        1 A69      0.134375
     47 H23        -2.0160   -2.0290    4.6700 ha        1 A69      0.140000
     48 HO27       -0.1500   -0.8560    9.7470 ho        1 A69      0.220000
     49 H12        -1.4700    1.2470   -1.9550 h1        1 A69      0.083500
     50 H12A       -1.2730   -0.3110   -1.6650 h1        1 A69      0.083500
     51 H13        -0.0750   -0.6400   -3.5970 hc        1 A69      0.102000
     52 H13A        0.2460    0.9200   -3.7490 hc        1 A69      0.102000
     53 H14        -2.2720   -0.3420   -4.2730 hc        1 A69      0.086000
     54 H14A       -2.1420    1.2540   -4.1530 hc        1 A69      0.086000
     55 H16         0.9780   -1.0960   -0.8390 h1        1 A69      0.113500
     56 H16A        1.8090    0.0220   -0.0560 h1        1 A69      0.113500
     57 H17        -0.1000    0.4190    1.3090 h1        1 A69      0.102000
     58 HO18       -1.8640   -0.4560    0.8210 ho        1 A69      0.204000
     59 H19         1.5920   -1.1170    2.0430 h1        1 A69      0.119000
     60 HN20       -0.9800   -1.6340    2.9790 hn        1 A69      0.238000
     61 H32        -0.0530   -3.2930    1.4110 hc        1 A69      0.107500
     62 H32A        0.8290   -2.6970    0.2290 hc        1 A69      0.107500
     63 H33         0.7550   -5.0300    2.4450 ha        1 A69      0.128000
     64 H34         2.4900   -6.5570    2.9090 ha        1 A69      0.134375
     65 H35         4.7300   -5.9680    2.4630 ha        1 A69      0.134375
     66 H36         5.2340   -3.8580    1.5540 ha        1 A69      0.134375
     67 H37         3.4990   -2.3270    1.0890 ha        1 A69      0.134375
     68 H41        -1.5290   -1.4830   -6.2830 ha        1 A69      0.129000
     69 H42        -1.1090   -1.3160   -8.6090 ha        1 A69      0.130000
     70 H43        -0.5540    0.7840   -9.5560 ha        1 A69      0.134375
     71 H44        -0.4220    2.7020   -8.1820 ha        1 A69      0.134375
     72 H45        -0.8420    2.5290   -5.8650 ha        1 A69      0.138000
     73 H1         -1.8890    8.8620    0.1380 DU        1 A69      0.193000
     74 H4          1.0410    4.6090    0.0920 ha        1 A69      0.182000
     75 H6         -1.2790    2.9310   -2.8760 ha        1 A69      0.158000
     76 H7         -2.5920    4.9120   -2.9790 ha        1 A69      0.158000
@<TRIPOS>BOND
     1    1    2 1   
     2    1    3 1   
     3    3    4 1   
     4    3    8 1   
     5    4    5 1   
     6    4   44 1   
     7    5    9 1   
     8    6    7 1   
     9    6   45 1   
    10    7   46 1   
    11    8   47 1   
    12    9   48 1   
    13   10   11 1   
    14   10   14 1   
    15   10   41 1   
    16   11   12 1   
    17   11   49 1   
    18   11   50 1   
    19   12   13 1   
    20   12   51 1   
    21   12   52 1   
    22   13   26 1   
    23   13   53 1   
    24   13   54 1   
    25   14   15 1   
    26   14   55 1   
    27   14   56 1   
    28   15   16 1   
    29   15   17 1   
    30   15   57 1   
    31   16   58 1   
    32   17   18 1   
    33   17   19 1   
    34   17   59 1   
    35   18   60 1   
    36   19   25 1   
    37   19   61 1   
    38   19   62 1   
    39   20   25 1   
    40   20   63 1   
    41   21   22 1   
    42   21   64 1   
    43   22   65 1   
    44   23   24 1   
    45   23   66 1   
    46   24   67 1   
    47   26   27 1   
    48   26   31 1   
    49   27   28 1   
    50   27   68 1   
    51   28   69 1   
    52   29   30 1   
    53   29   70 1   
    54   30   71 1   
    55   31   72 1   
    56   32   33 1   
    57   32   34 1   
    58   33   35 1   
    59   34   36 1   
    60   35   40 1   
    61   36   37 1   
    62   37   74 1   
    63   38   39 1   
    64   38   41 1   
    65   39   75 1   
    66   40   76 1   
    67   41   42 1   
    68   41   43 1   
@<TRIPOS>SUBSTRUCTURE
     1 A69         1 TEMP              0 ****  ****    0 ROOT
