@<TRIPOS>MOLECULE
A69
   78    81     1     0     0
SMALL
bcc


@<TRIPOS>ATOM
      1 C21        -0.7070   -0.5300    0.5710 c         1 A69      0.584700
      2 O22        -0.8160    0.6860    0.4780 o         1 A69     -0.448100
      3 C22        -0.8870   -1.3680    1.7570 ca        1 A69     -0.172600
      4 C27        -0.8040   -0.7160    2.9950 ca        1 A69     -0.078000
      5 C26        -0.9780   -1.4660    4.1730 ca        1 A69      0.145100
      6 C25        -1.2390   -2.8440    4.1120 ca        1 A69     -0.140000
      7 C24        -1.3280   -3.4690    2.8690 ca        1 A69     -0.075000
      8 C23        -1.1530   -2.7460    1.6920 ca        1 A69     -0.139000
      9 O27        -0.8740   -0.7640    5.3420 oh        1 A69     -0.468100
     10 N11        -1.3440    2.1380   -4.2690 n3        1 A69     -0.898200
     11 C12        -2.3690    1.5080   -5.1050 c3        1 A69      0.107800
     12 C13        -1.8350    0.6890   -6.2780 c3        1 A69     -0.091400
     13 C14        -2.9500    0.4320   -7.2770 c3        1 A69     -0.028100
     14 C16        -0.3850    1.2180   -3.6700 c3        1 A69      0.096800
     15 C17        -0.9340    0.3060   -2.5600 c3        1 A69      0.099100
     16 O18        -1.8330   -0.6730   -3.0330 oh        1 A69     -0.597800
     17 C19         0.2320   -0.3670   -1.7840 c3        1 A69      0.099500
     18 N20        -0.3180   -1.2590   -0.7030 n4        1 A69     -0.678800
     19 C32         1.1620   -1.1560   -2.7190 c3        1 A69     -0.052100
     20 C33         2.0590   -3.3120   -1.8160 ca        1 A69     -0.131000
     21 C34         3.0470   -4.0400   -1.1540 ca        1 A69     -0.111500
     22 C35         4.1710   -3.3900   -0.6430 ca        1 A69     -0.091000
     23 C36         4.3080   -2.0100   -0.7970 ca        1 A69     -0.111500
     24 C37         3.3230   -1.2790   -1.4600 ca        1 A69     -0.131000
     25 C38         2.1920   -1.9260   -1.9710 ca        1 A69     -0.169300
     26 C40        -2.4810   -0.4130   -8.4080 ca        1 A69     -0.112300
     27 C41        -3.0320   -1.6810   -8.6170 ca        1 A69     -0.126500
     28 C42        -2.6100   -2.4610   -9.6940 ca        1 A69     -0.117000
     29 C43        -1.6360   -1.9790  -10.5680 ca        1 A69     -0.109000
     30 C44        -1.0840   -0.7130  -10.3650 ca        1 A69     -0.117000
     31 C45        -1.5060    0.0670   -9.2910 ca        1 A69     -0.126500
     32 C1         -4.1880    8.0600   -7.2960 cc        1 A69      0.398100
     33 N1         -3.9460    7.0560   -8.1400 nd        1 A69     -0.510100
     34 S1         -3.3510    8.0440   -5.8170 ss        1 A69      0.169900
     35 C2         -3.0180    6.2010   -7.5720 ca        1 A69      0.217400
     36 C3         -2.5700    6.6050   -6.2470 ca        1 A69     -0.200100
     37 C4         -1.6410    5.8430   -5.5720 ca        1 A69      0.130000
     38 C5         -1.0990    4.6670   -6.1470 ca        1 A69     -0.638500
     39 C6         -1.5640    4.2890   -7.4540 ca        1 A69     -0.022000
     40 C7         -2.4870    5.0190   -8.1520 ca        1 A69     -0.082000
     41 S8          0.0010    3.8380   -5.4510 s4        1 A69      1.683300
     42 O9          0.6530    2.8760   -6.1520 o         1 A69     -0.439400
     43 O10         0.4530    4.2690   -4.2420 o         1 A69     -0.439400
     44 H27        -0.6110    0.3680    3.0630 ha        1 A69      0.185000
     45 H25        -1.3770   -3.4260    5.0380 ha        1 A69      0.173000
     46 H24        -1.5440   -4.5500    2.8190 ha        1 A69      0.170000
     47 H23        -1.2550   -3.2750    0.7340 ha        1 A69      0.128000
     48 HO27       -1.0250   -1.3690    6.0870 ho        1 A69      0.450000
     49 H12        -3.0330    0.8390   -4.4810 h1        1 A69      0.075700
     50 H12A       -3.0140    2.3450   -5.5040 h1        1 A69      0.075700
     51 H13        -1.4380   -0.2930   -5.9080 hc        1 A69      0.052200
     52 H13A       -0.9870    1.2160   -6.7920 hc        1 A69      0.052200
     53 H14        -3.8130   -0.0620   -6.7550 hc        1 A69      0.053700
     54 H14A       -3.3240    1.4130   -7.6790 hc        1 A69      0.053700
     55 H16         0.0550    0.5840   -4.4940 h1        1 A69      0.093700
     56 H16A        0.4410    1.8470   -3.2230 h1        1 A69      0.093700
     57 H17        -1.5480    0.9130   -1.8250 h1        1 A69      0.112700
     58 HO18       -1.4880   -1.0430   -3.8590 ho        1 A69      0.429000
     59 H19         0.8320    0.4440   -1.2700 hx        1 A69      0.123700
     60 HN20        0.3920   -1.9730   -0.4690 hn        1 A69      0.474300
     61 H32         0.5550   -1.8420   -3.3690 hc        1 A69      0.080200
     62 H32A        1.6700   -0.4100   -3.3900 hc        1 A69      0.080200
     63 H33         1.1970   -3.8390   -2.2530 ha        1 A69      0.135000
     64 H34         2.9470   -5.1330   -1.0500 ha        1 A69      0.161000
     65 H35         4.9560   -3.9690   -0.1290 ha        1 A69      0.165000
     66 H36         5.2020   -1.4970   -0.4050 ha        1 A69      0.161000
     67 H37         3.4470   -0.1940   -1.5980 ha        1 A69      0.135000
     68 H41        -3.8100   -2.0640   -7.9390 ha        1 A69      0.122000
     69 H42        -3.0540   -3.4550   -9.8580 ha        1 A69      0.146500
     70 H43        -1.3070   -2.5930  -11.4210 ha        1 A69      0.151000
     71 H44        -0.3200   -0.3290  -11.0580 ha        1 A69      0.146500
     72 H45        -1.0750    1.0680   -9.1400 ha        1 A69      0.122000
     73 H6         -1.1440    3.3700   -7.9080 ha        1 A69      0.171000
     74 H7         -2.8230    4.7120   -9.1600 ha        1 A69      0.201000
     75 H1         -4.9030    8.8530   -7.5740 h5        1 A69      0.107800
     76 H111       -1.8110    2.6460   -3.5310 hn        1 A69      0.393800
     77 H202       -1.1530   -1.7360   -1.0710 hn        1 A69      0.474300
     78 H4         -1.2940    6.1540   -4.5660 ha        1 A69      0.173000
@<TRIPOS>BOND
     1    1    2 2   
     2    1    3 1   
     3    1   18 1   
     4    3    4 ar  
     5    3    8 ar  
     6    4    5 ar  
     7    4   44 1   
     8    5    6 ar  
     9    5    9 1   
    10    6    7 ar  
    11    6   45 1   
    12    7    8 ar  
    13    7   46 1   
    14    8   47 1   
    15    9   48 1   
    16   10   11 1   
    17   10   14 1   
    18   10   76 1   
    19   11   12 1   
    20   11   49 1   
    21   11   50 1   
    22   12   13 1   
    23   12   51 1   
    24   12   52 1   
    25   13   26 1   
    26   13   53 1   
    27   13   54 1   
    28   14   15 1   
    29   14   55 1   
    30   14   56 1   
    31   15   16 1   
    32   15   17 1   
    33   15   57 1   
    34   16   58 1   
    35   17   18 1   
    36   17   19 1   
    37   17   59 1   
    38   18   60 1   
    39   18   77 1   
    40   19   25 1   
    41   19   61 1   
    42   19   62 1   
    43   20   21 ar  
    44   20   25 ar  
    45   20   63 1   
    46   21   22 ar  
    47   21   64 1   
    48   22   23 ar  
    49   22   65 1   
    50   23   24 ar  
    51   23   66 1   
    52   24   25 ar  
    53   24   67 1   
    54   26   27 ar  
    55   26   31 ar  
    56   27   28 ar  
    57   27   68 1   
    58   28   29 ar  
    59   28   69 1   
    60   29   30 ar  
    61   29   70 1   
    62   30   31 ar  
    63   30   71 1   
    64   31   72 1   
    65   32   33 2   
    66   32   34 1   
    67   32   75 1   
    68   33   35 1   
    69   34   36 1   
    70   35   36 ar  
    71   35   40 ar  
    72   36   37 ar  
    73   37   38 ar  
    74   37   78 1   
    75   38   39 ar  
    76   38   41 1   
    77   39   40 ar  
    78   39   73 1   
    79   40   74 1   
    80   41   42 1   
    81   41   43 1   
@<TRIPOS>SUBSTRUCTURE
     1 A69         1 TEMP              0 ****  ****    0 ROOT
