@<TRIPOS>MOLECULE
A69
   78    81     1     0     0
SMALL
bcc


@<TRIPOS>ATOM
      1 C21        -0.7080   -0.5650    0.5650 c         1 A69      0.584700
      2 O22        -0.8320    0.6510    0.4810 o         1 A69     -0.448100
      3 C22        -0.8790   -1.4140    1.7440 ca        1 A69     -0.172600
      4 C27        -0.8070   -0.7700    2.9870 ca        1 A69     -0.078000
      5 C26        -0.9730   -1.5320    4.1590 ca        1 A69      0.145100
      6 C25        -1.2170   -2.9120    4.0870 ca        1 A69     -0.140000
      7 C24        -1.2960   -3.5290    2.8380 ca        1 A69     -0.075000
      8 C23        -1.1270   -2.7950    1.6670 ca        1 A69     -0.139000
      9 O27        -0.8800   -0.8380    5.3330 oh        1 A69     -0.468100
     10 N11        -1.3680    2.1340   -4.2550 n7        1 A69     -0.898200
     11 C12        -2.3860    1.4990   -5.0970 c3        1 A69      0.107800
     12 C13        -1.8400    0.6960   -6.2760 c3        1 A69     -0.091400
     13 C14        -2.9510    0.4340   -7.2770 c3        1 A69     -0.028100
     14 C16        -0.4000    1.2210   -3.6610 c3        1 A69      0.096800
     15 C17        -0.9390    0.2930   -2.5600 c3        1 A69      0.099100
     16 O18        -1.8250   -0.6930   -3.0430 oh        1 A69     -0.597800
     17 C19         0.2330   -0.3720   -1.7880 c3        1 A69      0.099500
     18 N20        -0.3070   -1.2790   -0.7150 ny        1 A69     -0.678800
     19 C32         1.1740   -1.1420   -2.7260 c3        1 A69     -0.052100
     20 C33         2.0970   -3.2940   -1.8390 ca        1 A69     -0.131000
     21 C34         3.0920   -4.0150   -1.1810 ca        1 A69     -0.111500
     22 C35         4.2070   -3.3550   -0.6620 ca        1 A69     -0.091000
     23 C36         4.3270   -1.9720   -0.8050 ca        1 A69     -0.111500
     24 C37         3.3350   -1.2480   -1.4650 ca        1 A69     -0.131000
     25 C38         2.2120   -1.9050   -1.9830 ca        1 A69     -0.169300
     26 C40        -2.4710   -0.3960   -8.4150 ca        1 A69     -0.112300
     27 C41        -3.0040   -1.6710   -8.6340 ca        1 A69     -0.126500
     28 C42        -2.5720   -2.4350   -9.7180 ca        1 A69     -0.117000
     29 C43        -1.6050   -1.9330  -10.5880 ca        1 A69     -0.109000
     30 C44        -1.0710   -0.6620  -10.3750 ca        1 A69     -0.117000
     31 C45        -1.5030    0.1040   -9.2950 ca        1 A69     -0.126500
     32 C1         -4.2770    8.0490   -7.2340 cc        1 A69      0.398100
     33 N1         -4.0240    7.0550   -8.0860 nd        1 A69     -0.510100
     34 S1         -3.4420    8.0300   -5.7540 ss        1 A69      0.169900
     35 C2         -3.0860    6.2060   -7.5240 ca        1 A69      0.217400
     36 C3         -2.6440    6.6030   -6.1950 ca        1 A69     -0.200100
     37 C4         -1.7070    5.8460   -5.5260 ca        1 A69      0.130000
     38 C5         -1.1510    4.6820   -6.1110 ca        1 A69     -0.638500
     39 C6         -1.6110    4.3100   -7.4210 ca        1 A69     -0.022000
     40 C7         -2.5420    5.0350   -8.1140 ca        1 A69     -0.082000
     41 S8         -0.0420    3.8590   -5.4200 s4        1 A69      1.683300
     42 O9          0.6220    2.9110   -6.1300 o         1 A69     -0.439400
     43 O10         0.4040    4.2850   -4.2070 o         1 A69     -0.439400
     44 H27        -0.6280    0.3150    3.0640 ha        1 A69      0.185000
     45 H25        -1.3490   -3.5040    5.0080 ha        1 A69      0.173000
     46 H24        -1.4980   -4.6120    2.7800 ha        1 A69      0.170000
     47 H23        -1.2210   -3.3180    0.7050 ha        1 A69      0.128000
     48 HO27       -1.0260   -1.4510    6.0740 ho        1 A69      0.450000
     49 H12        -3.0420    0.8170   -4.4790 h1        1 A69      0.075700
     50 H12A       -3.0400    2.3320   -5.4890 h1        1 A69      0.075700
     51 H13        -0.9980    1.2380   -6.7850 hc        1 A69      0.052200
     52 H13A       -1.4300   -0.2830   -5.9140 hc        1 A69      0.052200
     53 H14        -3.3380    1.4130   -7.6720 hc        1 A69      0.053700
     54 H14A       -3.8080   -0.0760   -6.7600 hc        1 A69      0.053700
     55 H16         0.0490    0.5990   -4.4900 h1        1 A69      0.093700
     56 H16A        0.4180    1.8560   -3.2080 h1        1 A69      0.093700
     57 H17        -1.5620    0.8870   -1.8210 h1        1 A69      0.112700
     58 HO18       -1.4740   -1.0520   -3.8710 ho        1 A69      0.429000
     59 H19         0.8220    0.4420   -1.2660 hx        1 A69      0.123700
     60 HN20       -1.1360   -1.7630   -1.0880 hn        1 A69      0.474300
     61 H32         0.5770   -1.8310   -3.3830 hc        1 A69      0.080200
     62 H32A        1.6750   -0.3850   -3.3910 hc        1 A69      0.080200
     63 H33         1.2420   -3.8280   -2.2820 ha        1 A69      0.135000
     64 H34         3.0050   -5.1090   -1.0850 ha        1 A69      0.161000
     65 H35         4.9990   -3.9280   -0.1510 ha        1 A69      0.165000
     66 H36         5.2140   -1.4510   -0.4080 ha        1 A69      0.161000
     67 H37         3.4460   -0.1610   -1.5940 ha        1 A69      0.135000
     68 H41        -3.7760   -2.0690   -7.9590 ha        1 A69      0.122000
     69 H42        -3.0010   -3.4350   -9.8890 ha        1 A69      0.146500
     70 H43        -1.2670   -2.5360  -11.4460 ha        1 A69      0.151000
     71 H44        -0.3120   -0.2620  -11.0650 ha        1 A69      0.146500
     72 H45        -1.0860    1.1100   -9.1360 ha        1 A69      0.122000
     73 H6         -1.1790    3.3990   -7.8830 ha        1 A69      0.171000
     74 H7         -2.8730    4.7320   -9.1240 ha        1 A69      0.201000
     75 H1         -5.0010    8.8360   -7.5050 h5        1 A69      0.107800
     76 H111       -1.8430    2.6310   -3.5130 hn        1 A69      0.393800
     77 H202        0.4100   -1.9860   -0.4850 hn        1 A69      0.474300
     78 H4         -1.3640    6.1530   -4.5170 ha        1 A69      0.173000
@<TRIPOS>BOND
     1    1    2 2   
     2    1    3 1   
     3    1   18 1   
     4    3    4 ar  
     5    3    8 ar  
     6    4    5 ar  
     7    4   44 1   
     8    5    6 ar  
     9    5    9 1   
    10    6    7 ar  
    11    6   45 1   
    12    7    8 ar  
    13    7   46 1   
    14    8   47 1   
    15    9   48 1   
    16   10   11 1   
    17   10   14 1   
    18   10   76 1   
    19   11   12 1   
    20   11   49 1   
    21   11   50 1   
    22   12   13 1   
    23   12   51 1   
    24   12   52 1   
    25   13   26 1   
    26   13   53 1   
    27   13   54 1   
    28   14   15 1   
    29   14   55 1   
    30   14   56 1   
    31   15   16 1   
    32   15   17 1   
    33   15   57 1   
    34   16   58 1   
    35   17   18 1   
    36   17   19 1   
    37   17   59 1   
    38   18   60 1   
    39   18   77 1   
    40   19   25 1   
    41   19   61 1   
    42   19   62 1   
    43   20   21 ar  
    44   20   25 ar  
    45   20   63 1   
    46   21   22 ar  
    47   21   64 1   
    48   22   23 ar  
    49   22   65 1   
    50   23   24 ar  
    51   23   66 1   
    52   24   25 ar  
    53   24   67 1   
    54   26   27 ar  
    55   26   31 ar  
    56   27   28 ar  
    57   27   68 1   
    58   28   29 ar  
    59   28   69 1   
    60   29   30 ar  
    61   29   70 1   
    62   30   31 ar  
    63   30   71 1   
    64   31   72 1   
    65   32   33 2   
    66   32   34 1   
    67   32   75 1   
    68   33   35 1   
    69   34   36 1   
    70   35   36 ar  
    71   35   40 ar  
    72   36   37 ar  
    73   37   38 ar  
    74   37   78 1   
    75   38   39 ar  
    76   38   41 1   
    77   39   40 ar  
    78   39   73 1   
    79   40   74 1   
    80   41   42 1   
    81   41   43 1   
@<TRIPOS>SUBSTRUCTURE
     1 A69         1 TEMP              0 ****  ****    0 ROOT
