@<TRIPOS>MOLECULE
A69
   78    81     1     0     0
SMALL
bcc


@<TRIPOS>ATOM
      1 C21        -0.7750   -0.6350    0.5550 c         1 A69      0.584700
      2 O22        -0.8770    0.5830    0.4850 o         1 A69     -0.448100
      3 C22        -0.9750   -1.4960    1.7210 ca        1 A69     -0.172600
      4 C27        -0.9070   -0.8690    2.9730 ca        1 A69     -0.078000
      5 C26        -1.1000   -1.6420    4.1330 ca        1 A69      0.145100
      6 C25        -1.3660   -3.0170    4.0410 ca        1 A69     -0.140000
      7 C24        -1.4400   -3.6170    2.7840 ca        1 A69     -0.075000
      8 C23        -1.2450   -2.8710    1.6250 ca        1 A69     -0.139000
      9 O27        -1.0100   -0.9640    5.3170 oh        1 A69     -0.468100
     10 N11        -1.3320    2.1320   -4.2390 n3        1 A69     -0.898200
     11 C12        -2.3500    1.5230   -5.1000 c3        1 A69      0.107800
     12 C13        -1.8040    0.7260   -6.2820 c3        1 A69     -0.091400
     13 C14        -2.9090    0.4930   -7.2990 c3        1 A69     -0.028100
     14 C16        -0.3870    1.1960   -3.6450 c3        1 A69      0.096800
     15 C17        -0.9540    0.2640   -2.5610 c3        1 A69      0.099100
     16 O18        -1.8500   -0.7020   -3.0670 oh        1 A69     -0.597800
     17 C19         0.1980   -0.4300   -1.7840 c3        1 A69      0.099500
     18 N20        -0.3700   -1.3410   -0.7280 n4        1 A69     -0.678800
     19 C32         1.1370   -1.2040   -2.7200 c3        1 A69     -0.052100
     20 C33         2.0130   -3.3820   -1.8490 ca        1 A69     -0.131000
     21 C34         2.9880   -4.1280   -1.1880 ca        1 A69     -0.111500
     22 C35         4.1080   -3.4930   -0.6480 ca        1 A69     -0.091000
     23 C36         4.2530   -2.1100   -0.7720 ca        1 A69     -0.111500
     24 C37         3.2800   -1.3620   -1.4350 ca        1 A69     -0.131000
     25 C38         2.1530   -1.9940   -1.9740 ca        1 A69     -0.170300
     26 C40        -2.4290   -0.3310   -8.4410 ca        1 A69     -0.112300
     27 C41        -2.9810   -1.5940   -8.6810 ca        1 A69     -0.126500
     28 C42        -2.5490   -2.3520   -9.7690 ca        1 A69     -0.117000
     29 C43        -1.5640   -1.8560  -10.6230 ca        1 A69     -0.109000
     30 C44        -1.0120   -0.5960  -10.3890 ca        1 A69     -0.117000
     31 C45        -1.4430    0.1640   -9.3040 ca        1 A69     -0.126500
     32 C1         -4.1050    8.1290   -7.1830 cc        1 A69      0.398100
     33 N1         -3.8570    7.1410   -8.0440 nd        1 A69     -0.510100
     34 S1         -3.2880    8.0790   -5.6930 ss        1 A69      0.169900
     35 C2         -2.9410    6.2700   -7.4810 ca        1 A69      0.217400
     36 C3         -2.5090    6.6440   -6.1410 ca        1 A69     -0.200100
     37 C4         -1.5930    5.8630   -5.4700 ca        1 A69      0.130000
     38 C5         -1.0500    4.6970   -6.0630 ca        1 A69     -0.638500
     39 C6         -1.4990    4.3480   -7.3820 ca        1 A69     -0.022000
     40 C7         -2.4090    5.0970   -8.0780 ca        1 A69     -0.082000
     41 S8          0.0370    3.8470   -5.3690 s4        1 A69      1.683300
     42 O9          0.6930    2.8960   -6.0810 o         1 A69     -0.439400
     43 O10         0.4760    4.2510   -4.1450 o         1 A69     -0.439400
     44 H27        -0.7100    0.2120    3.0660 ha        1 A69      0.185000
     45 H25        -1.5200   -3.6170    4.9530 ha        1 A69      0.173000
     46 H24        -1.6600   -4.6960    2.7100 ha        1 A69      0.170000
     47 H23        -1.3360   -3.3810    0.6550 ha        1 A69      0.128000
     48 HO27       -1.1750   -1.5830    6.0480 ho        1 A69      0.450000
     49 H12        -2.9860    2.3720   -5.4890 h1        1 A69      0.075700
     50 H12A       -3.0250    0.8450   -4.4980 h1        1 A69      0.075700
     51 H13        -1.4150   -0.2650   -5.9270 hc        1 A69      0.052200
     52 H13A       -0.9490    1.2600   -6.7760 hc        1 A69      0.052200
     53 H14        -3.7790   -0.0090   -6.7970 hc        1 A69      0.053700
     54 H14A       -3.2760    1.4830   -7.6860 hc        1 A69      0.053700
     55 H16         0.0620    0.5760   -4.4760 h1        1 A69      0.093700
     56 H16A        0.4360    1.8110   -3.1750 h1        1 A69      0.093700
     57 H17        -1.5750    0.8590   -1.8220 h1        1 A69      0.112700
     58 HO18       -1.4960   -1.0570   -3.8950 ho        1 A69      0.429000
     59 H19         0.7940    0.3680   -1.2450 hx        1 A69      0.123700
     60 HN20       -1.2030   -1.8060   -1.1170 hn        1 A69      0.474300
     61 H32         0.5370   -1.8750   -3.3920 hc        1 A69      0.080200
     62 H32A        1.6580   -0.4480   -3.3690 hc        1 A69      0.080200
     63 H33         1.1550   -3.8970   -2.3090 ha        1 A69      0.135000
     64 H34         2.8830   -5.2210   -1.1070 ha        1 A69      0.161000
     65 H35         4.8840   -4.0850   -0.1350 ha        1 A69      0.165000
     66 H36         5.1430   -1.6090   -0.3580 ha        1 A69      0.161000
     67 H37         3.4110   -0.2750   -1.5490 ha        1 A69      0.135000
     68 H41        -3.7670   -1.9880   -8.0200 ha        1 A69      0.122000
     69 H42        -2.9930   -3.3420   -9.9570 ha        1 A69      0.146500
     70 H43        -1.2270   -2.4540  -11.4840 ha        1 A69      0.151000
     71 H44        -0.2390   -0.2000  -11.0650 ha        1 A69      0.146500
     72 H45        -1.0120    1.1610   -9.1290 ha        1 A69      0.122000
     73 H6         -1.0780    3.4360   -7.8500 ha        1 A69      0.171000
     74 H7         -2.7330    4.8120   -9.0960 ha        1 A69      0.201000
     75 H1         -4.8120    8.9320   -7.4530 h5        1 A69      0.107800
     76 H111       -1.8070    2.6280   -3.4960 hn        1 A69      0.393800
     77 H202        0.3330   -2.0620   -0.4980 hn        1 A69      0.474300
     78 H4         -1.2580    6.1520   -4.4540 ha        1 A69      0.173000
@<TRIPOS>BOND
     1    1    2 2   
     2    1    3 1   
     3    1   18 1   
     4    3    4 ar  
     5    3    8 ar  
     6    4    5 ar  
     7    4   44 1   
     8    5    6 ar  
     9    5    9 1   
    10    6    7 ar  
    11    6   45 1   
    12    7    8 ar  
    13    7   46 1   
    14    8   47 1   
    15    9   48 1   
    16   10   11 1   
    17   10   14 1   
    18   10   76 1   
    19   11   12 1   
    20   11   49 1   
    21   11   50 1   
    22   12   13 1   
    23   12   51 1   
    24   12   52 1   
    25   13   26 1   
    26   13   53 1   
    27   13   54 1   
    28   14   15 1   
    29   14   55 1   
    30   14   56 1   
    31   15   16 1   
    32   15   17 1   
    33   15   57 1   
    34   16   58 1   
    35   17   18 1   
    36   17   19 1   
    37   17   59 1   
    38   18   60 1   
    39   18   77 1   
    40   19   25 1   
    41   19   61 1   
    42   19   62 1   
    43   20   21 ar  
    44   20   25 ar  
    45   20   63 1   
    46   21   22 ar  
    47   21   64 1   
    48   22   23 ar  
    49   22   65 1   
    50   23   24 ar  
    51   23   66 1   
    52   24   25 ar  
    53   24   67 1   
    54   26   27 ar  
    55   26   31 ar  
    56   27   28 ar  
    57   27   68 1   
    58   28   29 ar  
    59   28   69 1   
    60   29   30 ar  
    61   29   70 1   
    62   30   31 ar  
    63   30   71 1   
    64   31   72 1   
    65   32   33 2   
    66   32   34 1   
    67   32   75 1   
    68   33   35 1   
    69   34   36 1   
    70   35   36 ar  
    71   35   40 ar  
    72   36   37 ar  
    73   37   38 ar  
    74   37   78 1   
    75   38   39 ar  
    76   38   41 1   
    77   39   40 ar  
    78   39   73 1   
    79   40   74 1   
    80   41   42 1   
    81   41   43 1   
@<TRIPOS>SUBSTRUCTURE
     1 A69         1 TEMP              0 ****  ****    0 ROOT
