@<TRIPOS>MOLECULE
A6A
   38    40     1     0     0
SMALL
bcc


@<TRIPOS>ATOM
      1 P           5.0340    0.2670    0.0390 p5        1 A6A      1.431800
      2 N1         -6.1740    0.8270    0.4410 nb        1 A6A     -0.805000
      3 C2         -5.7710   -0.4360    0.7650 ca        1 A6A      0.636900
      4 N3         -4.5460   -0.9980    0.7340 nb        1 A6A     -0.704000
      5 C4         -3.5720   -0.1340    0.3040 ca        1 A6A      0.426800
      6 C5         -3.8550    1.2540   -0.0830 ca        1 A6A     -0.203200
      7 C6         -5.2130    1.6910   -0.0120 ca        1 A6A      0.692200
      8 N6         -5.5560    2.9690   -0.4600 nh        1 A6A     -0.929500
      9 N7         -2.6670    1.8980   -0.4460 nc        1 A6A     -0.605100
     10 C8         -1.7070    0.9630   -0.2960 cd        1 A6A      0.464700
     11 N9         -2.1920   -0.2840    0.1510 na        1 A6A     -0.209000
     12 C1'        -1.3890   -1.4650    0.4090 c3        1 A6A      0.000000
     13 C2'        -0.6960   -2.0070   -0.8670 c3        1 A6A      0.057100
     14 O2'        -0.4520   -3.3810   -0.6200 oh        1 A6A     -0.657800
     15 C3'         0.6450   -1.2850   -1.3000 c3        1 A6A      0.363800
     16 O3'         1.3270   -2.1050   -2.0750 o         1 A6A     -0.869500
     17 C4'         1.4750   -0.8450   -0.0520 c3        1 A6A      0.039100
     18 O4'         0.6550   -0.2860    0.9950 os        1 A6A     -0.429600
     19 C5'         2.4680    0.2630   -0.4310 c3        1 A6A      0.203400
     20 O5'         3.4660    0.3990    0.5330 os        1 A6A     -0.588200
     21 C6'        -0.3010   -1.2060    1.4700 c3        1 A6A      0.134400
     22 OP1         5.0460   -1.3430   -0.2350 oh        1 A6A     -0.790400
     23 OP2         5.1330    0.9080   -1.2920 o         1 A6A     -0.849500
     24 OP3         5.9160    0.5760    1.1830 o         1 A6A     -0.849500
     25 HN6        -4.7900    3.6040   -0.4960 hn        1 A6A      0.404800
     26 HN6A       -6.3990    3.3500   -0.0980 hn        1 A6A      0.404800
     27 H1'        -2.0880   -2.2620    0.8000 h1        1 A6A      0.071700
     28 H2'        -1.4130   -1.9530   -1.7330 h1        1 A6A      0.016700
     29 HO2'        0.4290   -3.5650   -1.0040 ho        1 A6A      0.445000
     30 H3'         0.2970   -0.3250   -1.8080 h1        1 A6A     -0.082300
     31 HO3'        4.4420   -1.6120   -0.9190 ho        1 A6A      0.435000
     32 H4'         2.0270   -1.7310    0.3610 h1        1 A6A      0.046700
     33 H5'         2.9140    0.0150   -1.4350 h1        1 A6A      0.032200
     34 H5'A        1.9030    1.2360   -0.5020 h1        1 A6A      0.032200
     35 H6'        -0.7210   -0.7430    2.4010 h1        1 A6A      0.039700
     36 H6'A        0.1690   -2.1980    1.7070 h1        1 A6A      0.039700
     37 H2         -6.5880   -1.1020    1.1120 h5        1 A6A      0.027100
     38 H8         -0.6190    1.0910   -0.4670 h5        1 A6A      0.126800
@<TRIPOS>BOND
     1    1   20 1   
     2    1   22 1   
     3    1   23 1   
     4    1   24 1   
     5    2    3 ar  
     6    2    7 ar  
     7    3    4 ar  
     8    3   37 1   
     9    4    5 ar  
    10    5    6 ar  
    11    5   11 1   
    12    6    7 ar  
    13    6    9 1   
    14    7    8 1   
    15    8   25 1   
    16    8   26 1   
    17    9   10 2   
    18   10   11 1   
    19   10   38 1   
    20   11   12 1   
    21   12   13 1   
    22   12   21 1   
    23   12   27 1   
    24   13   14 1   
    25   13   15 1   
    26   13   28 1   
    27   14   29 1   
    28   15   16 1   
    29   15   17 1   
    30   15   30 1   
    31   17   18 1   
    32   17   19 1   
    33   17   32 1   
    34   18   21 1   
    35   19   20 1   
    36   19   33 1   
    37   19   34 1   
    38   21   35 1   
    39   21   36 1   
    40   22   31 1   
@<TRIPOS>SUBSTRUCTURE
     1 A6A         1 TEMP              0 ****  ****    0 ROOT
