@<TRIPOS>MOLECULE
A6A
   38    32     1     0     0
SMALL
bcc


@<TRIPOS>ATOM
      1 P          -3.0640    3.1390   -3.7170 p3        1 A6A      2.532000
      2 N1          2.3810   -3.7020    3.1180 n1        1 A6A     -0.256000
      3 C2          2.4860   -2.3600    3.3420 c1        1 A6A     -0.082000
      4 N3          1.9040   -1.4620    2.4650 n1        1 A6A     -0.207000
      5 C4          1.2170   -1.9180    1.3640 c1        1 A6A     -0.073000
      6 C5          1.1080   -3.2470    1.1350 c1        1 A6A     -0.073000
      7 C6          1.6990   -4.1590    2.0250 c1        1 A6A      0.058000
      8 N6          1.5650   -5.4850    2.2850 n3        1 A6A     -0.297000
      9 N7          0.4510   -3.4180   -0.0580 n1        1 A6A     -0.261500
     10 C8          0.1620   -2.1980   -0.5520 c1        1 A6A     -0.144000
     11 N9          0.6360   -1.2630    0.3260 n1        1 A6A     -0.261500
     12 C1'         0.2000    0.1860    0.5750 c2        1 A6A      0.006000
     13 C2'         0.8150    1.0090   -0.3900 c3        1 A6A     -0.012000
     14 O2'         2.3290    1.0120   -0.1410 oh        1 A6A     -0.316000
     15 C3'         0.3320    2.3960   -0.3680 c3        1 A6A     -0.030000
     16 O3'         0.7390    3.0030    0.8610 oh        1 A6A     -0.341000
     17 C4'        -1.2740    2.5410   -0.5010 c3        1 A6A     -0.021000
     18 O4'        -1.8010    1.5650    0.6130 os        1 A6A     -0.294000
     19 C5'        -1.6890    2.1590   -1.6990 c3        1 A6A      0.018000
     20 O5'        -2.0620    3.3270   -2.4740 o         1 A6A     -0.741000
     21 C6'        -1.2500    0.2270    0.5610 c3        1 A6A     -0.020000
     22 OP1        -4.4310    2.6160   -3.2090 o         1 A6A     -1.042333
     23 OP2        -3.2580    4.4860   -4.4150 o         1 A6A     -1.042333
     24 OP3        -2.4760    2.1340   -4.7010 o         1 A6A     -1.042333
     25 H2          3.0070   -2.0090    4.1750 ha        1 A6A      0.144000
     26 HN6         1.9410   -5.8410    3.0280 hn        1 A6A      0.163000
     27 HN6A        1.0580   -5.9900    1.7590 hn        1 A6A      0.163000
     28 H8         -0.3340   -2.0120   -1.3900 DU        1 A6A      0.220000
     29 H1'         0.5340    0.4780    1.5180 ha        1 A6A      0.082000
     30 H2'         0.6550    0.6550   -1.2230 h1        1 A6A      0.134000
     31 HO2'        2.7760    1.1550   -0.9490 ho        1 A6A      0.205000
     32 H3'         0.7470    2.8780   -1.1010 h1        1 A6A      0.149000
     33 HO3'        1.0250    3.8390    0.7010 ho        1 A6A      0.194000
     34 H4'        -1.5530    3.4700   -0.3120 h1        1 A6A      0.122000
     35 H5'        -0.9730    1.6820   -2.1520 h1        1 A6A      0.081500
     36 H5'A       -2.4740    1.5630   -1.6040 h1        1 A6A      0.081500
     37 H6'        -1.5490   -0.1870   -0.2160 h1        1 A6A      0.104500
     38 H6'A       -1.5790   -0.2690    1.3190 h1        1 A6A      0.104500
@<TRIPOS>BOND
     1    1   22 1   
     2    1   23 1   
     3    1   24 1   
     4    2    7 1   
     5    3    4 1   
     6    3   25 1   
     7    5    6 1   
     8    7    8 1   
     9    8   26 1   
    10    8   27 1   
    11    9   10 1   
    12   10   11 1   
    13   12   13 1   
    14   12   21 1   
    15   12   29 1   
    16   13   14 1   
    17   13   15 1   
    18   13   30 1   
    19   14   31 1   
    20   15   16 1   
    21   15   17 1   
    22   15   32 1   
    23   16   33 1   
    24   17   18 1   
    25   17   19 1   
    26   17   34 1   
    27   18   21 1   
    28   19   20 1   
    29   19   35 1   
    30   19   36 1   
    31   21   37 1   
    32   21   38 1   
@<TRIPOS>SUBSTRUCTURE
     1 A6A         1 TEMP              0 ****  ****    0 ROOT
