@<TRIPOS>MOLECULE
A6B
   79    83     1     0     0
SMALL
bcc


@<TRIPOS>ATOM
      1 C1         -8.7640    0.1930   -0.5310 c3        1 A6B     -0.115000
      2 C2         -9.4510    0.4890   -1.8720 c3        1 A6B     -0.061400
      3 C3        -10.8220   -0.1730   -1.9110 c3        1 A6B     -0.062700
      4 C4        -11.6830    0.3720   -0.7760 c3        1 A6B     -0.071400
      5 C5        -11.0100    0.0720    0.5590 c3        1 A6B     -0.062700
      6 C6         -9.6370    0.7370    0.6040 c3        1 A6B     -0.061400
      7 C7         -8.6150   -1.3230   -0.3750 c3        1 A6B     -0.061400
      8 C8        -10.6630   -1.6820   -1.7520 c3        1 A6B     -0.071400
      9 C9        -10.8500   -1.4370    0.7200 c3        1 A6B     -0.071400
     10 C10        -9.9910   -1.9820   -0.4160 c3        1 A6B     -0.062700
     11 C11        -7.3890    0.8690   -0.5290 c         1 A6B      0.660100
     12 N12        -6.6240    0.7660    0.6180 n         1 A6B     -0.567900
     13 O13        -6.9830    1.5230   -1.5100 o         1 A6B     -0.609100
     14 C14        -5.2790    1.2620    0.7000 c3        1 A6B      0.085000
     15 C15        -4.2020    0.1760    0.7410 c3        1 A6B     -0.105400
     16 C16        -2.8340    0.8110    0.8690 c3        1 A6B     -0.076400
     17 C17        -1.7470   -0.2410    0.9130 c3        1 A6B     -0.077400
     18 C18        -0.3790    0.3950    1.0370 c3        1 A6B     -0.105400
     19 C19         0.6980   -0.6920    1.0870 c3        1 A6B      0.085000
     20 C21        10.0330   -0.7580   -2.6520 c         1 A6B      0.750500
     21 N22         9.5070   -1.2680   -1.4280 n         1 A6B     -0.518900
     22 C23         9.9030   -0.3940   -0.3320 c3        1 A6B      0.061700
     23 C24        10.8950    0.6650   -0.9930 c3        1 A6B      0.058700
     24 N25        10.9940    0.2670   -2.3940 n         1 A6B     -0.513900
     25 C26        10.3970    2.0800   -0.7300 c3        1 A6B     -0.043300
     26 S27         8.7160    2.0120   -0.1950 ss        1 A6B     -0.294200
     27 C28         8.8030    0.3430    0.4340 c3        1 A6B     -0.009600
     28 C30         7.4350   -0.2950    0.3840 c3        1 A6B     -0.072400
     29 C31         6.4940    0.3460    1.3860 c3        1 A6B     -0.083400
     30 C32         5.1080   -0.2550    1.2860 c3        1 A6B     -0.075400
     31 C33         4.1740    0.3870    2.2880 c3        1 A6B     -0.155400
     32 C34         2.8140   -0.2890    2.3030 c         1 A6B      0.654100
     33 O35         2.4260   -0.9290    3.3010 o         1 A6B     -0.606100
     34 N36         2.0430   -0.1940    1.1600 n         1 A6B     -0.568900
     35 H2         -9.5510    1.5970   -2.0000 hc        1 A6B      0.049867
     36 H2A        -8.8110    0.1070   -2.7080 hc        1 A6B      0.049867
     37 H3        -11.3130    0.0510   -2.8950 hc        1 A6B      0.052033
     38 H4        -11.8140    1.4780   -0.8960 hc        1 A6B      0.042700
     39 H4A       -12.6970   -0.1020   -0.8050 hc        1 A6B      0.042700
     40 H5        -11.6410    0.4730    1.3960 hc        1 A6B      0.052033
     41 H6         -9.1630    0.5310    1.5970 hc        1 A6B      0.049867
     42 H6A        -9.7470    1.8460    0.4930 hc        1 A6B      0.049867
     43 H7         -7.9760   -1.7250   -1.2030 hc        1 A6B      0.049867
     44 H7A        -8.1200   -1.5710    0.5980 hc        1 A6B      0.049867
     45 H8        -11.6670   -2.1770   -1.7900 hc        1 A6B      0.042700
     46 H8A       -10.0430   -2.0890   -2.5900 hc        1 A6B      0.042700
     47 H9        -10.3700   -1.6660    1.7050 hc        1 A6B      0.042700
     48 H9A       -11.8560   -1.9290    0.7030 hc        1 A6B      0.042700
     49 H10        -9.8710   -3.0920   -0.2970 hc        1 A6B      0.052033
     50 HN12       -6.9180    0.1420    1.3300 hn        1 A6B      0.304500
     51 H14        -5.0870    1.9370   -0.1840 h1        1 A6B      0.061200
     52 H14A       -5.1970    1.8840    1.6390 h1        1 A6B      0.061200
     53 H15        -4.3790   -0.5130    1.6080 hc        1 A6B      0.044200
     54 H15A       -4.2450   -0.4420   -0.1930 hc        1 A6B      0.044200
     55 H16        -2.6570    1.5000    0.0020 hc        1 A6B      0.043700
     56 H16A       -2.7920    1.4340    1.8020 hc        1 A6B      0.043700
     57 H17        -1.9230   -0.9280    1.7830 hc        1 A6B      0.044200
     58 H17A       -1.7910   -0.8660   -0.0180 hc        1 A6B      0.044200
     59 H18        -0.2010    1.0770    0.1650 hc        1 A6B      0.044700
     60 H18A       -0.3360    1.0200    1.9670 hc        1 A6B      0.044700
     61 H19         0.5080   -1.3560    1.9800 h1        1 A6B      0.062200
     62 H19A        0.6130   -1.3240    0.1560 h1        1 A6B      0.062200
     63 HN22        8.5710   -1.6020   -1.4530 hn        1 A6B      0.317500
     64 H23        10.4840   -1.0290    0.3960 h1        1 A6B      0.088700
     65 H24        11.9190    0.5370   -0.5390 h1        1 A6B      0.089700
     66 HN25       11.0570    0.9880   -3.0760 hn        1 A6B      0.312500
     67 H26        11.0280    2.5560    0.0600 h1        1 A6B      0.083700
     68 H26A       10.4460    2.7350   -1.6340 h1        1 A6B      0.083700
     69 H28         9.1290    0.4040    1.5080 h1        1 A6B      0.083700
     70 H30         6.9960   -0.1960   -0.6450 hc        1 A6B      0.057200
     71 H30A        7.5260   -1.3910    0.6150 hc        1 A6B      0.057200
     72 H31         6.8930    0.2030    2.4250 hc        1 A6B      0.052700
     73 H31A        6.4440    1.4530    1.1970 hc        1 A6B      0.052700
     74 H32         4.7130   -0.1140    0.2450 hc        1 A6B      0.050200
     75 H32A        5.1610   -1.3600    1.4760 hc        1 A6B      0.050200
     76 H33         4.6020    0.2980    3.3220 hc        1 A6B      0.070700
     77 H33A        4.0510    1.4780    2.0630 hc        1 A6B      0.070700
     78 HN36        2.3360    0.4220    0.4410 hn        1 A6B      0.304500
     79 O29         9.7660   -1.2100   -3.7780 o         1 A6B     -0.614500
@<TRIPOS>BOND
     1    1    2 1   
     2    1    6 1   
     3    1    7 1   
     4    1   11 1   
     5    2    3 1   
     6    2   35 1   
     7    2   36 1   
     8    3    4 1   
     9    3    8 1   
    10    3   37 1   
    11    4    5 1   
    12    4   38 1   
    13    4   39 1   
    14    5    6 1   
    15    5    9 1   
    16    5   40 1   
    17    6   41 1   
    18    6   42 1   
    19    7   10 1   
    20    7   43 1   
    21    7   44 1   
    22    8   10 1   
    23    8   45 1   
    24    8   46 1   
    25    9   10 1   
    26    9   47 1   
    27    9   48 1   
    28   10   49 1   
    29   11   12 1   
    30   11   13 2   
    31   12   14 1   
    32   12   50 1   
    33   14   15 1   
    34   14   51 1   
    35   14   52 1   
    36   15   16 1   
    37   15   53 1   
    38   15   54 1   
    39   16   17 1   
    40   16   55 1   
    41   16   56 1   
    42   17   18 1   
    43   17   57 1   
    44   17   58 1   
    45   18   19 1   
    46   18   59 1   
    47   18   60 1   
    48   19   34 1   
    49   19   61 1   
    50   19   62 1   
    51   20   21 1   
    52   20   24 1   
    53   20   79 2   
    54   21   22 1   
    55   21   63 1   
    56   22   23 1   
    57   22   27 1   
    58   22   64 1   
    59   23   24 1   
    60   23   25 1   
    61   23   65 1   
    62   24   66 1   
    63   25   26 1   
    64   25   67 1   
    65   25   68 1   
    66   26   27 1   
    67   27   28 1   
    68   27   69 1   
    69   28   29 1   
    70   28   70 1   
    71   28   71 1   
    72   29   30 1   
    73   29   72 1   
    74   29   73 1   
    75   30   31 1   
    76   30   74 1   
    77   30   75 1   
    78   31   32 1   
    79   31   76 1   
    80   31   77 1   
    81   32   33 2   
    82   32   34 1   
    83   34   78 1   
@<TRIPOS>SUBSTRUCTURE
     1 A6B         1 TEMP              0 ****  ****    0 ROOT
