@<TRIPOS>MOLECULE
A6B
   81    85     1     0     0
SMALL
bcc


@<TRIPOS>ATOM
      1 C1         -3.2310    1.4910   -2.0430 c3        1 A6B     -0.110000
      2 C2         -1.8420    2.1300   -1.8700 c3        1 A6B     -0.073400
      3 C3         -1.7570    2.7850   -0.4960 c3        1 A6B     -0.059367
      4 C4         -1.9610    1.7270    0.5820 c3        1 A6B     -0.080067
      5 C5         -3.3360    1.0930    0.4160 c3        1 A6B     -0.059367
      6 C6         -3.4390    0.4310   -0.9580 c3        1 A6B     -0.073400
      7 C7         -4.3100    2.5780   -1.9200 c3        1 A6B     -0.073400
      8 C8         -2.8330    3.8590   -0.3740 c3        1 A6B     -0.080067
      9 C9         -4.4150    2.1650    0.5380 c3        1 A6B     -0.080067
     10 C10        -4.2090    3.2230   -0.5400 c3        1 A6B     -0.059367
     11 C11        -3.2960    0.9080   -3.4430 c         1 A6B      0.559100
     12 N12        -4.3940   -0.1200   -3.6770 n4        1 A6B     -0.680800
     13 O13        -2.5960    1.1720   -4.4060 o         1 A6B     -0.420100
     14 C14        -4.6210   -0.4400   -5.1130 c3        1 A6B      0.109800
     15 C15        -5.5290   -1.6490   -5.3160 c3        1 A6B     -0.102400
     16 C16        -5.8170   -1.8150   -6.7960 c3        1 A6B     -0.078400
     17 C17        -6.6510   -3.0570   -7.0440 c3        1 A6B     -0.078400
     18 C18        -7.0770   -3.1390   -8.4980 c3        1 A6B     -0.110400
     19 C19        -7.8190   -4.4500   -8.7360 c3        1 A6B      0.108800
     20 C21        -7.8250    1.8940   -4.5780 c         1 A6B      0.796500
     21 N22        -8.9900    1.1020   -4.7740 n         1 A6B     -0.523900
     22 C23        -9.9810    1.8830   -5.5210 c3        1 A6B      0.055700
     23 C24        -9.2680    3.2790   -5.8110 c3        1 A6B      0.070700
     24 N25        -7.9920    3.1830   -5.1050 n         1 A6B     -0.524900
     25 C26        -9.1750    3.5120   -7.3120 c3        1 A6B     -0.037300
     26 S27        -9.3930    1.9650   -8.1370 ss        1 A6B     -0.299200
     27 C28       -10.4090    1.2510   -6.8520 c3        1 A6B      0.011400
     28 C30       -10.3230   -0.2550   -6.9040 c3        1 A6B     -0.056400
     29 C31       -10.8110   -0.7880   -8.2390 c3        1 A6B     -0.090400
     30 C32       -10.5840   -2.2850   -8.3300 c3        1 A6B     -0.081400
     31 C33       -10.4250   -2.7170   -9.7780 c3        1 A6B     -0.151400
     32 C34       -10.0520   -4.1680   -9.8460 c         1 A6B      0.546100
     33 O35       -10.7770   -5.1450   -9.7730 o         1 A6B     -0.382100
     34 N36        -8.5720   -4.4930  -10.0290 n4        1 A6B     -0.687800
     35 H2         -1.6790    2.8950   -2.6730 hc        1 A6B      0.056033
     36 H2A        -1.0510    1.3440   -1.9710 hc        1 A6B      0.056033
     37 H3         -0.7420    3.2530   -0.3800 hc        1 A6B      0.079367
     38 H4         -1.8840    2.1990    1.5960 hc        1 A6B      0.062200
     39 H4A        -1.1640    0.9440    0.5080 hc        1 A6B      0.062200
     40 H5         -3.4890    0.3100    1.2070 hc        1 A6B      0.079367
     41 H6         -4.4520   -0.0390   -1.0430 hc        1 A6B      0.056033
     42 H6A        -2.6600   -0.3690   -1.0500 hc        1 A6B      0.056033
     43 H7         -4.1520    3.3560   -2.7110 hc        1 A6B      0.056033
     44 H7A        -5.3300    2.1350   -2.0620 hc        1 A6B      0.056033
     45 H8         -2.7630    4.3510    0.6300 hc        1 A6B      0.062200
     46 H8A        -2.6780    4.6470   -1.1550 hc        1 A6B      0.062200
     47 H9         -4.3560    2.6430    1.5510 hc        1 A6B      0.062200
     48 H9A        -5.4300    1.7030    0.4360 hc        1 A6B      0.062200
     49 H10        -5.0030    4.0120   -0.4510 hc        1 A6B      0.079367
     50 HN12       -5.2680    0.2570   -3.2720 hn        1 A6B      0.468300
     51 H14        -5.0880    0.4750   -5.5810 hx        1 A6B      0.113700
     52 H14A       -3.6180   -0.6220   -5.5970 hx        1 A6B      0.113700
     53 H15        -6.4950   -1.5060   -4.7630 hc        1 A6B      0.066200
     54 H15A       -5.0370   -2.5760   -4.9200 hc        1 A6B      0.066200
     55 H16        -4.8530   -1.8890   -7.3670 hc        1 A6B      0.064200
     56 H16A       -6.3650   -0.9110   -7.1750 hc        1 A6B      0.064200
     57 H17        -6.0600   -3.9700   -6.7680 hc        1 A6B      0.060200
     58 H17A       -7.5630   -3.0340   -6.3890 hc        1 A6B      0.060200
     59 H18        -6.1730   -3.0860   -9.1620 hc        1 A6B      0.072700
     60 H18A       -7.7290   -2.2560   -8.7420 hc        1 A6B      0.072700
     61 H19        -7.0750   -5.3010   -8.7440 hx        1 A6B      0.111200
     62 H19A       -8.5560   -4.6410   -7.9020 hx        1 A6B      0.111200
     63 H23       -10.8990    2.0600   -4.8920 h1        1 A6B      0.089700
     64 H24        -9.8570    4.1130   -5.3320 h1        1 A6B      0.108700
     65 HN25       -7.2090    3.7060   -5.4180 hn        1 A6B      0.340500
     66 H26        -8.1960    3.9460   -7.6310 h1        1 A6B      0.101200
     67 H26A       -9.9740    4.2300   -7.6260 h1        1 A6B      0.101200
     68 H28       -11.4720    1.5620   -7.0420 h1        1 A6B      0.096700
     69 H30       -10.9410   -0.6900   -6.0740 hc        1 A6B      0.055200
     70 H30A       -9.2610   -0.5870   -6.7450 hc        1 A6B      0.055200
     71 H31       -11.9020   -0.5620   -8.3680 hc        1 A6B      0.070700
     72 H31A      -10.2640   -0.2570   -9.0670 hc        1 A6B      0.070700
     73 H32        -9.6620   -2.5680   -7.7530 hc        1 A6B      0.059700
     74 H32A      -11.4500   -2.8290   -7.8660 hc        1 A6B      0.059700
     75 H33       -11.4090   -2.6020  -10.3210 hc        1 A6B      0.113200
     76 H33A       -9.6710   -2.0700  -10.3020 hc        1 A6B      0.113200
     77 HN36       -8.1580   -3.8310  -10.6940 hn        1 A6B      0.463800
     78 O29        -6.7800    1.4750   -4.0220 o         1 A6B     -0.748500
     79 H122       -4.1450   -0.9710   -3.1630 hn        1 A6B      0.468300
     80 H362       -8.4950   -5.4420  -10.4230 hn        1 A6B      0.463800
     81 HN22       -9.3200    0.5830   -3.9930 hn        1 A6B      0.321500
@<TRIPOS>BOND
     1    1    2 1   
     2    1    6 1   
     3    1    7 1   
     4    1   11 1   
     5    2    3 1   
     6    2   35 1   
     7    2   36 1   
     8    3    4 1   
     9    3    8 1   
    10    3   37 1   
    11    4    5 1   
    12    4   38 1   
    13    4   39 1   
    14    5    6 1   
    15    5    9 1   
    16    5   40 1   
    17    6   41 1   
    18    6   42 1   
    19    7   10 1   
    20    7   43 1   
    21    7   44 1   
    22    8   10 1   
    23    8   45 1   
    24    8   46 1   
    25    9   10 1   
    26    9   47 1   
    27    9   48 1   
    28   10   49 1   
    29   11   12 1   
    30   11   13 2   
    31   12   14 1   
    32   12   50 1   
    33   12   79 1   
    34   14   15 1   
    35   14   51 1   
    36   14   52 1   
    37   15   16 1   
    38   15   53 1   
    39   15   54 1   
    40   16   17 1   
    41   16   55 1   
    42   16   56 1   
    43   17   18 1   
    44   17   57 1   
    45   17   58 1   
    46   18   19 1   
    47   18   59 1   
    48   18   60 1   
    49   19   34 1   
    50   19   61 1   
    51   19   62 1   
    52   20   21 1   
    53   20   24 1   
    54   20   78 2   
    55   21   22 1   
    56   21   81 1   
    57   22   23 1   
    58   22   27 1   
    59   22   63 1   
    60   23   24 1   
    61   23   25 1   
    62   23   64 1   
    63   24   65 1   
    64   25   26 1   
    65   25   66 1   
    66   25   67 1   
    67   26   27 1   
    68   27   28 1   
    69   27   68 1   
    70   28   29 1   
    71   28   69 1   
    72   28   70 1   
    73   29   30 1   
    74   29   71 1   
    75   29   72 1   
    76   30   31 1   
    77   30   73 1   
    78   30   74 1   
    79   31   32 1   
    80   31   75 1   
    81   31   76 1   
    82   32   33 2   
    83   32   34 1   
    84   34   77 1   
    85   34   80 1   
@<TRIPOS>SUBSTRUCTURE
     1 A6B         1 TEMP              0 ****  ****    0 ROOT
