@<TRIPOS>MOLECULE
A6C
   36    35     1     0     0
SMALL
bcc


@<TRIPOS>ATOM
      1 P          -4.6310   -2.2020    0.7010 p3        1 A6C      2.522000
      2 N1          1.6080    0.4910   -0.7720 n         1 A6C     -0.219000
      3 C2          0.6950    1.0180   -1.7770 c2        1 A6C      0.341000
      4 O2         -0.4800    0.6870   -1.7640 o         1 A6C     -0.344000
      5 N3          1.2070    1.8240   -2.8740 n2        1 A6C     -0.308000
      6 C4          2.5970    1.9670   -3.0530 c1        1 A6C      0.181000
      7 N4          3.1090    2.6830   -4.1960 n3        1 A6C     -0.328000
      8 C5          3.5250    1.3760   -2.0790 c1        1 A6C     -0.390000
      9 C6          3.0030    0.6290   -0.9420 c2        1 A6C      0.099000
     10 C1'         1.0550   -0.2390    0.4570 c3        1 A6C     -0.048000
     11 C2'         0.1510    0.6260    1.1190 c3        1 A6C      0.026000
     12 O2'         0.9320    1.7950    1.6800 oh        1 A6C     -0.384000
     13 C3'        -0.5910   -0.0270    2.2310 c3        1 A6C     -0.038000
     14 O3'         0.3180   -0.3480    3.2390 oh        1 A6C     -0.418000
     15 C4'        -1.3760   -1.3650    1.8060 c3        1 A6C     -0.047000
     16 O4'        -0.2440   -2.2120    1.0670 os        1 A6C     -0.292000
     17 C5'        -2.3530   -1.0920    0.9980 c3        1 A6C      0.055000
     18 O5'        -3.0590   -2.2600    0.7160 o         1 A6C     -0.729000
     19 C6'         0.4690   -1.4960    0.0160 c3        1 A6C      0.000000
     20 OP1        -5.1770   -3.5100    0.1770 o         1 A6C     -1.249000
     21 OP2        -5.1350   -1.9720    2.0880 o         1 A6C     -1.249000
     22 OP3        -5.0880   -1.0640   -0.1990 o         1 A6C     -1.249000
     23 HN4         2.5340    2.9730   -4.8540 hn        1 A6C      0.186500
     24 HN4A        4.0110    2.8540   -4.2660 hn        1 A6C      0.186500
     25 H5          4.4900    1.4740   -2.2000 ha        1 A6C      0.140000
     26 H6          3.6140    0.2600   -0.2800 h4        1 A6C      0.187000
     27 H1'         1.7910   -0.4340    1.0590 h1        1 A6C      0.112000
     28 H2'        -0.4990    0.9650    0.4630 h1        1 A6C      0.109000
     29 HO2'        0.4190    2.5290    1.6720 ho        1 A6C      0.237000
     30 H3'        -1.2490    0.6220    2.5940 h1        1 A6C      0.208000
     31 HO3'       -0.0310   -0.1460    4.0260 ho        1 A6C      0.293000
     32 H4'        -1.7090   -1.8500    2.6140 h1        1 A6C      0.128000
     33 H5'        -1.9950   -0.7190    0.1680 h1        1 A6C      0.044500
     34 H5'A       -2.9510   -0.4420    1.4170 h1        1 A6C      0.044500
     35 H6'         1.2020   -2.0860   -0.3320 h1        1 A6C      0.095500
     36 H6'A       -0.1610   -1.3090   -0.7190 h1        1 A6C      0.095500
@<TRIPOS>BOND
     1    1   20 1   
     2    1   21 1   
     3    1   22 1   
     4    2    3 1   
     5    2    9 1   
     6    2   10 1   
     7    3    4 1   
     8    3    5 1   
     9    5    6 1   
    10    6    7 1   
    11    7   23 1   
    12    7   24 1   
    13    8    9 1   
    14    8   25 1   
    15    9   26 1   
    16   10   11 1   
    17   10   19 1   
    18   10   27 1   
    19   11   12 1   
    20   11   13 1   
    21   11   28 1   
    22   12   29 1   
    23   13   14 1   
    24   13   15 1   
    25   13   30 1   
    26   14   31 1   
    27   15   16 1   
    28   15   17 1   
    29   15   32 1   
    30   16   19 1   
    31   17   18 1   
    32   17   33 1   
    33   17   34 1   
    34   19   35 1   
    35   19   36 1   
@<TRIPOS>SUBSTRUCTURE
     1 A6C         1 TEMP              0 ****  ****    0 ROOT
