@<TRIPOS>MOLECULE
A6C
   36    37     1     0     0
SMALL
bcc


@<TRIPOS>ATOM
      1 P           4.4970   -0.2610   -0.1920 p5        1 A6C      1.436800
      2 N1         -2.7790   -0.0290    0.4470 n         1 A6C     -0.322000
      3 C2         -4.2160   -0.0410    0.5480 c         1 A6C      0.818900
      4 O2         -4.7930   -1.0930    0.9060 o         1 A6C     -0.654500
      5 N3         -4.9590    1.1160    0.2540 nc        1 A6C     -0.749100
      6 C4         -4.2990    2.2430   -0.0610 cd        1 A6C      0.709500
      7 N4         -5.0210    3.4310   -0.2800 nh        1 A6C     -0.892800
      8 C5         -2.8580    2.2990   -0.1340 cd        1 A6C     -0.479600
      9 C6         -2.1530    1.1360    0.1190 cc        1 A6C      0.107600
     10 C1'        -2.0020   -1.2560    0.6420 c3        1 A6C      0.040700
     11 C2'        -1.2580   -1.7110   -0.6400 c3        1 A6C      0.058100
     12 O2'        -1.0860   -3.1120   -0.5130 oh        1 A6C     -0.654800
     13 C3'         0.1340   -1.0180   -0.9290 c3        1 A6C      0.360800
     14 O3'         0.8350   -1.7840   -1.7430 o         1 A6C     -0.866500
     15 C4'         0.9090   -0.7500    0.3970 c3        1 A6C      0.031100
     16 O4'         0.0640   -0.2400    1.4510 os        1 A6C     -0.446600
     17 C5'         1.9930    0.3200    0.1880 c3        1 A6C      0.195400
     18 O5'         3.1870   -0.0520    0.8020 os        1 A6C     -0.588200
     19 C6'        -0.9770   -1.1320    1.7820 c3        1 A6C      0.135400
     20 OP1         4.4550    0.8400   -1.1830 o         1 A6C     -0.854500
     21 OP2         5.6730   -0.5470    0.6580 o         1 A6C     -0.854500
     22 OP3         4.0060   -1.6290   -0.9150 oh        1 A6C     -0.807400
     23 HN4        -5.9940    3.3170   -0.4610 hn        1 A6C      0.390300
     24 HN4A       -4.5670    4.0500   -0.9140 hn        1 A6C      0.390300
     25 H5         -2.3280    3.2250   -0.3740 ha        1 A6C      0.147000
     26 H6         -1.0360    1.1050    0.0780 h4        1 A6C      0.225000
     27 H1'        -2.7420   -2.0660    0.9210 h1        1 A6C      0.089700
     28 H2'        -1.9210   -1.5420   -1.5340 h1        1 A6C      0.013700
     29 HO2'       -0.1950   -3.3010   -0.8700 ho        1 A6C      0.445000
     30 H3'        -0.1410    0.0020   -1.3630 h1        1 A6C     -0.088300
     31 HO3'        3.1060   -1.6230   -1.2430 ho        1 A6C      0.468000
     32 H4'         1.3750   -1.7100    0.7480 h1        1 A6C      0.055700
     33 H5'         2.1540    0.4740   -0.9170 h1        1 A6C      0.031200
     34 H5'A        1.6400    1.2870    0.6490 h1        1 A6C      0.031200
     35 H6'        -1.4350   -0.7160    2.7170 h1        1 A6C      0.039200
     36 H6'A       -0.5750   -2.1640    1.9750 h1        1 A6C      0.039200
@<TRIPOS>BOND
     1    1   18 1   
     2    1   20 1   
     3    1   21 1   
     4    1   22 1   
     5    2    3 1   
     6    2    9 1   
     7    2   10 1   
     8    3    4 2   
     9    3    5 1   
    10    5    6 2   
    11    6    7 1   
    12    6    8 1   
    13    7   23 1   
    14    7   24 1   
    15    8    9 2   
    16    8   25 1   
    17    9   26 1   
    18   10   11 1   
    19   10   19 1   
    20   10   27 1   
    21   11   12 1   
    22   11   13 1   
    23   11   28 1   
    24   12   29 1   
    25   13   14 1   
    26   13   15 1   
    27   13   30 1   
    28   15   16 1   
    29   15   17 1   
    30   15   32 1   
    31   16   19 1   
    32   17   18 1   
    33   17   33 1   
    34   17   34 1   
    35   19   35 1   
    36   19   36 1   
    37   22   31 1   
@<TRIPOS>SUBSTRUCTURE
     1 A6C         1 TEMP              0 ****  ****    0 ROOT
