@<TRIPOS>MOLECULE
A6D
   48    41     1     0     0
SMALL
bcc


@<TRIPOS>ATOM
      1 N1         -4.0870    1.0170   -5.9910 n1        1 A6D     -0.268000
      2 C2         -2.7110    0.9680   -6.0090 c1        1 A6D      0.029000
      3 N3         -1.9980    1.3450   -4.9050 n1        1 A6D     -0.237000
      4 C4         -2.6510    1.7740   -3.7780 c1        1 A6D     -0.089000
      5 C5         -4.0070    1.8240   -3.7580 c1        1 A6D     -0.089000
      6 C6         -4.7330    1.4390   -4.8820 c1        1 A6D      0.245000
      7 N6         -6.0940    1.5810   -5.2590 n3        1 A6D     -0.353000
      8 N7         -4.3910    2.2750   -2.5390 n1        1 A6D     -0.165000
      9 C8         -3.2650    2.5050   -1.8000 c1        1 A6D     -0.036000
     10 N9         -2.1970    2.1970   -2.5610 n1        1 A6D     -0.165000
     11 OAB         3.1510   -5.9050    7.3090 o         1 A6D     -0.487200
     12 OAC         1.9420    3.2740   -1.3580 oh        1 A6D     -0.304000
     13 OAD         0.2560    4.0060   -3.0570 oh        1 A6D     -0.320000
     14 OAE         1.3660   -6.6170    6.1660 o         1 A6D     -0.487200
     15 CAF         4.3900   -4.4410    3.4400 c1        1 A6D     -0.100000
     16 CAG         3.6510   -3.2740    3.2110 c1        1 A6D     -0.071000
     17 CAH         4.0230   -5.3020    4.4570 c1        1 A6D     -0.100000
     18 CAK         2.1830   -3.8490    5.0310 c1        1 A6D     -0.049000
     19 CAL         1.7920   -1.6860    3.7940 c3        1 A6D     -0.240000
     20 CAM         0.4690    1.3780    1.0360 c3        1 A6D     -0.311000
     21 OAQ        -0.6000    1.1800   -0.9930 os        1 A6D     -0.252000
     22 SAR         1.9960   -1.1480    2.1210 ss        1 A6D      0.018000
     23 SAS         0.2270   -0.3420    1.4360 ss        1 A6D      0.037000
     24 CAT         2.5540   -2.9810    4.0040 c1        1 A6D     -0.079000
     25 CAV         2.9130   -5.0050    5.2590 c1        1 A6D     -0.132000
     26 CAY         0.7060    3.0590   -0.8450 c3        1 A6D      0.019000
     27 CAZ        -0.3470    3.3350   -1.8880 c3        1 A6D     -0.027000
     28 CBA         0.5310    1.5380   -0.4610 c3        1 A6D     -0.016000
     29 CBB        -0.8160    2.1190   -2.2420 c2        1 A6D      0.131000
     30 NBD         2.5270   -5.8750    6.2880 no        1 A6D      0.831400
     31 H2         -2.2480    0.6650   -6.8010 ha        1 A6D      0.189000
     32 HN6        -6.6560    2.1820   -4.7890 hn        1 A6D      0.246000
     33 HN6A       -6.4350    1.0880   -5.9820 hn        1 A6D      0.246000
     34 H8         -3.2370    2.8650   -0.8900 DU        1 A6D      0.220000
     35 HOAC        2.3230    4.0070   -0.9460 ho        1 A6D      0.227000
     36 HOAD       -0.0830    4.8380   -3.1360 ho        1 A6D      0.235000
     37 HAF         5.1790   -4.6510    2.8700 ha        1 A6D      0.162500
     38 HAG         3.9190   -2.6410    2.4650 ha        1 A6D      0.151000
     39 HAH         4.5690   -6.1660    4.6280 ha        1 A6D      0.162500
     40 HAK         1.4210   -3.6450    5.5800 ha        1 A6D      0.177000
     41 HAL         0.8690   -1.8280    3.9700 h1        1 A6D      0.120500
     42 HALA        2.1410   -0.9990    4.4030 h1        1 A6D      0.120500
     43 HAM        -0.2890    1.9100    1.3940 h1        1 A6D      0.129000
     44 HAMA        1.3000    1.6910    1.4330 h1        1 A6D      0.129000
     45 HAY         0.5620    3.6250   -0.0600 h1        1 A6D      0.131000
     46 HAZ        -1.0940    3.9050   -1.4980 h1        1 A6D      0.127000
     47 HBA         1.2780    0.9970   -0.8390 h1        1 A6D      0.148000
     48 HBB        -0.3010    1.7680   -3.0290 h4        1 A6D      0.145000
@<TRIPOS>BOND
     1    1    6 1   
     2    2    3 1   
     3    2   31 1   
     4    4    5 1   
     5    6    7 1   
     6    7   32 1   
     7    7   33 1   
     8    8    9 1   
     9    9   10 1   
    10   11   30 2   
    11   12   26 1   
    12   12   35 1   
    13   13   27 1   
    14   13   36 1   
    15   14   30 2   
    16   15   17 1   
    17   15   37 1   
    18   16   24 1   
    19   16   38 1   
    20   17   39 1   
    21   18   25 1   
    22   18   40 1   
    23   19   22 1   
    24   19   24 1   
    25   19   41 1   
    26   19   42 1   
    27   20   23 1   
    28   20   28 1   
    29   20   43 1   
    30   20   44 1   
    31   21   28 1   
    32   21   29 1   
    33   22   23 1   
    34   25   30 1   
    35   26   27 1   
    36   26   28 1   
    37   26   45 1   
    38   27   29 1   
    39   27   46 1   
    40   28   47 1   
    41   29   48 1   
@<TRIPOS>SUBSTRUCTURE
     1 A6D         1 TEMP              0 ****  ****    0 ROOT
