@<TRIPOS>MOLECULE
A6D
   48    51     1     0     0
SMALL
bcc


@<TRIPOS>ATOM
      1 N1         -6.9440    1.5970   -0.7510 nb        1 A6D     -0.795000
      2 C2         -6.7010    0.2880   -1.0180 ca        1 A6D      0.691900
      3 N3         -5.6320   -0.4840   -0.7070 nb        1 A6D     -0.763000
      4 C4         -4.6750    0.2040   -0.0140 ca        1 A6D      0.451800
      5 C5         -4.7880    1.6110    0.3510 ca        1 A6D     -0.229200
      6 C6         -5.9820    2.2980   -0.0570 ca        1 A6D      0.767200
      7 N6         -6.1480    3.6240    0.2330 nh        1 A6D     -0.957500
      8 N7         -3.6510    2.0140    1.0670 nc        1 A6D     -0.544100
      9 C8         -2.8770    0.9220    1.1430 cd        1 A6D      0.419700
     10 N9         -3.4330   -0.2080    0.4920 na        1 A6D     -0.296000
     11 OAC        -1.0310   -3.7600   -1.4850 oh        1 A6D     -0.573800
     12 OAD        -3.5190   -3.4490   -0.9320 oh        1 A6D     -0.592800
     13 CAF         6.6050    0.4080    1.5530 ca        1 A6D     -0.138000
     14 CAG         5.7120   -0.6490    1.3920 ca        1 A6D     -0.070000
     15 CAH         6.6710    1.4310    0.6090 ca        1 A6D     -0.062000
     16 CAK         4.9170    0.3180   -0.6800 ca        1 A6D     -0.059000
     17 CAL         3.9180   -1.8240    0.1070 c3        1 A6D      0.021000
     18 OAQ        -1.6210   -1.6240    1.0310 os        1 A6D     -0.395600
     19 SAR         2.5690   -1.8440    1.2530 ss        1 A6D     -0.165100
     20 SAS         1.3690   -0.1650    0.9060 ss        1 A6D     -0.137100
     21 CAT         4.8620   -0.6990    0.2780 ca        1 A6D     -0.093300
     22 CAV         5.8220    1.3770   -0.5080 ca        1 A6D     -0.174200
     23 CAY        -1.3710   -2.4210   -1.2330 c3        1 A6D      0.130100
     24 CAZ        -2.8730   -2.1950   -0.9560 c3        1 A6D      0.083100
     25 CBA        -0.6380   -1.8780    0.0170 c3        1 A6D      0.095100
     26 CBB        -2.9370   -1.5660    0.4750 c3        1 A6D      0.222800
     27 NBD         5.8800    2.4580   -1.5270 no        1 A6D      0.313200
     28 H2         -7.5110   -0.2270   -1.5790 h5        1 A6D      0.052100
     29 HN6        -6.9790    4.0980   -0.0170 hn        1 A6D      0.451800
     30 HN6A       -5.4560    4.0880    0.7670 hn        1 A6D      0.451800
     31 H8         -1.9050    0.8510    1.6510 h5        1 A6D      0.090800
     32 HOAC       -1.5030   -4.3190   -0.8510 ho        1 A6D      0.427000
     33 HOAD       -4.4650   -3.2780   -1.0350 ho        1 A6D      0.435000
     34 HAG         5.6630   -1.4480    2.1490 ha        1 A6D      0.151000
     35 HAH         7.3760    2.2700    0.7350 ha        1 A6D      0.173000
     36 HAK         4.2570    0.2920   -1.5640 ha        1 A6D      0.170000
     37 HAL         4.4300   -2.8010    0.3330 h1        1 A6D      0.092200
     38 HALA        3.5430   -1.8710   -0.9450 h1        1 A6D      0.092200
     39 HAY        -1.0570   -1.8710   -2.1630 h1        1 A6D      0.092700
     40 HAZ        -3.3210   -1.5300   -1.7400 h1        1 A6D      0.087700
     41 HBA         0.0360   -2.6680    0.4600 h1        1 A6D      0.107700
     42 HBB        -3.5820   -2.1970    1.1600 h2        1 A6D      0.105700
     43 CAM         0.1550   -0.6250   -0.2890 c3        1 A6D     -0.051300
     44 HAF         7.2660    0.4400    2.4330 ha        1 A6D      0.151000
     45 OAB         6.6490    3.3680   -1.3660 o         1 A6D     -0.207500
     46 OAE         5.1590    2.3940   -2.4860 o         1 A6D     -0.207500
     47 HAM        -0.5220    0.2720   -0.3070 h1        1 A6D      0.091700
     48 HAMA        0.6330   -0.7280   -1.2940 h1        1 A6D      0.091700
@<TRIPOS>BOND
     1    1    2 ar  
     2    1    6 ar  
     3    2    3 ar  
     4    2   28 1   
     5    3    4 ar  
     6    4    5 ar  
     7    4   10 1   
     8    5    6 ar  
     9    5    8 1   
    10    6    7 1   
    11    7   29 1   
    12    7   30 1   
    13    8    9 2   
    14    9   10 1   
    15    9   31 1   
    16   10   26 1   
    17   11   23 1   
    18   11   32 1   
    19   12   24 1   
    20   12   33 1   
    21   13   14 ar  
    22   13   15 ar  
    23   13   44 1   
    24   14   21 ar  
    25   14   34 1   
    26   15   22 ar  
    27   15   35 1   
    28   16   21 ar  
    29   16   22 ar  
    30   16   36 1   
    31   17   19 1   
    32   17   21 1   
    33   17   37 1   
    34   17   38 1   
    35   18   25 1   
    36   18   26 1   
    37   19   20 1   
    38   20   43 1   
    39   22   27 1   
    40   23   24 1   
    41   23   25 1   
    42   23   39 1   
    43   24   26 1   
    44   24   40 1   
    45   25   41 1   
    46   25   43 1   
    47   26   42 1   
    48   27   45 1   
    49   27   46 1   
    50   43   47 1   
    51   43   48 1   
@<TRIPOS>SUBSTRUCTURE
     1 A6D         1 TEMP              0 ****  ****    0 ROOT
