@<TRIPOS>MOLECULE
A6D
   48    47     1     0     0
SMALL
bcc


@<TRIPOS>ATOM
      1 N1          0.4310   -1.6700    2.1860 n2        1 A6D     -0.344000
      2 C2          1.2730   -2.4100    1.7950 c1        1 A6D      0.227000
      3 N3          1.9760    1.4740    3.3730 n2        1 A6D     -0.234000
      4 C4          1.2510    0.5010    3.8150 c2        1 A6D      0.176000
      5 C5         -0.1960    0.2790    3.4380 c2        1 A6D     -0.150000
      6 C6         -0.5530   -0.7920    2.6200 c2        1 A6D      0.255000
      7 N6         -1.8490   -0.9860    2.1520 n8        1 A6D     -0.356000
      8 N7         -1.0960    1.1910    3.9200 n2        1 A6D     -0.283000
      9 C8         -1.8560    1.9930    4.3470 c1        1 A6D      0.141000
     10 N9          1.7310   -0.4720    4.7340 n7        1 A6D     -0.277000
     11 OAC         7.6350    1.7770    2.5060 oh        1 A6D     -0.300000
     12 OAD         5.5590    0.7470    4.0470 oh        1 A6D     -0.300000
     13 CAF         7.0040   -5.9680   10.7620 c1        1 A6D      0.230000
     14 CAG         6.9590   -4.8860    9.7400 c3        1 A6D     -0.322000
     15 CAH         5.7050   -5.7190   10.0560 c3        1 A6D     -0.283000
     16 CAK         5.3050   -3.5040   10.7900 c2        1 A6D     -0.049000
     17 CAL         9.4980    0.1020    6.8610 c1        1 A6D     -0.849000
     18 OAQ         3.2470   -1.5860    5.9280 os        1 A6D     -0.277000
     19 SAR         8.1790    0.2140    6.6400 ss        1 A6D      1.196000
     20 SAS         6.8030   -1.1000    7.6520 ss        1 A6D     -0.616000
     21 CAT         6.6890   -3.4660   10.2140 c3        1 A6D     -0.135000
     22 CAV         4.7700   -4.7520   10.6950 c2        1 A6D     -0.149000
     23 CAY         6.4940    2.4890    2.7890 c2        1 A6D     -0.110000
     24 CAZ         5.4660    2.0200    3.5230 c2        1 A6D     -0.110000
     25 CBA         4.6410   -1.8100    6.2330 c3        1 A6D      0.022000
     26 CBB         3.0500   -0.6290    4.9870 c1        1 A6D      0.051000
     27 NBD         3.4220   -5.1500   11.1100 no        1 A6D      0.584000
     28 H2          1.5100    2.0770    2.7270 hn        1 A6D      0.169000
     29 HN6        -2.5810   -0.5400    2.6510 hn        1 A6D      0.231000
     30 HN6A       -2.0780   -1.8500    1.7200 hn        1 A6D      0.231000
     31 H8          1.0160   -0.9990    5.1960 hn        1 A6D      0.211000
     32 HOAC        7.4660    0.8470    2.7180 ho        1 A6D      0.240500
     33 HOAD        4.6460    0.4070    4.1540 ho        1 A6D      0.240500
     34 HAG         6.7300   -2.7360    9.3510 hc        1 A6D      0.152500
     35 HAH         5.2580   -6.4880    9.4040 hc        1 A6D      0.183000
     36 HAK         4.8280   -2.6140   11.2110 ha        1 A6D      0.177000
     37 HAL        10.5470    0.0060    7.0400 ha        1 A6D      0.221000
     38 HALA        7.4380   -3.1430   10.9800 hc        1 A6D      0.152500
     39 HAY         6.5570    3.5060    2.3770 h4        1 A6D      0.160000
     40 HAZ         5.2150   -1.9300    5.2780 h1        1 A6D      0.113000
     41 HBA         4.6220   -2.7730    6.8110 h1        1 A6D      0.113000
     42 HBB         4.5510    2.5870    3.7330 h4        1 A6D      0.160000
     43 CAM         5.1820   -0.6680    7.0580 c3        1 A6D     -0.178000
     44 HAF         7.5290   -4.9700    8.8010 hc        1 A6D      0.171000
     45 OAB         3.0160   -6.2440   10.8210 o         1 A6D     -0.360000
     46 OAE         2.7480   -4.3620   11.7230 o         1 A6D     -0.360000
     47 HAM         5.2280    0.2640    6.4430 h1        1 A6D      0.115500
     48 HAMA        4.5370   -0.4830    7.9500 h1        1 A6D      0.115500
@<TRIPOS>BOND
     1    1    2 1   
     2    1    6 1   
     3    3    4 1   
     4    3   28 1   
     5    4    5 1   
     6    4   10 1   
     7    5    6 1   
     8    5    8 1   
     9    6    7 1   
    10    7   29 1   
    11    7   30 1   
    12    8    9 1   
    13   10   26 1   
    14   10   31 1   
    15   11   23 1   
    16   11   32 1   
    17   12   24 1   
    18   12   33 1   
    19   13   14 1   
    20   13   15 1   
    21   14   15 1   
    22   14   21 1   
    23   14   44 1   
    24   15   22 1   
    25   15   35 1   
    26   16   21 1   
    27   16   22 1   
    28   16   36 1   
    29   17   19 1   
    30   17   37 1   
    31   18   25 1   
    32   18   26 1   
    33   19   20 1   
    34   20   43 1   
    35   21   34 1   
    36   21   38 1   
    37   22   27 1   
    38   23   24 1   
    39   23   39 1   
    40   24   42 1   
    41   25   40 1   
    42   25   41 1   
    43   25   43 1   
    44   27   45 1   
    45   27   46 1   
    46   43   47 1   
    47   43   48 1   
@<TRIPOS>SUBSTRUCTURE
     1 A6D         1 TEMP              0 ****  ****    0 ROOT
