@<TRIPOS>MOLECULE
A6G
   39    41     1     0     0
SMALL
bcc


@<TRIPOS>ATOM
      1 P           5.3780    0.3810    0.2000 p5        1 A6G      1.435800
      2 N1         -5.9430   -0.8910   -0.0960 n         1 A6G     -0.496400
      3 C2         -5.5570    0.4330   -0.3920 cc        1 A6G      0.587800
      4 N2         -6.6400    1.3650   -0.6020 nh        1 A6G     -0.865800
      5 N3         -4.2900    0.8620   -0.4620 nd        1 A6G     -0.612100
      6 C4         -3.3290   -0.0930   -0.1620 cd        1 A6G      0.046800
      7 C5         -3.6240   -1.4740    0.1660 cc        1 A6G      0.193800
      8 C6         -5.0030   -1.9060    0.2150 c         1 A6G      0.645000
      9 O6         -5.4590   -3.0350    0.4780 o         1 A6G     -0.649500
     10 N7         -2.4430   -2.1730    0.4000 nc        1 A6G     -0.641000
     11 C8         -1.4600   -1.2600    0.2220 cd        1 A6G      0.449400
     12 N9         -1.9400    0.0190   -0.1210 na        1 A6G     -0.132900
     13 C1'        -1.1380    1.1980   -0.3950 c3        1 A6G     -0.005000
     14 C2'        -0.3660    1.7010    0.8530 c3        1 A6G      0.057100
     15 O2'        -0.1480    3.0850    0.6410 oh        1 A6G     -0.658800
     16 C3'         1.0060    0.9750    1.1660 c3        1 A6G      0.363800
     17 O3'         1.7240    1.7500    1.9540 o         1 A6G     -0.865500
     18 C4'         1.7590    0.6600   -0.1610 c3        1 A6G      0.031100
     19 O4'         0.8890    0.0720   -1.1530 os        1 A6G     -0.436600
     20 C5'         2.8860   -0.3580    0.0680 c3        1 A6G      0.196400
     21 O5'         4.0210   -0.0170   -0.6660 os        1 A6G     -0.589200
     22 C6'        -0.1330    0.9600   -1.5400 c3        1 A6G      0.137400
     23 OP1         4.8350    1.7790    0.8230 oh        1 A6G     -0.807400
     24 OP2         5.4900   -0.6080    1.2960 o         1 A6G     -0.852500
     25 OP3         6.4640    0.6630   -0.7640 o         1 A6G     -0.852500
     26 HN2        -7.0590    1.2040   -1.4980 hn        1 A6G      0.379800
     27 HN2A       -6.3120    2.3110   -0.5400 hn        1 A6G      0.379800
     28 H1'        -1.8490    2.0150   -0.7170 h1        1 A6G      0.067700
     29 H2'        -1.0250    1.6070    1.7610 h1        1 A6G      0.017700
     30 HO2'        0.7550    3.2600    0.9730 ho        1 A6G      0.448000
     31 H3'         0.7030   -0.0250    1.6180 h1        1 A6G     -0.077300
     32 HO3'        3.9890    1.7280    1.2680 ho        1 A6G      0.465000
     33 H4'         2.1820    1.6150   -0.5770 h1        1 A6G      0.051700
     34 H5'         3.1280   -0.3970    1.1680 h1        1 A6G      0.035200
     35 H5'A        2.5330   -1.3720   -0.2740 h1        1 A6G      0.035200
     36 H6'        -0.6180    0.4850   -2.4330 h1        1 A6G      0.038200
     37 H6'A        0.2860    1.9650   -1.8170 h1        1 A6G      0.038200
     38 HN1        -6.9090   -1.1120   -0.0050 hn        1 A6G      0.322500
     39 H8         -0.3700   -1.4280    0.3070 h5        1 A6G      0.116100
@<TRIPOS>BOND
     1    1   21 1   
     2    1   23 1   
     3    1   24 1   
     4    1   25 1   
     5    2    3 1   
     6    2    8 1   
     7    2   38 1   
     8    3    4 1   
     9    3    5 2   
    10    4   26 1   
    11    4   27 1   
    12    5    6 1   
    13    6    7 2   
    14    6   12 1   
    15    7    8 1   
    16    7   10 1   
    17    8    9 2   
    18   10   11 2   
    19   11   12 1   
    20   11   39 1   
    21   12   13 1   
    22   13   14 1   
    23   13   22 1   
    24   13   28 1   
    25   14   15 1   
    26   14   16 1   
    27   14   29 1   
    28   15   30 1   
    29   16   17 1   
    30   16   18 1   
    31   16   31 1   
    32   18   19 1   
    33   18   20 1   
    34   18   33 1   
    35   19   22 1   
    36   20   21 1   
    37   20   34 1   
    38   20   35 1   
    39   22   36 1   
    40   22   37 1   
    41   23   32 1   
@<TRIPOS>SUBSTRUCTURE
     1 A6G         1 TEMP              0 ****  ****    0 ROOT
