@<TRIPOS>MOLECULE
A6G
   39    36     1     0     0
SMALL
bcc


@<TRIPOS>ATOM
      1 P          -5.0430   -3.3650    0.6020 p3        1 A6G      2.543000
      2 N1          3.1750    4.1040   -1.1870 n3        1 A6G     -0.339000
      3 C2          3.7070    2.9400   -0.5570 c2        1 A6G      0.144000
      4 N2          5.0580    2.9330   -0.1100 n3        1 A6G     -0.304000
      5 N3          2.8420    1.7590   -0.3280 n1        1 A6G     -0.185000
      6 C4          1.4390    1.7790   -0.7460 c1        1 A6G     -0.113000
      7 C5          0.9180    2.8950   -1.3460 c1        1 A6G     -0.113000
      8 C6          1.8170    4.1260   -1.5980 c1        1 A6G      0.393000
      9 O6          1.3750    5.0900   -2.1840 o         1 A6G     -0.375000
     10 N7         -0.3710    2.6130   -1.7110 n2        1 A6G     -0.101500
     11 C8         -0.6480    1.3190   -1.3370 c1        1 A6G     -0.040000
     12 N9          0.4640    0.8040   -0.7440 n2        1 A6G     -0.101500
     13 C1'         0.9340   -0.5850   -0.3500 c2        1 A6G     -0.024000
     14 C2'         0.6570   -0.7800    1.0170 c3        1 A6G     -0.055000
     15 O2'         1.3330   -2.0360    1.4580 oh        1 A6G     -0.386000
     16 C3'        -0.8020   -0.8930    1.3220 c3        1 A6G      0.163000
     17 O3'        -0.9490   -1.1930    2.6980 oh        1 A6G     -0.705000
     18 C4'        -1.5680   -2.0240    0.4750 c3        1 A6G     -0.080000
     19 O4'        -1.1480   -1.6890   -1.0190 os        1 A6G     -0.294000
     20 C5'        -2.8460   -1.9200    0.6290 c3        1 A6G      0.046000
     21 O5'        -3.4890   -3.1140    0.1820 o         1 A6G     -0.751000
     22 C6'         0.2930   -1.5550   -1.2370 c3        1 A6G     -0.013000
     23 OP1        -5.9010   -2.1570    0.1520 o         1 A6G     -1.061667
     24 OP2        -5.5580   -4.6400   -0.0750 o         1 A6G     -1.061667
     25 OP3        -5.1380   -3.5210    2.1110 o         1 A6G     -1.061667
     26 HN1         3.7520    4.8530   -1.3840 hn        1 A6G      0.235000
     27 HN2         5.4120    2.2120    0.1530 hn        1 A6G      0.176500
     28 HN2A        5.5540    3.7710   -0.0450 hn        1 A6G      0.176500
     29 H8         -1.5340    0.8260   -1.4880 DU        1 A6G      0.253000
     30 H1'         1.8980   -0.6330   -0.4790 ha        1 A6G      0.106000
     31 H2'         1.0360   -0.0050    1.5380 h1        1 A6G      0.057000
     32 HO2'        2.0000   -1.8310    2.0790 ho        1 A6G      0.247000
     33 H3'        -1.2110   -0.0600    1.1500 h1        1 A6G     -0.036000
     34 HO3'       -1.1410   -0.4420    3.1510 ho        1 A6G      0.265000
     35 H4'        -1.2730   -2.8760    0.7200 h1        1 A6G      0.091000
     36 H5'        -3.1670   -1.1760    0.1200 h1        1 A6G      0.074000
     37 H5'A       -3.0610   -1.7700    1.6250 h1        1 A6G      0.074000
     38 H6'         0.4460   -1.2790   -2.1670 h1        1 A6G      0.078500
     39 H6'A        0.7350   -2.4770   -1.0910 h1        1 A6G      0.078500
@<TRIPOS>BOND
     1    1   23 1   
     2    1   24 1   
     3    1   25 1   
     4    2    3 1   
     5    2    8 1   
     6    2   26 1   
     7    3    4 1   
     8    3    5 1   
     9    4   27 1   
    10    4   28 1   
    11    6    7 1   
    12    6   12 1   
    13    7   10 1   
    14    8    9 1   
    15   10   11 1   
    16   11   12 1   
    17   13   14 1   
    18   13   22 1   
    19   13   30 1   
    20   14   15 1   
    21   14   16 1   
    22   14   31 1   
    23   15   32 1   
    24   16   17 1   
    25   16   18 1   
    26   16   33 1   
    27   17   34 1   
    28   18   19 1   
    29   18   20 1   
    30   18   35 1   
    31   19   22 1   
    32   20   21 1   
    33   20   36 1   
    34   20   37 1   
    35   22   38 1   
    36   22   39 1   
@<TRIPOS>SUBSTRUCTURE
     1 A6G         1 TEMP              0 ****  ****    0 ROOT
