@<TRIPOS>MOLECULE
A6K
   52    54     1     0     0
SMALL
bcc


@<TRIPOS>ATOM
      1 Cl1         0.1050    0.2290   -0.2080 cl        1 A6K     -0.035400
      2 C18         1.7890    0.1300   -0.1040 ca        1 A6K      0.036400
      3 C17         2.3960   -0.2120    1.1110 ca        1 A6K     -0.113500
      4 C16         3.7840   -0.2920    1.1910 ca        1 A6K     -0.123000
      5 C19         2.5750    0.3970   -1.2330 ca        1 A6K     -0.113500
      6 C20         3.9610    0.3110   -1.1440 ca        1 A6K     -0.123000
      7 C15         4.5760   -0.0390    0.0660 ca        1 A6K     -0.161300
      8 C14         6.0580   -0.1010    0.1610 c3        1 A6K     -0.057100
      9 C           6.5750   -1.5390    0.0050 c3        1 A6K      0.139500
     10 N           6.0290   -2.1740   -1.2420 nz        1 A6K     -0.847600
     11 C1          8.1040   -1.5490    0.0400 c3        1 A6K     -0.185400
     12 C2          8.6650   -2.9650    0.0250 c         1 A6K      0.655100
     13 O           7.9710   -3.9050   -0.4460 o         1 A6K     -0.679100
     14 N1          9.9040   -3.1900    0.5370 n         1 A6K     -0.427800
     15 C7         10.5500   -4.4950    0.4740 c3        1 A6K      0.087000
     16 C6         12.0660   -4.2690    0.6890 c3        1 A6K     -0.020400
     17 C4         12.2320   -2.7740    1.0280 c3        1 A6K     -0.109700
     18 C5         13.1790   -2.0880    0.0500 c3        1 A6K      0.128400
     19 O1         13.2080   -0.6910    0.2630 oh        1 A6K     -0.599800
     20 C3         10.8220   -2.1500    0.9630 c3        1 A6K      0.079000
     21 C8         12.6070   -5.1620    1.7530 ca        1 A6K     -0.103300
     22 C13        13.6060   -6.0920    1.4390 ca        1 A6K     -0.114000
     23 C12        14.1230   -6.9340    2.4220 ca        1 A6K     -0.118500
     24 C11        13.6400   -6.8480    3.7320 ca        1 A6K      0.026400
     25 Cl         14.2650   -7.8690    4.9320 cl        1 A6K     -0.066400
     26 C10        12.6410   -5.9220    4.0560 ca        1 A6K     -0.118500
     27 C9         12.1310   -5.0860    3.0670 ca        1 A6K     -0.114000
     28 H17         1.7790   -0.4070    2.0050 ha        1 A6K      0.168500
     29 H19         2.0980    0.6860   -2.1840 ha        1 A6K      0.168500
     30 H16         4.2570   -0.5430    2.1540 ha        1 A6K      0.140000
     31 H20         4.5740    0.5620   -2.0240 ha        1 A6K      0.140000
     32 H141        6.5320    0.5640   -0.6110 hc        1 A6K      0.089200
     33 H142        6.3940    0.2670    1.1690 hc        1 A6K      0.089200
     34 H           6.1860   -2.1710    0.8630 hx        1 A6K      0.119700
     35 HN1         5.0080   -2.0720   -1.2530 hn        1 A6K      0.468467
     36 HN2         6.4190   -1.7200   -2.0690 hn        1 A6K      0.468467
     37 H11C        8.4160   -1.0090    0.9760 hc        1 A6K      0.104200
     38 H12C        8.5360   -0.9860   -0.8310 hc        1 A6K      0.104200
     39 H71C       10.3470   -4.9750   -0.5220 h1        1 A6K      0.077200
     40 H72C       10.1190   -5.1540    1.2780 h1        1 A6K      0.077200
     41 H31C       10.8090   -1.2810    0.2460 h1        1 A6K      0.061700
     42 H32C       10.5140   -1.7760    1.9780 h1        1 A6K      0.061700
     43 H6         12.5940   -4.4890   -0.2800 hc        1 A6K      0.074700
     44 H4         12.6330   -2.6530    2.0700 hc        1 A6K      0.083700
     45 H51C       12.8160   -2.2050   -1.0080 h1        1 A6K      0.059700
     46 H52C       14.2060   -2.5320    0.1410 h1        1 A6K      0.059700
     47 H1         13.7350   -0.5280    1.0550 ho        1 A6K      0.410000
     48 H13        13.9900   -6.1660    0.4100 ha        1 A6K      0.136000
     49 H9         11.3450   -4.3590    3.3230 ha        1 A6K      0.136000
     50 H12        14.9080   -7.6620    2.1660 ha        1 A6K      0.157000
     51 H10        12.2610   -5.8550    5.0880 ha        1 A6K      0.157000
     52 HN3         6.2950   -3.1770   -1.2490 hn        1 A6K      0.468467
@<TRIPOS>BOND
     1    1    2 1   
     2    2    3 ar  
     3    2    5 ar  
     4    3    4 ar  
     5    3   28 1   
     6    4    7 ar  
     7    4   30 1   
     8    5    6 ar  
     9    5   29 1   
    10    6    7 ar  
    11    6   31 1   
    12    7    8 1   
    13    8    9 1   
    14    8   32 1   
    15    8   33 1   
    16    9   10 1   
    17    9   11 1   
    18    9   34 1   
    19   10   35 1   
    20   10   36 1   
    21   10   52 1   
    22   11   12 1   
    23   11   37 1   
    24   11   38 1   
    25   12   13 2   
    26   12   14 1   
    27   14   15 1   
    28   14   20 1   
    29   15   16 1   
    30   15   39 1   
    31   15   40 1   
    32   16   17 1   
    33   16   21 1   
    34   16   43 1   
    35   17   18 1   
    36   17   20 1   
    37   17   44 1   
    38   18   19 1   
    39   18   45 1   
    40   18   46 1   
    41   19   47 1   
    42   20   41 1   
    43   20   42 1   
    44   21   22 ar  
    45   21   27 ar  
    46   22   23 ar  
    47   22   48 1   
    48   23   24 ar  
    49   23   50 1   
    50   24   25 1   
    51   24   26 ar  
    52   26   27 ar  
    53   26   51 1   
    54   27   49 1   
@<TRIPOS>SUBSTRUCTURE
     1 A6K         1 TEMP              0 ****  ****    0 ROOT
