@<TRIPOS>MOLECULE
A6K
   52    54     1     0     0
SMALL
bcc


@<TRIPOS>ATOM
      1 CL1         0.1060    0.2330   -0.2100 cl        1 A6K     -0.035400
      2 C18         1.7900    0.1330   -0.1020 ca        1 A6K      0.036400
      3 C17         2.3930   -0.2190    1.1130 ca        1 A6K     -0.113500
      4 C16         3.7810   -0.2990    1.1970 ca        1 A6K     -0.123000
      5 C19         2.5790    0.4100   -1.2260 ca        1 A6K     -0.113500
      6 C20         3.9650    0.3250   -1.1320 ca        1 A6K     -0.123000
      7 C15         4.5760   -0.0350    0.0760 ca        1 A6K     -0.161300
      8 C14         6.0580   -0.0980    0.1760 c3        1 A6K     -0.057100
      9 C           6.5770   -1.5340    0.0090 c3        1 A6K      0.139500
     10 N           6.0340   -2.1590   -1.2460 n4        1 A6K     -0.847600
     11 C1          8.1050   -1.5440    0.0480 c3        1 A6K     -0.185400
     12 C2          8.6670   -2.9590    0.0220 c         1 A6K      0.655100
     13 O           7.9750   -3.8960   -0.4590 o         1 A6K     -0.679100
     14 N1          9.9050   -3.1880    0.5360 n         1 A6K     -0.427800
     15 C7         10.5520   -4.4920    0.4630 c3        1 A6K      0.087000
     16 C6         12.0670   -4.2670    0.6840 c3        1 A6K     -0.020400
     17 C4         12.2310   -2.7760    1.0370 c3        1 A6K     -0.109700
     18 C5         13.1810   -2.0800    0.0680 c3        1 A6K      0.128400
     19 O1         13.2080   -0.6850    0.2940 oh        1 A6K     -0.599800
     20 C3         10.8210   -2.1510    0.9730 c3        1 A6K      0.079000
     21 C8         12.6070   -5.1700    1.7410 ca        1 A6K     -0.103300
     22 C13        13.6060   -6.0960    1.4210 ca        1 A6K     -0.114000
     23 C12        14.1220   -6.9460    2.3970 ca        1 A6K     -0.118500
     24 C11        13.6350   -6.8730    3.7070 ca        1 A6K      0.026400
     25 CL         14.2580   -7.9040    4.8990 cl        1 A6K     -0.066400
     26 C10        12.6350   -5.9510    4.0370 ca        1 A6K     -0.118500
     27 C9         12.1270   -5.1060    3.0550 ca        1 A6K     -0.114000
     28 H17         1.7730   -0.4210    2.0020 ha        1 A6K      0.168500
     29 H19         2.1060    0.7080   -2.1760 ha        1 A6K      0.168500
     30 H16         4.2510   -0.5590    2.1590 ha        1 A6K      0.140000
     31 H20         4.5810    0.5830   -2.0080 ha        1 A6K      0.140000
     32 H141        6.5340    0.5730   -0.5890 hc        1 A6K      0.089200
     33 H142        6.3910    0.2620    1.1880 hc        1 A6K      0.089200
     34 H           6.1840   -2.1740    0.8590 hx        1 A6K      0.119700
     35 HN1         6.3010   -3.1620   -1.2610 hn        1 A6K      0.468467
     36 HN2         6.4270   -1.6980   -2.0680 hn        1 A6K      0.468467
     37 H11C        8.4140   -1.0120    0.9900 hc        1 A6K      0.104200
     38 H12C        8.5390   -0.9730   -0.8170 hc        1 A6K      0.104200
     39 H71C       10.3520   -4.9640   -0.5380 h1        1 A6K      0.077200
     40 H72C       10.1190   -5.1590    1.2600 h1        1 A6K      0.077200
     41 H31C       10.5090   -1.7870    1.9910 h1        1 A6K      0.061700
     42 H32C       10.8090   -1.2760    0.2640 h1        1 A6K      0.061700
     43 H6         12.5980   -4.4780   -0.2860 hc        1 A6K      0.074700
     44 H4         12.6290   -2.6640    2.0810 hc        1 A6K      0.083700
     45 H51C       12.8210   -2.1870   -0.9920 h1        1 A6K      0.059700
     46 H52C       14.2070   -2.5240    0.1570 h1        1 A6K      0.059700
     47 H1         13.7320   -0.5280    1.0890 ho        1 A6K      0.410000
     48 H13        13.9930   -6.1600    0.3920 ha        1 A6K      0.136000
     49 H9         11.3400   -4.3820    3.3150 ha        1 A6K      0.136000
     50 H12        14.9090   -7.6710    2.1360 ha        1 A6K      0.157000
     51 H10        12.2520   -5.8940    5.0680 ha        1 A6K      0.157000
     52 HN3         5.0130   -2.0570   -1.2590 hn        1 A6K      0.468467
@<TRIPOS>BOND
     1    1    2 1   
     2    2    3 ar  
     3    2    5 ar  
     4    3    4 ar  
     5    3   28 1   
     6    4    7 ar  
     7    4   30 1   
     8    5    6 ar  
     9    5   29 1   
    10    6    7 ar  
    11    6   31 1   
    12    7    8 1   
    13    8    9 1   
    14    8   32 1   
    15    8   33 1   
    16    9   10 1   
    17    9   11 1   
    18    9   34 1   
    19   10   35 1   
    20   10   36 1   
    21   10   52 1   
    22   11   12 1   
    23   11   37 1   
    24   11   38 1   
    25   12   13 2   
    26   12   14 1   
    27   14   15 1   
    28   14   20 1   
    29   15   16 1   
    30   15   39 1   
    31   15   40 1   
    32   16   17 1   
    33   16   21 1   
    34   16   43 1   
    35   17   18 1   
    36   17   20 1   
    37   17   44 1   
    38   18   19 1   
    39   18   45 1   
    40   18   46 1   
    41   19   47 1   
    42   20   41 1   
    43   20   42 1   
    44   21   22 ar  
    45   21   27 ar  
    46   22   23 ar  
    47   22   48 1   
    48   23   24 ar  
    49   23   50 1   
    50   24   25 1   
    51   24   26 ar  
    52   26   27 ar  
    53   26   51 1   
    54   27   49 1   
@<TRIPOS>SUBSTRUCTURE
     1 A6K         1 TEMP              0 ****  ****    0 ROOT
