@<TRIPOS>MOLECULE
A6K
   52    54     1     0     0
SMALL
bcc


@<TRIPOS>ATOM
      1 CL1         0.1080    0.2320   -0.2130 cl        1 A6K     -0.035400
      2 C18         1.7910    0.1320   -0.1050 ca        1 A6K      0.036400
      3 C17         2.3940   -0.2190    1.1090 ca        1 A6K     -0.113500
      4 C16         3.7820   -0.2990    1.1930 ca        1 A6K     -0.123000
      5 C19         2.5800    0.4090   -1.2290 ca        1 A6K     -0.113500
      6 C20         3.9660    0.3230   -1.1360 ca        1 A6K     -0.123000
      7 C15         4.5770   -0.0360    0.0720 ca        1 A6K     -0.161300
      8 C14         6.0600   -0.0990    0.1720 c3        1 A6K     -0.057100
      9 C           6.5780   -1.5350    0.0050 c3        1 A6K      0.139500
     10 N           6.0360   -2.1600   -1.2490 n4        1 A6K     -0.847600
     11 C1          8.1070   -1.5450    0.0450 c3        1 A6K     -0.185400
     12 C2          8.6680   -2.9600    0.0210 c         1 A6K      0.655100
     13 O           7.9770   -3.8970   -0.4610 o         1 A6K     -0.679100
     14 N1          9.9060   -3.1890    0.5340 n         1 A6K     -0.427800
     15 C7         10.5530   -4.4920    0.4630 c3        1 A6K      0.087000
     16 C6         12.0680   -4.2680    0.6870 c3        1 A6K     -0.020400
     17 C4         12.2320   -2.7760    1.0390 c3        1 A6K     -0.109700
     18 C5         13.1820   -2.0810    0.0690 c3        1 A6K      0.128400
     19 O1         13.2090   -0.6860    0.2940 oh        1 A6K     -0.599800
     20 C3         10.8220   -2.1520    0.9720 c3        1 A6K      0.079000
     21 C8         12.6040   -5.1690    1.7460 ca        1 A6K     -0.103300
     22 C13        13.6040   -6.0960    1.4300 ca        1 A6K     -0.114000
     23 C12        14.1170   -6.9450    2.4090 ca        1 A6K     -0.118500
     24 C11        13.6280   -6.8700    3.7170 ca        1 A6K      0.026400
     25 CL         14.2480   -7.9000    4.9120 cl        1 A6K     -0.066400
     26 C10        12.6280   -5.9470    4.0440 ca        1 A6K     -0.118500
     27 C9         12.1220   -5.1030    3.0590 ca        1 A6K     -0.114000
     28 H17         1.7750   -0.4210    1.9990 ha        1 A6K      0.168500
     29 H19         2.1070    0.7060   -2.1790 ha        1 A6K      0.168500
     30 H16         4.2530   -0.5580    2.1550 ha        1 A6K      0.140000
     31 H20         4.5820    0.5810   -2.0120 ha        1 A6K      0.140000
     32 H141        6.3920    0.2620    1.1840 hc        1 A6K      0.089200
     33 H142        6.5350    0.5720   -0.5930 hc        1 A6K      0.089200
     34 H           6.1860   -2.1740    0.8570 hx        1 A6K      0.119700
     35 HN1         6.4280   -1.6990   -2.0710 hn        1 A6K      0.468467
     36 HN2         6.3030   -3.1630   -1.2630 hn        1 A6K      0.468467
     37 H11C        8.4150   -1.0120    0.9870 hc        1 A6K      0.104200
     38 H12C        8.5410   -0.9750   -0.8200 hc        1 A6K      0.104200
     39 H71C       10.3550   -4.9640   -0.5380 h1        1 A6K      0.077200
     40 H72C       10.1180   -5.1600    1.2580 h1        1 A6K      0.077200
     41 H31C       10.8100   -1.2770    0.2630 h1        1 A6K      0.061700
     42 H32C       10.5090   -1.7870    1.9900 h1        1 A6K      0.061700
     43 H6         12.6010   -4.4810   -0.2820 hc        1 A6K      0.074700
     44 H4         12.6290   -2.6630    2.0830 hc        1 A6K      0.083700
     45 H51C       14.2090   -2.5260    0.1600 h1        1 A6K      0.059700
     46 H52C       12.8230   -2.1900   -0.9910 h1        1 A6K      0.059700
     47 H1         13.7330   -0.5290    1.0890 ho        1 A6K      0.410000
     48 H13        13.9940   -6.1620    0.4020 ha        1 A6K      0.136000
     49 H9         11.3350   -4.3790    3.3170 ha        1 A6K      0.136000
     50 H12        14.9040   -7.6710    2.1500 ha        1 A6K      0.157000
     51 H10        12.2420   -5.8880    5.0740 ha        1 A6K      0.157000
     52 HN3         5.0150   -2.0580   -1.2620 hn        1 A6K      0.468467
@<TRIPOS>BOND
     1    1    2 1   
     2    2    3 ar  
     3    2    5 ar  
     4    3    4 ar  
     5    3   28 1   
     6    4    7 ar  
     7    4   30 1   
     8    5    6 ar  
     9    5   29 1   
    10    6    7 ar  
    11    6   31 1   
    12    7    8 1   
    13    8    9 1   
    14    8   32 1   
    15    8   33 1   
    16    9   10 1   
    17    9   11 1   
    18    9   34 1   
    19   10   35 1   
    20   10   36 1   
    21   10   52 1   
    22   11   12 1   
    23   11   37 1   
    24   11   38 1   
    25   12   13 2   
    26   12   14 1   
    27   14   15 1   
    28   14   20 1   
    29   15   16 1   
    30   15   39 1   
    31   15   40 1   
    32   16   17 1   
    33   16   21 1   
    34   16   43 1   
    35   17   18 1   
    36   17   20 1   
    37   17   44 1   
    38   18   19 1   
    39   18   45 1   
    40   18   46 1   
    41   19   47 1   
    42   20   41 1   
    43   20   42 1   
    44   21   22 ar  
    45   21   27 ar  
    46   22   23 ar  
    47   22   48 1   
    48   23   24 ar  
    49   23   50 1   
    50   24   25 1   
    51   24   26 ar  
    52   26   27 ar  
    53   26   51 1   
    54   27   49 1   
@<TRIPOS>SUBSTRUCTURE
     1 A6K         1 TEMP              0 ****  ****    0 ROOT
