@<TRIPOS>MOLECULE
A6M
   52    54     1     0     0
SMALL
bcc


@<TRIPOS>ATOM
      1 Cl1         0.1990    0.7450    1.4520 cl        1 A6M     -0.036400
      2 C18         1.8030    0.5220    0.9690 ca        1 A6M      0.036400
      3 C17         2.7700    0.1430    1.9100 ca        1 A6M     -0.116000
      4 C16         4.0900   -0.0380    1.5070 ca        1 A6M     -0.119000
      5 C19         2.1640    0.7250   -0.3690 ca        1 A6M     -0.116000
      6 C20         3.4870    0.5380   -0.7630 ca        1 A6M     -0.119000
      7 C15         4.4570    0.1490    0.1680 ca        1 A6M     -0.168300
      8 C14         5.8750   -0.0110   -0.2480 c3        1 A6M     -0.057100
      9 C           6.3290   -1.4770   -0.1830 c3        1 A6M      0.140500
     10 N           5.3680   -2.3710   -0.9140 nz        1 A6M     -0.846600
     11 C1          7.7580   -1.6040   -0.7120 c3        1 A6M     -0.184400
     12 C2          8.3040   -3.0140   -0.5390 c         1 A6M      0.655100
     13 O           7.5060   -3.9820   -0.4160 o         1 A6M     -0.683100
     14 N1          9.6480   -3.2080   -0.5490 n         1 A6M     -0.431800
     15 C3         10.6420   -2.1580   -0.6690 c3        1 A6M      0.086000
     16 C4         12.0280   -2.8360   -0.6660 c3        1 A6M     -0.073700
     17 C6         11.7840   -4.3240   -0.3450 c3        1 A6M     -0.022400
     18 C5         12.9570   -2.1890    0.3530 c3        1 A6M      0.134400
     19 O1         12.9760   -0.7970    0.0800 oh        1 A6M     -0.612800
     20 C7         10.2520   -4.5270   -0.4140 c3        1 A6M      0.091000
     21 C8         12.5020   -5.2420   -1.2740 ca        1 A6M     -0.101300
     22 C13        13.4100   -6.1760   -0.7620 ca        1 A6M     -0.114000
     23 C12        14.0910   -7.0430   -1.6140 ca        1 A6M     -0.118500
     24 C11        13.8650   -6.9780   -2.9930 ca        1 A6M      0.026400
     25 Cl         14.6900   -8.0290   -4.0350 cl        1 A6M     -0.066400
     26 C10        12.9590   -6.0480   -3.5160 ca        1 A6M     -0.118500
     27 C9         12.2830   -5.1870   -2.6560 ca        1 A6M     -0.114000
     28 H17         2.4910    0.0010    2.9670 ha        1 A6M      0.168500
     29 H19         1.4080    1.0430   -1.1060 ha        1 A6M      0.168500
     30 H16         4.8520   -0.3110    2.2540 ha        1 A6M      0.142000
     31 H20         3.7680    0.7300   -1.8100 ha        1 A6M      0.142000
     32 H141        6.5410    0.5760    0.4440 hc        1 A6M      0.089200
     33 H142        6.0340    0.3930   -1.2840 hc        1 A6M      0.089200
     34 H           6.3060   -1.8270    0.8960 hx        1 A6M      0.118700
     35 HN1         4.4210   -2.2060   -0.5600 hn        1 A6M      0.467800
     36 HN2         5.6480   -3.3590   -0.7580 hn        1 A6M      0.467800
     37 H11C        7.8170   -1.3270   -1.7980 hc        1 A6M      0.103700
     38 H12C        8.3870   -0.8640   -0.1430 hc        1 A6M      0.103700
     39 H71C        9.9610   -5.1620   -1.2960 h1        1 A6M      0.075200
     40 H72C        9.8670   -5.0240    0.5180 h1        1 A6M      0.075200
     41 H31C       10.4860   -1.5860   -1.6240 h1        1 A6M      0.060700
     42 H32C       10.5570   -1.4360    0.1920 h1        1 A6M      0.060700
     43 H6         12.1170   -4.5320    0.7100 hc        1 A6M      0.074700
     44 H4         12.4860   -2.7260   -1.6860 hc        1 A6M      0.089700
     45 H51C       13.9830   -2.6330    0.2630 h1        1 A6M      0.040700
     46 H52C       12.5760   -2.3470    1.3990 h1        1 A6M      0.040700
     47 H1         13.7950   -0.4470    0.4510 ho        1 A6M      0.419000
     48 H13        13.5930   -6.2340    0.3230 ha        1 A6M      0.135500
     49 H9         11.5720   -4.4570   -3.0700 ha        1 A6M      0.135500
     50 H12        14.8030   -7.7750   -1.2010 ha        1 A6M      0.156000
     51 H10        12.7810   -5.9970   -4.6010 ha        1 A6M      0.156000
     52 HN3         5.3920   -2.1720   -1.9150 hn        1 A6M      0.467800
@<TRIPOS>BOND
     1    1    2 1   
     2    2    3 ar  
     3    2    5 ar  
     4    3    4 ar  
     5    3   28 1   
     6    4    7 ar  
     7    4   30 1   
     8    5    6 ar  
     9    5   29 1   
    10    6    7 ar  
    11    6   31 1   
    12    7    8 1   
    13    8    9 1   
    14    8   32 1   
    15    8   33 1   
    16    9   10 1   
    17    9   11 1   
    18    9   34 1   
    19   10   35 1   
    20   10   36 1   
    21   10   52 1   
    22   11   12 1   
    23   11   37 1   
    24   11   38 1   
    25   12   13 2   
    26   12   14 1   
    27   14   15 1   
    28   14   20 1   
    29   15   16 1   
    30   15   41 1   
    31   15   42 1   
    32   16   17 1   
    33   16   18 1   
    34   16   44 1   
    35   17   20 1   
    36   17   21 1   
    37   17   43 1   
    38   18   19 1   
    39   18   45 1   
    40   18   46 1   
    41   19   47 1   
    42   20   39 1   
    43   20   40 1   
    44   21   22 ar  
    45   21   27 ar  
    46   22   23 ar  
    47   22   48 1   
    48   23   24 ar  
    49   23   50 1   
    50   24   25 1   
    51   24   26 ar  
    52   26   27 ar  
    53   26   51 1   
    54   27   49 1   
@<TRIPOS>SUBSTRUCTURE
     1 A6M         1 TEMP              0 ****  ****    0 ROOT
