@<TRIPOS>MOLECULE
A6M
   52    54     1     0     0
SMALL
bcc


@<TRIPOS>ATOM
      1 CL1         0.2110    0.7960    1.4370 cl        1 A6M     -0.036400
      2 C18         1.8150    0.5620    0.9590 ca        1 A6M      0.036400
      3 C17         2.7680    0.1380    1.8950 ca        1 A6M     -0.116000
      4 C16         4.0880   -0.0530    1.4960 ca        1 A6M     -0.119500
      5 C19         2.1900    0.8000   -0.3690 ca        1 A6M     -0.116000
      6 C20         3.5130    0.6040   -0.7590 ca        1 A6M     -0.119500
      7 C15         4.4690    0.1690    0.1660 ca        1 A6M     -0.168300
      8 C14         5.8880   -0.0000   -0.2440 c3        1 A6M     -0.057100
      9 C           6.3360   -1.4670   -0.1710 c3        1 A6M      0.140500
     10 N           5.3680   -2.3630   -0.8900 n4        1 A6M     -0.846600
     11 C1          7.7610   -1.6030   -0.7080 c3        1 A6M     -0.184400
     12 C2          8.3050   -3.0130   -0.5270 c         1 A6M      0.655100
     13 O           7.5050   -3.9770   -0.3900 o         1 A6M     -0.683100
     14 N1          9.6470   -3.2110   -0.5440 n         1 A6M     -0.431800
     15 C3         10.6440   -2.1650   -0.6800 c3        1 A6M      0.086000
     16 C4         12.0280   -2.8480   -0.6820 c3        1 A6M     -0.073700
     17 C6         11.7820   -4.3310   -0.3450 c3        1 A6M     -0.022400
     18 C5         12.9660   -2.1940    0.3250 c3        1 A6M      0.134400
     19 O1         12.9880   -0.8050    0.0380 oh        1 A6M     -0.612800
     20 C7         10.2480   -4.5300   -0.4010 c3        1 A6M      0.091000
     21 C8         12.4900   -5.2600   -1.2700 ca        1 A6M     -0.101300
     22 C13        13.3990   -6.1930   -0.7560 ca        1 A6M     -0.114000
     23 C12        14.0720   -7.0690   -1.6050 ca        1 A6M     -0.118500
     24 C11        13.8350   -7.0170   -2.9830 ca        1 A6M      0.026400
     25 CL         14.6490   -8.0810   -4.0210 cl        1 A6M     -0.066400
     26 C10        12.9280   -6.0900   -3.5080 ca        1 A6M     -0.118500
     27 C9         12.2610   -5.2180   -2.6510 ca        1 A6M     -0.114000
     28 H17         2.4780   -0.0320    2.9450 ha        1 A6M      0.169000
     29 H19         1.4460    1.1530   -1.1020 ha        1 A6M      0.169000
     30 H16         4.8390   -0.3600    2.2410 ha        1 A6M      0.142000
     31 H20         3.8050    0.8220   -1.7980 ha        1 A6M      0.142000
     32 H141        6.0510    0.3990   -1.2810 hc        1 A6M      0.089200
     33 H142        6.5530    0.5870    0.4480 hc        1 A6M      0.089200
     34 H           6.3190   -1.8100    0.9100 hx        1 A6M      0.118700
     35 HN1         5.3810   -2.1680   -1.8920 hn        1 A6M      0.467800
     36 HN2         4.4240   -2.1970   -0.5260 hn        1 A6M      0.467800
     37 H11C        8.3960   -0.8590   -0.1500 hc        1 A6M      0.103700
     38 H12C        7.8150   -1.3360   -1.7980 hc        1 A6M      0.103700
     39 H71C        9.9490   -5.1730   -1.2740 h1        1 A6M      0.075200
     40 H72C        9.8680   -5.0180    0.5390 h1        1 A6M      0.075200
     41 H31C       10.5670   -1.4360    0.1760 h1        1 A6M      0.060700
     42 H32C       10.4830   -1.6010   -1.6390 h1        1 A6M      0.060700
     43 H6         12.1210   -4.5320    0.7100 hc        1 A6M      0.074700
     44 H4         12.4780   -2.7490   -1.7060 hc        1 A6M      0.089700
     45 H51C       13.9900   -2.6430    0.2310 h1        1 A6M      0.040700
     46 H52C       12.5940   -2.3410    1.3750 h1        1 A6M      0.040700
     47 H1         13.8100   -0.4540    0.4000 ho        1 A6M      0.419000
     48 H13        13.5900   -6.2400    0.3270 ha        1 A6M      0.135500
     49 H9         11.5480   -4.4910   -3.0670 ha        1 A6M      0.135500
     50 H12        14.7850   -7.7990   -1.1910 ha        1 A6M      0.156000
     51 H10        12.7420   -6.0480   -4.5920 ha        1 A6M      0.156000
     52 HN3         5.6490   -3.3510   -0.7330 hn        1 A6M      0.467800
@<TRIPOS>BOND
     1    1    2 1   
     2    2    3 ar  
     3    2    5 ar  
     4    3    4 ar  
     5    3   28 1   
     6    4    7 ar  
     7    4   30 1   
     8    5    6 ar  
     9    5   29 1   
    10    6    7 ar  
    11    6   31 1   
    12    7    8 1   
    13    8    9 1   
    14    8   32 1   
    15    8   33 1   
    16    9   10 1   
    17    9   11 1   
    18    9   34 1   
    19   10   35 1   
    20   10   36 1   
    21   10   52 1   
    22   11   12 1   
    23   11   37 1   
    24   11   38 1   
    25   12   13 2   
    26   12   14 1   
    27   14   15 1   
    28   14   20 1   
    29   15   16 1   
    30   15   41 1   
    31   15   42 1   
    32   16   17 1   
    33   16   18 1   
    34   16   44 1   
    35   17   20 1   
    36   17   21 1   
    37   17   43 1   
    38   18   19 1   
    39   18   45 1   
    40   18   46 1   
    41   19   47 1   
    42   20   39 1   
    43   20   40 1   
    44   21   22 ar  
    45   21   27 ar  
    46   22   23 ar  
    47   22   48 1   
    48   23   24 ar  
    49   23   50 1   
    50   24   25 1   
    51   24   26 ar  
    52   26   27 ar  
    53   26   51 1   
    54   27   49 1   
@<TRIPOS>SUBSTRUCTURE
     1 A6M         1 TEMP              0 ****  ****    0 ROOT
