@<TRIPOS>MOLECULE
A6M
   51    53     1     0     0
SMALL
bcc


@<TRIPOS>ATOM
      1 CL1         0.4000    0.9470    1.9810 cl        1 A6M     -0.102400
      2 C18         1.9360    0.6530    1.3100 ca        1 A6M      0.016400
      3 C17         3.0810    0.8650    2.0830 ca        1 A6M     -0.126500
      4 C16         4.3360    0.6250    1.5280 ca        1 A6M     -0.109500
      5 C19         2.0430    0.2000   -0.0080 ca        1 A6M     -0.126500
      6 C20         3.3030   -0.0360   -0.5540 ca        1 A6M     -0.109500
      7 C15         4.4590    0.1740    0.2080 ca        1 A6M     -0.071300
      8 C14         5.8050   -0.0630   -0.3790 c3        1 A6M     -0.032100
      9 C           6.1820   -1.5590   -0.3810 c3        1 A6M      0.186500
     10 N           5.4050   -2.3120   -1.3400 n3        1 A6M     -0.906800
     11 C1          7.7120   -1.6390   -0.5640 c3        1 A6M     -0.193400
     12 C2          8.2200   -3.0640   -0.5080 c         1 A6M      0.658100
     13 O           7.4760   -4.0340   -0.2550 o         1 A6M     -0.615100
     14 N1          9.5560   -3.2850   -0.8020 n         1 A6M     -0.474800
     15 C3         10.5490   -2.2330   -0.8470 c3        1 A6M      0.093000
     16 C4         11.9370   -2.8880   -0.6740 c3        1 A6M     -0.073700
     17 C6         11.6790   -4.3840   -0.4070 c3        1 A6M     -0.032400
     18 C5         12.7170   -2.2560    0.4700 c3        1 A6M      0.134400
     19 O1         12.9230   -0.8910    0.1370 oh        1 A6M     -0.603800
     20 C7         10.1620   -4.5930   -0.6340 c3        1 A6M      0.092000
     21 C8         12.4990   -5.2720   -1.2780 ca        1 A6M     -0.080300
     22 C13        13.3790   -6.1960   -0.7020 ca        1 A6M     -0.115500
     23 C12        14.1530   -7.0340   -1.5020 ca        1 A6M     -0.122500
     24 C11        14.0480   -6.9490   -2.8930 ca        1 A6M      0.019400
     25 CL         14.9910   -7.9670   -3.8750 cl        1 A6M     -0.090400
     26 C10        13.1710   -6.0330   -3.4820 ca        1 A6M     -0.122500
     27 C9         12.4020   -5.2000   -2.6730 ca        1 A6M     -0.115500
     28 H17         2.9950    1.2190    3.1210 ha        1 A6M      0.145000
     29 H19         1.1400    0.0280   -0.6120 ha        1 A6M      0.145000
     30 H16         5.2370    0.7920    2.1370 ha        1 A6M      0.139500
     31 H20         3.3900   -0.4050   -1.5870 ha        1 A6M      0.139500
     32 H141        6.5770    0.4940    0.2170 hc        1 A6M      0.047200
     33 H142        5.8360    0.3400   -1.4270 hc        1 A6M      0.047200
     34 H           5.9420   -1.9850    0.6400 h1        1 A6M      0.078700
     35 HN1         5.5100   -3.2960   -1.1720 hn        1 A6M      0.360300
     36 HN2         5.6900   -2.1020   -2.2760 hn        1 A6M      0.360300
     37 H11C        8.0050   -1.1730   -1.5410 hc        1 A6M      0.069200
     38 H12C        8.2040   -1.0540    0.2580 hc        1 A6M      0.069200
     39 H71C        9.6950   -5.1350    0.2350 h1        1 A6M      0.065200
     40 H72C        9.9740   -5.2020   -1.5620 h1        1 A6M      0.065200
     41 H31C       10.3730   -1.4670   -0.0420 h1        1 A6M      0.051700
     42 H32C       10.4890   -1.7080   -1.8400 h1        1 A6M      0.051700
     43 H6         11.9070   -4.6130    0.6710 hc        1 A6M      0.063700
     44 H4         12.5230   -2.7520   -1.6220 hc        1 A6M      0.083700
     45 H51C       13.7030   -2.7790    0.5940 h1        1 A6M      0.029200
     46 H52C       12.1420   -2.3250    1.4330 h1        1 A6M      0.029200
     47 H1         13.5140   -0.5310    0.8090 ho        1 A6M      0.406000
     48 H13        13.4630   -6.2690    0.3940 ha        1 A6M      0.140000
     49 H9         11.7090   -4.4810   -3.1350 ha        1 A6M      0.140000
     50 H12        14.8410   -7.7570   -1.0380 ha        1 A6M      0.149500
     51 H10        13.0870   -5.9680   -4.5780 ha        1 A6M      0.149500
@<TRIPOS>BOND
     1    1    2 1   
     2    2    3 ar  
     3    2    5 ar  
     4    3    4 ar  
     5    3   28 1   
     6    4    7 ar  
     7    4   30 1   
     8    5    6 ar  
     9    5   29 1   
    10    6    7 ar  
    11    6   31 1   
    12    7    8 1   
    13    8    9 1   
    14    8   32 1   
    15    8   33 1   
    16    9   10 1   
    17    9   11 1   
    18    9   34 1   
    19   10   35 1   
    20   10   36 1   
    21   11   12 1   
    22   11   37 1   
    23   11   38 1   
    24   12   13 2   
    25   12   14 1   
    26   14   15 1   
    27   14   20 1   
    28   15   16 1   
    29   15   41 1   
    30   15   42 1   
    31   16   17 1   
    32   16   18 1   
    33   16   44 1   
    34   17   20 1   
    35   17   21 1   
    36   17   43 1   
    37   18   19 1   
    38   18   45 1   
    39   18   46 1   
    40   19   47 1   
    41   20   39 1   
    42   20   40 1   
    43   21   22 ar  
    44   21   27 ar  
    45   22   23 ar  
    46   22   48 1   
    47   23   24 ar  
    48   23   50 1   
    49   24   25 1   
    50   24   26 ar  
    51   26   27 ar  
    52   26   51 1   
    53   27   49 1   
@<TRIPOS>SUBSTRUCTURE
     1 A6M         1 TEMP              0 ****  ****    0 ROOT
