@<TRIPOS>MOLECULE
A6P
   27    27     1     0     0
SMALL
bcc


@<TRIPOS>ATOM
      1 C1          0.3620    0.1080   -0.4040 c3        1 A6P      0.325900
      2 C2          1.8430   -0.0070   -0.0030 c3        1 A6P      0.088100
      3 C3          2.0130    0.0650    1.5100 c3        1 A6P      0.028100
      4 C4          1.2400    1.2720    2.1690 c3        1 A6P      0.360800
      5 C5         -0.2080    1.3290    1.5930 c3        1 A6P      0.040100
      6 C6         -0.8700    2.6780    1.9250 c3        1 A6P      0.200400
      7 O1         -0.3640   -1.0510   -0.0620 oh        1 A6P     -0.654800
      8 O2          2.3900   -1.2000   -0.5480 oh        1 A6P     -0.632800
      9 O3          1.5650   -1.1580    2.0800 oh        1 A6P     -0.674800
     10 O4          1.2280    1.1060    3.4800 o         1 A6P     -0.877500
     11 O5         -0.2740    1.2230    0.1560 os        1 A6P     -0.452600
     12 O6         -2.1330    2.4860    2.4850 os        1 A6P     -0.591200
     13 P          -2.3680    3.0750    4.0150 p5        1 A6P      1.438800
     14 O1P        -1.4810    1.9820    4.8190 oh        1 A6P     -0.812400
     15 O2P        -1.6880    4.3900    4.0790 o         1 A6P     -0.858500
     16 O3P        -3.7970    2.8940    4.3580 o         1 A6P     -0.858500
     17 H1          0.2450    0.2140   -1.5200 h2        1 A6P      0.057700
     18 H2          2.4210    0.8270   -0.4840 h1        1 A6P      0.058700
     19 HA         -0.2770   -1.1780    0.8940 ho        1 A6P      0.429000
     20 H3          3.1080    0.1610    1.7490 h1        1 A6P      0.015700
     21 HB          1.9610   -1.9250   -0.0740 ho        1 A6P      0.412000
     22 H4          1.7840    2.2020    1.8060 h1        1 A6P     -0.069300
     23 HC          1.1930   -0.9090    2.9500 ho        1 A6P      0.446000
     24 H5         -0.8120    0.4920    2.0370 h1        1 A6P      0.043700
     25 HD         -0.6210    1.7860    4.4400 ho        1 A6P      0.474000
     26 H6C1       -0.2130    3.2500    2.6390 h1        1 A6P      0.032200
     27 H6C2       -0.9890    3.2690    0.9720 h1        1 A6P      0.032200
@<TRIPOS>BOND
     1    1    2 1   
     2    1    7 1   
     3    1   11 1   
     4    1   17 1   
     5    2    3 1   
     6    2    8 1   
     7    2   18 1   
     8    3    4 1   
     9    3    9 1   
    10    3   20 1   
    11    4    5 1   
    12    4   10 1   
    13    4   22 1   
    14    5    6 1   
    15    5   11 1   
    16    5   24 1   
    17    6   12 1   
    18    6   26 1   
    19    6   27 1   
    20    7   19 1   
    21    8   21 1   
    22    9   23 1   
    23   12   13 1   
    24   13   14 1   
    25   13   15 1   
    26   13   16 1   
    27   14   25 1   
@<TRIPOS>SUBSTRUCTURE
     1 A6P         1 TEMP              0 ****  ****    0 ROOT
