@<TRIPOS>MOLECULE
A6P
   27    27     1     0     0
SMALL
bcc


@<TRIPOS>ATOM
      1 C1         -0.2820   -0.9340   -1.8190 c3        1 A6P      0.325900
      2 C2          1.2180   -0.9250   -1.8030 c3        1 A6P      0.088100
      3 C3          1.7660   -0.9250   -0.4160 c3        1 A6P      0.028100
      4 C4          1.1780    0.1430    0.4190 c3        1 A6P      0.271100
      5 C5         -0.3220    0.1300    0.3880 c3        1 A6P      0.040100
      6 C6         -0.8350    1.3430    1.1070 c3        1 A6P      0.200400
      7 O1         -0.7260   -2.1710   -1.3520 oh        1 A6P     -0.654800
      8 O2          1.7000   -2.0940   -2.4980 oh        1 A6P     -0.632800
      9 O3          1.4760   -2.2430    0.2170 oh        1 A6P     -0.674800
     10 O4          1.6180   -0.0440    1.8060 oh        1 A6P     -0.988800
     11 O5         -0.8600    0.1250   -0.9800 os        1 A6P     -0.452600
     12 O6         -2.2360    1.3760    1.0200 os        1 A6P     -0.591200
     13 P          -3.0180    2.4190    1.8940 p5        1 A6P      1.352900
     14 O1P        -2.8290    2.1030    3.3200 o         1 A6P     -0.747500
     15 O2P        -2.4670    3.8760    1.6000 o         1 A6P     -0.747500
     16 O3P        -4.4770    2.3570    1.5580 o         1 A6P     -0.747500
     17 H1         -0.5860   -0.8130   -2.7270 h2        1 A6P      0.057700
     18 H2          1.5350   -0.1250   -2.2700 h1        1 A6P      0.058700
     19 HA         -1.3030   -2.5210   -1.9360 ho        1 A6P      0.429000
     20 H3          2.6930   -0.8040   -0.4540 h1        1 A6P      0.015700
     21 HB          2.3040   -1.8290   -3.1800 ho        1 A6P      0.412000
     22 H4          1.4930    1.0040    0.0990 h1        1 A6P     -0.069300
     23 HC          2.2140   -2.6250    0.4390 ho        1 A6P      0.446000
     24 H5         -0.6320   -0.6610    0.8460 h1        1 A6P      0.043700
     25 HD          2.4090    0.4090    1.9450 ho        1 A6P      0.474000
     26 H6C1       -0.4740    2.1260    0.7060 h1        1 A6P      0.032200
     27 H6C2       -0.5580    1.3030    2.0730 h1        1 A6P      0.032200
@<TRIPOS>BOND
     1    1    2 1   
     2    1    7 1   
     3    1   11 1   
     4    1   17 1   
     5    2    3 1   
     6    2    8 1   
     7    2   18 1   
     8    3    4 1   
     9    3    9 1   
    10    3   20 1   
    11    4    5 1   
    12    4   10 1   
    13    4   22 1   
    14    5    6 1   
    15    5   11 1   
    16    5   24 1   
    17    6   12 1   
    18    6   26 1   
    19    6   27 1   
    20    7   19 1   
    21    8   21 1   
    22    9   23 1   
    23   10   25 1   
    24   12   13 1   
    25   13   14 1   
    26   13   15 1   
    27   13   16 1   
@<TRIPOS>SUBSTRUCTURE
     1 A6P         1 TEMP              0 ****  ****    0 ROOT
