@<TRIPOS>MOLECULE
A6P
   27    27     1     0     0
SMALL
bcc


@<TRIPOS>ATOM
      1 C1         -2.5770    1.5320   -0.5660 c3        1 A6P      0.325900
      2 C2         -3.4470    0.2940   -0.8430 c3        1 A6P      0.088100
      3 C3         -2.8510   -0.9560   -0.2060 c3        1 A6P      0.028100
      4 C4         -1.3160   -1.1430   -0.5150 c3        1 A6P      0.360800
      5 C5         -0.5790    0.2140   -0.2940 c3        1 A6P      0.040100
      6 C6          0.8260    0.1760   -0.9200 c3        1 A6P      0.200400
      7 O1         -2.6550    1.9340    0.7830 oh        1 A6P     -0.654800
      8 O2         -4.7760    0.5390   -0.4010 oh        1 A6P     -0.632800
      9 O3         -3.0500   -0.8920    1.2000 oh        1 A6P     -0.674800
     10 O4         -0.8330   -2.0850    0.2750 o         1 A6P     -0.877500
     11 O5         -1.2320    1.3450   -0.9070 os        1 A6P     -0.452600
     12 O6          1.7880    0.6070   -0.0070 os        1 A6P     -0.591200
     13 P           2.9750   -0.4760    0.3940 p5        1 A6P      1.438800
     14 O1P         2.0770   -1.4730    1.3040 oh        1 A6P     -0.812400
     15 O2P         3.3560   -1.1780   -0.8550 o         1 A6P     -0.858500
     16 O3P         3.9570    0.2210    1.2540 o         1 A6P     -0.858500
     17 H1         -2.9260    2.4220   -1.1630 h2        1 A6P      0.057700
     18 H2         -3.5320    0.1430   -1.9530 h1        1 A6P      0.058700
     19 HA         -2.3700    1.1860    1.3270 ho        1 A6P      0.429000
     20 H3         -3.4090   -1.8580   -0.5800 h1        1 A6P      0.015700
     21 HB         -4.7270    0.5810    0.5630 ho        1 A6P      0.412000
     22 H4         -1.2660   -1.3740   -1.6270 h1        1 A6P     -0.069300
     23 HC         -2.2710   -1.3400    1.5860 ho        1 A6P      0.446000
     24 H5         -0.4950    0.4100    0.8090 h1        1 A6P      0.043700
     25 HD          1.2240   -1.7140    0.9380 ho        1 A6P      0.474000
     26 H6C1        1.0550   -0.8740   -1.2580 h1        1 A6P      0.032200
     27 H6C2        0.8460    0.8670   -1.8110 h1        1 A6P      0.032200
@<TRIPOS>BOND
     1    1    2 1   
     2    1    7 1   
     3    1   11 1   
     4    1   17 1   
     5    2    3 1   
     6    2    8 1   
     7    2   18 1   
     8    3    4 1   
     9    3    9 1   
    10    3   20 1   
    11    4    5 1   
    12    4   10 1   
    13    4   22 1   
    14    5    6 1   
    15    5   11 1   
    16    5   24 1   
    17    6   12 1   
    18    6   26 1   
    19    6   27 1   
    20    7   19 1   
    21    8   21 1   
    22    9   23 1   
    23   12   13 1   
    24   13   14 1   
    25   13   15 1   
    26   13   16 1   
    27   14   25 1   
@<TRIPOS>SUBSTRUCTURE
     1 A6P         1 TEMP              0 ****  ****    0 ROOT
