@<TRIPOS>MOLECULE
A6T
   76    81     1     0     0
SMALL
bcc


@<TRIPOS>ATOM
      1 C           0.2890   -0.3230    0.6480 c3        1 A6T      0.167800
      2 CLA        -0.0400   -3.1510   -7.2660 cl        1 A6T     -0.020400
      3 C36        -0.2960   -2.6020   -5.6880 ca        1 A6T      0.017400
      4 C33         0.7640   -2.0840   -4.9210 ca        1 A6T      0.040400
      5 CLR3        2.3210   -2.0080   -5.5880 cl        1 A6T     -0.043400
      6 C38        -1.5850   -2.6700   -5.1470 ca        1 A6T     -0.080000
      7 C37        -1.8210   -2.2260   -3.8480 ca        1 A6T     -0.110000
      8 C34        -0.7740   -1.7170   -3.0840 ca        1 A6T     -0.115000
      9 C32         0.5210   -1.6420   -3.6100 ca        1 A6T     -0.145300
     10 C29         1.6250   -1.1580   -2.7310 c3        1 A6T      0.170100
     11 N26         1.6250    0.3320   -2.5150 n4        1 A6T     -0.564200
     12 C28         1.8860    1.0630   -3.7680 cx        1 A6T      0.010500
     13 C31         0.7500    1.5120   -4.6680 cx        1 A6T     -0.102900
     14 C30         1.5400    2.5310   -3.9120 cx        1 A6T     -0.102900
     15 C22         2.6950    0.6670   -1.4650 c         1 A6T      0.599300
     16 O25         3.8520    0.4480   -1.7860 o         1 A6T     -0.418100
     17 C20         2.1660    1.1470   -0.1840 ce        1 A6T     -0.302400
     18 C23         1.7870    0.0660    0.8170 c3        1 A6T      0.220700
     19 N27         2.0010    0.5060    2.1920 n3        1 A6T     -0.773200
     20 C24         1.2150    1.7180    2.4210 c3        1 A6T      0.156500
     21 C21         1.6310    2.8830    1.5060 c3        1 A6T     -0.095200
     22 NB         -0.6010    0.7760    0.9700 n3        1 A6T     -0.830200
     23 CA         -0.2960    1.4130    2.2410 c3        1 A6T      0.159800
     24 C19         2.0990    2.4560    0.1510 cf        1 A6T      0.117600
     25 C18         2.5180    3.5550   -0.7210 ca        1 A6T     -0.149800
     26 C16         1.6290    4.5950   -1.0240 ca        1 A6T     -0.108000
     27 C14         2.0540    5.6840   -1.7810 ca        1 A6T     -0.127000
     28 C17         3.8370    3.6200   -1.1940 ca        1 A6T     -0.108000
     29 C15         4.2610    4.7150   -1.9410 ca        1 A6T     -0.127000
     30 C13         3.3760    5.7600   -2.2380 ca        1 A6T     -0.041300
     31 C12         3.8400    6.9350   -3.0250 c3        1 A6T     -0.047100
     32 C10         4.7680    7.8120   -2.2060 c3        1 A6T     -0.082400
     33 C8          5.2490    8.9850   -3.0420 c3        1 A6T      0.128400
     34 O5          6.1370    9.7260   -2.1820 os        1 A6T     -0.323900
     35 C3          6.6590   10.8580   -2.7840 ca        1 A6T      0.078100
     36 C6          5.8880   12.0430   -2.8080 ca        1 A6T      0.103900
     37 F1          4.6080   12.0250   -2.3690 f         1 A6T     -0.126900
     38 C2          7.9810   10.8600   -3.2600 ca        1 A6T     -0.013600
     39 CL11        8.8990    9.4360   -3.2510 cl        1 A6T     -0.042400
     40 C4          8.5340   12.0700   -3.7370 ca        1 A6T      0.132900
     41 F2          9.8050   12.1210   -4.1960 f         1 A6T     -0.115900
     42 C7          7.7610   13.2480   -3.7460 ca        1 A6T     -0.137000
     43 C9          6.4520   13.2370   -3.2900 ca        1 A6T     -0.129000
     44 H           0.1060   -1.2390    1.2830 h1        1 A6T      0.032200
     45 HA          0.0990   -0.6120   -0.4220 h1        1 A6T      0.032200
     46 H34        -0.9680   -1.3870   -2.0510 ha        1 A6T      0.138000
     47 H29         1.5220   -1.6290   -1.7070 hx        1 A6T      0.112200
     48 H29A        2.6380   -1.4360   -3.1480 hx        1 A6T      0.112200
     49 H28         2.8280    0.6870   -4.2340 hx        1 A6T      0.146700
     50 H31         0.8940    1.4010   -5.7600 hc        1 A6T      0.105950
     51 H31A       -0.2980    1.3170   -4.3730 hc        1 A6T      0.105950
     52 H30         2.2680    3.1700   -4.4490 hc        1 A6T      0.105950
     53 H30A        1.0670    3.0760   -3.0710 hc        1 A6T      0.105950
     54 H23         2.4150   -0.8530    0.6360 h1        1 A6T      0.076700
     55 HN27        2.9750    0.6740    2.3670 hn        1 A6T      0.381800
     56 H24         1.3690    2.0320    3.4940 h1        1 A6T      0.093700
     57 H21         0.7690    3.5940    1.3840 hc        1 A6T      0.090200
     58 H21A        2.4680    3.4590    1.9900 hc        1 A6T      0.090200
     59 HNB        -1.5520    0.4520    0.9770 hn        1 A6T      0.375800
     60 HAA        -0.6230    0.7840    3.1200 h1        1 A6T      0.055700
     61 HAB        -0.8680    2.3810    2.2770 h1        1 A6T      0.055700
     62 H16         0.5920    4.5590   -0.6560 ha        1 A6T      0.145500
     63 H14         1.3480    6.4990   -2.0070 ha        1 A6T      0.153500
     64 H17         4.5470    2.8100   -0.9580 ha        1 A6T      0.145500
     65 H15         5.3040    4.7690   -2.2910 ha        1 A6T      0.153500
     66 H12         4.3800    6.5750   -3.9430 hc        1 A6T      0.059200
     67 H12A        2.9610    7.5410   -3.3710 hc        1 A6T      0.059200
     68 H10         4.2380    8.1980   -1.2960 hc        1 A6T      0.066200
     69 H10A        5.6510    7.2190   -1.8520 hc        1 A6T      0.066200
     70 H8          5.8120    8.6400   -3.9470 h1        1 A6T      0.044700
     71 H8A         4.3990    9.6470   -3.3500 h1        1 A6T      0.044700
     72 H7          8.2140   14.1800   -4.1210 ha        1 A6T      0.167000
     73 H9          5.8480   14.1580   -3.2970 ha        1 A6T      0.165000
     74 H38        -2.4130   -3.0810   -5.7500 ha        1 A6T      0.175000
     75 H261        0.7080    0.6160   -2.1440 hn        1 A6T      0.454800
     76 H37        -2.8360   -2.2860   -3.4240 ha        1 A6T      0.163000
@<TRIPOS>BOND
     1    1   18 1   
     2    1   22 1   
     3    1   44 1   
     4    1   45 1   
     5    2    3 1   
     6    3    4 ar  
     7    3    6 ar  
     8    4    5 1   
     9    4    9 ar  
    10    6    7 ar  
    11    6   74 1   
    12    7    8 ar  
    13    7   76 1   
    14    8    9 ar  
    15    8   46 1   
    16    9   10 1   
    17   10   11 1   
    18   10   47 1   
    19   10   48 1   
    20   11   12 1   
    21   11   15 1   
    22   11   75 1   
    23   12   13 1   
    24   12   14 1   
    25   12   49 1   
    26   13   14 1   
    27   13   50 1   
    28   13   51 1   
    29   14   52 1   
    30   14   53 1   
    31   15   16 2   
    32   15   17 1   
    33   17   18 1   
    34   17   24 2   
    35   18   19 1   
    36   18   54 1   
    37   19   20 1   
    38   19   55 1   
    39   20   21 1   
    40   20   23 1   
    41   20   56 1   
    42   21   24 1   
    43   21   57 1   
    44   21   58 1   
    45   22   23 1   
    46   22   59 1   
    47   23   60 1   
    48   23   61 1   
    49   24   25 1   
    50   25   26 ar  
    51   25   28 ar  
    52   26   27 ar  
    53   26   62 1   
    54   27   30 ar  
    55   27   63 1   
    56   28   29 ar  
    57   28   64 1   
    58   29   30 ar  
    59   29   65 1   
    60   30   31 1   
    61   31   32 1   
    62   31   66 1   
    63   31   67 1   
    64   32   33 1   
    65   32   68 1   
    66   32   69 1   
    67   33   34 1   
    68   33   70 1   
    69   33   71 1   
    70   34   35 1   
    71   35   36 ar  
    72   35   38 ar  
    73   36   37 1   
    74   36   43 ar  
    75   38   39 1   
    76   38   40 ar  
    77   40   41 1   
    78   40   42 ar  
    79   42   43 ar  
    80   42   72 1   
    81   43   73 1   
@<TRIPOS>SUBSTRUCTURE
     1 A6T         1 TEMP              0 ****  ****    0 ROOT
