@<TRIPOS>MOLECULE
A6T
   76    81     1     0     0
SMALL
bcc


@<TRIPOS>ATOM
      1 C           0.2980   -0.3220    0.6580 c3        1 A6T      0.123800
      2 CLA        -0.2080   -3.1510   -7.2420 cl        1 A6T     -0.019400
      3 C36        -0.4350   -2.5680   -5.6720 ca        1 A6T      0.018400
      4 C33         0.6490   -2.0860   -4.9160 ca        1 A6T      0.040400
      5 CLR3        2.2050   -2.0850   -5.5880 cl        1 A6T     -0.042400
      6 C38        -1.7240   -2.5720   -5.1270 ca        1 A6T     -0.081000
      7 C37        -1.9370   -2.0980   -3.8350 ca        1 A6T     -0.110000
      8 C34        -0.8670   -1.6230   -3.0810 ca        1 A6T     -0.117000
      9 C32         0.4290   -1.6140   -3.6110 ca        1 A6T     -0.144300
     10 C29         1.5550   -1.1630   -2.7420 c3        1 A6T      0.170100
     11 N26         1.6060    0.3260   -2.5320 n4        1 A6T     -0.567200
     12 C28         1.8840    1.0430   -3.7890 cx        1 A6T      0.010500
     13 C31         0.7590    1.5200   -4.6870 cx        1 A6T     -0.102900
     14 C30         1.5800    2.5200   -3.9380 cx        1 A6T     -0.102900
     15 C22         2.6960    0.6280   -1.4870 c         1 A6T      0.599300
     16 O25         3.8430    0.3940   -1.8290 o         1 A6T     -0.410100
     17 C20         2.1870    1.1100   -0.1980 ce        1 A6T     -0.257400
     18 C23         1.8110    0.0290    0.7950 c3        1 A6T      0.219700
     19 N27         2.1300    0.4920    2.1470 n3        1 A6T     -0.776200
     20 C24         1.3240    1.6790    2.4330 c3        1 A6T      0.155500
     21 C21         1.7440    2.8410    1.5200 c3        1 A6T     -0.049200
     22 NB         -0.5530    0.7910    1.0270 n3        1 A6T     -0.828200
     23 CA         -0.2010    1.4100    2.2930 c3        1 A6T      0.118800
     24 C19         2.1590    2.4190    0.1480 cf        1 A6T      0.130600
     25 C18         2.5720    3.5150   -0.7300 ca        1 A6T     -0.150800
     26 C16         1.6790    4.5540   -1.0300 ca        1 A6T     -0.108000
     27 C14         2.0990    5.6410   -1.7920 ca        1 A6T     -0.127500
     28 C17         3.8890    3.5810   -1.2070 ca        1 A6T     -0.108000
     29 C15         4.3070    4.6750   -1.9590 ca        1 A6T     -0.127500
     30 C13         3.4190    5.7170   -2.2560 ca        1 A6T     -0.043300
     31 C12         3.8780    6.8910   -3.0470 c3        1 A6T     -0.046100
     32 C10         4.7700    7.7960   -2.2190 c3        1 A6T     -0.082400
     33 C8          5.2470    8.9690   -3.0570 c3        1 A6T      0.128400
     34 O5          6.0790    9.7500   -2.1790 os        1 A6T     -0.323900
     35 C3          6.5930   10.8860   -2.7830 ca        1 A6T      0.078100
     36 C6          5.7880   12.0460   -2.8650 ca        1 A6T      0.103900
     37 F1          4.4920   11.9990   -2.4800 f         1 A6T     -0.126900
     38 C2          7.9330   10.9180   -3.2030 ca        1 A6T     -0.013600
     39 CL11        8.8920    9.5240   -3.1250 cl        1 A6T     -0.041400
     40 C4          8.4690   12.1350   -3.6830 ca        1 A6T      0.132900
     41 F2          9.7570   12.2150   -4.0880 f         1 A6T     -0.115900
     42 C7          7.6630   13.2880   -3.7500 ca        1 A6T     -0.137000
     43 C9          6.3370   13.2470   -3.3490 ca        1 A6T     -0.129000
     44 H           0.0630   -0.5880   -0.4080 h1        1 A6T      0.028200
     45 HA          0.1080   -1.2470    1.2800 h1        1 A6T      0.028200
     46 H34        -1.0440   -1.2690   -2.0540 ha        1 A6T      0.137000
     47 H29         1.4450   -1.6280   -1.7160 hx        1 A6T      0.111200
     48 H29A        2.5550   -1.4760   -3.1670 hx        1 A6T      0.111200
     49 H28         2.8130    0.6380   -4.2550 hx        1 A6T      0.146700
     50 H31        -0.2930    1.3570   -4.3890 hc        1 A6T      0.105700
     51 H31A        0.8970    1.4010   -5.7800 hc        1 A6T      0.105700
     52 H30         2.3260    3.1350   -4.4790 hc        1 A6T      0.105700
     53 H30A        1.1260    3.0820   -3.0980 hc        1 A6T      0.105700
     54 H23         2.4130   -0.9020    0.5910 h1        1 A6T      0.076700
     55 HN27        1.9380   -0.2340    2.8130 hn        1 A6T      0.381800
     56 H24         1.5180    1.9820    3.5030 h1        1 A6T      0.092700
     57 H21         0.9020    3.5800    1.4400 hc        1 A6T      0.090200
     58 H21A        2.6210    3.3730    1.9860 hc        1 A6T      0.090200
     59 HNB        -1.5130    0.4980    1.0480 hn        1 A6T      0.377800
     60 HAA        -0.7550    2.3880    2.3530 h1        1 A6T      0.052700
     61 HAB        -0.5210    0.7820    3.1760 h1        1 A6T      0.052700
     62 H16         0.6450    4.5170   -0.6540 ha        1 A6T      0.147000
     63 H14         1.3910    6.4550   -2.0170 ha        1 A6T      0.152500
     64 H17         4.6010    2.7740   -0.9690 ha        1 A6T      0.147000
     65 H15         5.3490    4.7310   -2.3130 ha        1 A6T      0.152500
     66 H12         2.9940    7.4760   -3.4190 hc        1 A6T      0.058700
     67 H12A        4.4450    6.5320   -3.9490 hc        1 A6T      0.058700
     68 H10         5.6560    7.2240   -1.8380 hc        1 A6T      0.066200
     69 H10A        4.2130    8.1810   -1.3250 hc        1 A6T      0.066200
     70 H8          5.8530    8.6260   -3.9350 h1        1 A6T      0.044700
     71 H8A         4.3880    9.6000   -3.4070 h1        1 A6T      0.044700
     72 H7          8.1040   14.2250   -4.1260 ha        1 A6T      0.167000
     73 H9          5.7070   14.1480   -3.4010 ha        1 A6T      0.165000
     74 H38        -2.5710   -2.9550   -5.7220 ha        1 A6T      0.175000
     75 H261        0.7020    0.6410   -2.1560 hn        1 A6T      0.452800
     76 H37        -2.9530   -2.1070   -3.4080 ha        1 A6T      0.162000
@<TRIPOS>BOND
     1    1   18 1   
     2    1   22 1   
     3    1   44 1   
     4    1   45 1   
     5    2    3 1   
     6    3    4 ar  
     7    3    6 ar  
     8    4    5 1   
     9    4    9 ar  
    10    6    7 ar  
    11    6   74 1   
    12    7    8 ar  
    13    7   76 1   
    14    8    9 ar  
    15    8   46 1   
    16    9   10 1   
    17   10   11 1   
    18   10   47 1   
    19   10   48 1   
    20   11   12 1   
    21   11   15 1   
    22   11   75 1   
    23   12   13 1   
    24   12   14 1   
    25   12   49 1   
    26   13   14 1   
    27   13   50 1   
    28   13   51 1   
    29   14   52 1   
    30   14   53 1   
    31   15   16 2   
    32   15   17 1   
    33   17   18 1   
    34   17   24 2   
    35   18   19 1   
    36   18   54 1   
    37   19   20 1   
    38   19   55 1   
    39   20   21 1   
    40   20   23 1   
    41   20   56 1   
    42   21   24 1   
    43   21   57 1   
    44   21   58 1   
    45   22   23 1   
    46   22   59 1   
    47   23   60 1   
    48   23   61 1   
    49   24   25 1   
    50   25   26 ar  
    51   25   28 ar  
    52   26   27 ar  
    53   26   62 1   
    54   27   30 ar  
    55   27   63 1   
    56   28   29 ar  
    57   28   64 1   
    58   29   30 ar  
    59   29   65 1   
    60   30   31 1   
    61   31   32 1   
    62   31   66 1   
    63   31   67 1   
    64   32   33 1   
    65   32   68 1   
    66   32   69 1   
    67   33   34 1   
    68   33   70 1   
    69   33   71 1   
    70   34   35 1   
    71   35   36 ar  
    72   35   38 ar  
    73   36   37 1   
    74   36   43 ar  
    75   38   39 1   
    76   38   40 ar  
    77   40   41 1   
    78   40   42 ar  
    79   42   43 ar  
    80   42   72 1   
    81   43   73 1   
@<TRIPOS>SUBSTRUCTURE
     1 A6T         1 TEMP              0 ****  ****    0 ROOT
