@<TRIPOS>MOLECULE
A6T
   76    81     1     0     0
SMALL
bcc


@<TRIPOS>ATOM
      1 C           0.2900   -0.3250    0.6510 c3        1 A6T      0.123800
      2 ClA        -0.1780   -3.1430   -7.2570 cl        1 A6T     -0.019400
      3 C36        -0.4120   -2.5660   -5.6860 ca        1 A6T      0.018400
      4 C33         0.6670   -2.0790   -4.9250 ca        1 A6T      0.040400
      5 ClR3        2.2250   -2.0690   -5.5930 cl        1 A6T     -0.042400
      6 C38        -1.7030   -2.5780   -5.1440 ca        1 A6T     -0.081000
      7 C37        -1.9220   -2.1090   -3.8510 ca        1 A6T     -0.110000
      8 C34        -0.8560   -1.6310   -3.0930 ca        1 A6T     -0.117000
      9 C32         0.4410   -1.6130   -3.6190 ca        1 A6T     -0.144300
     10 C29         1.5630   -1.1590   -2.7460 c3        1 A6T      0.170100
     11 N26         1.6070    0.3310   -2.5330 nx        1 A6T     -0.567200
     12 C28         1.8850    1.0510   -3.7890 cx        1 A6T      0.010500
     13 C31         0.7600    1.5270   -4.6880 cx        1 A6T     -0.102900
     14 C30         1.5770    2.5270   -3.9350 cx        1 A6T     -0.102900
     15 C22         2.6920    0.6350   -1.4850 c         1 A6T      0.599300
     16 O25         3.8410    0.4060   -1.8240 o         1 A6T     -0.410100
     17 C20         2.1780    1.1140   -0.1970 ce        1 A6T     -0.257400
     18 C23         1.8020    0.0310    0.7930 c3        1 A6T      0.219700
     19 N27         2.1150    0.4930    2.1470 n7        1 A6T     -0.776200
     20 C24         1.3050    1.6770    2.4320 c3        1 A6T      0.155500
     21 C21         1.7240    2.8410    1.5220 c3        1 A6T     -0.049200
     22 NB         -0.5650    0.7850    1.0190 n7        1 A6T     -0.828200
     23 CA         -0.2190    1.4040    2.2870 c3        1 A6T      0.118800
     24 C19         2.1450    2.4220    0.1500 cf        1 A6T      0.130600
     25 C18         2.5580    3.5210   -0.7250 ca        1 A6T     -0.150800
     26 C16         1.6640    4.5590   -1.0250 ca        1 A6T     -0.108000
     27 C14         2.0830    5.6480   -1.7840 ca        1 A6T     -0.127500
     28 C17         3.8760    3.5910   -1.1980 ca        1 A6T     -0.108000
     29 C15         4.2930    4.6870   -1.9480 ca        1 A6T     -0.127500
     30 C13         3.4030    5.7280   -2.2440 ca        1 A6T     -0.043300
     31 C12         3.8620    6.9040   -3.0340 c3        1 A6T     -0.046100
     32 C10         4.7670    7.7980   -2.2090 c3        1 A6T     -0.082400
     33 C8          5.2430    8.9720   -3.0470 c3        1 A6T      0.128400
     34 O5          6.0980    9.7390   -2.1770 os        1 A6T     -0.323900
     35 C3          6.6140   10.8730   -2.7810 ca        1 A6T      0.078100
     36 C6          5.8210   12.0430   -2.8390 ca        1 A6T      0.103900
     37 F1          4.5320   12.0070   -2.4300 f         1 A6T     -0.126900
     38 C2          7.9460   10.8940   -3.2240 ca        1 A6T     -0.013600
     39 Cl11        8.8900    9.4880   -3.1750 cl        1 A6T     -0.041400
     40 C4          8.4880   12.1080   -3.7040 ca        1 A6T      0.132900
     41 F2          9.7680   12.1780   -4.1330 f         1 A6T     -0.115900
     42 C7          7.6940   13.2710   -3.7480 ca        1 A6T     -0.137000
     43 C9          6.3740   13.2410   -3.3230 ca        1 A6T     -0.129000
     44 H           0.1010   -1.2510    1.2710 h1        1 A6T      0.028200
     45 HA          0.0590   -0.5900   -0.4160 h1        1 A6T      0.028200
     46 H34        -1.0370   -1.2800   -2.0650 ha        1 A6T      0.137000
     47 H29         1.4510   -1.6250   -1.7220 hx        1 A6T      0.111200
     48 H29A        2.5650   -1.4670   -3.1680 hx        1 A6T      0.111200
     49 H28         2.8160    0.6500   -4.2540 hx        1 A6T      0.146700
     50 H31        -0.2920    1.3600   -4.3920 hc        1 A6T      0.105700
     51 H31A        0.9000    1.4100   -5.7800 hc        1 A6T      0.105700
     52 H30         1.1190    3.0870   -3.0950 hc        1 A6T      0.105700
     53 H30A        2.3210    3.1450   -4.4740 hc        1 A6T      0.105700
     54 H23         2.4080   -0.8990    0.5900 h1        1 A6T      0.076700
     55 HN27        1.9230   -0.2350    2.8110 hn        1 A6T      0.381800
     56 H24         1.4940    1.9790    3.5030 h1        1 A6T      0.092700
     57 H21         0.8810    3.5780    1.4400 hc        1 A6T      0.090200
     58 H21A        2.5980    3.3750    1.9920 hc        1 A6T      0.090200
     59 HNB        -1.5240    0.4890    1.0360 hn        1 A6T      0.377800
     60 HAA        -0.5400    0.7730    3.1670 h1        1 A6T      0.052700
     61 HAB        -0.7760    2.3800    2.3460 h1        1 A6T      0.052700
     62 H16         0.6280    4.5190   -0.6510 ha        1 A6T      0.147000
     63 H14         1.3740    6.4610   -2.0090 ha        1 A6T      0.152500
     64 H17         4.5890    2.7840   -0.9600 ha        1 A6T      0.147000
     65 H15         5.3360    4.7450   -2.3000 ha        1 A6T      0.152500
     66 H12         2.9780    7.4960   -3.3930 hc        1 A6T      0.058700
     67 H12A        4.4170    6.5460   -3.9430 hc        1 A6T      0.058700
     68 H10         5.6540    7.2190   -1.8410 hc        1 A6T      0.066200
     69 H10A        4.2220    8.1830   -1.3080 hc        1 A6T      0.066200
     70 H8          4.3860    9.6150   -3.3790 h1        1 A6T      0.044700
     71 H8A         5.8320    8.6300   -3.9370 h1        1 A6T      0.044700
     72 H7          8.1380   14.2060   -4.1230 ha        1 A6T      0.167000
     73 H9          5.7540   14.1500   -3.3560 ha        1 A6T      0.165000
     74 H38        -2.5460   -2.9640   -5.7430 ha        1 A6T      0.175000
     75 H261        0.7000    0.6410   -2.1590 hn        1 A6T      0.452800
     76 H37        -2.9390   -2.1240   -3.4270 ha        1 A6T      0.162000
@<TRIPOS>BOND
     1    1   18 1   
     2    1   22 1   
     3    1   44 1   
     4    1   45 1   
     5    2    3 1   
     6    3    4 ar  
     7    3    6 ar  
     8    4    5 1   
     9    4    9 ar  
    10    6    7 ar  
    11    6   74 1   
    12    7    8 ar  
    13    7   76 1   
    14    8    9 ar  
    15    8   46 1   
    16    9   10 1   
    17   10   11 1   
    18   10   47 1   
    19   10   48 1   
    20   11   12 1   
    21   11   15 1   
    22   11   75 1   
    23   12   13 1   
    24   12   14 1   
    25   12   49 1   
    26   13   14 1   
    27   13   50 1   
    28   13   51 1   
    29   14   52 1   
    30   14   53 1   
    31   15   16 2   
    32   15   17 1   
    33   17   18 1   
    34   17   24 2   
    35   18   19 1   
    36   18   54 1   
    37   19   20 1   
    38   19   55 1   
    39   20   21 1   
    40   20   23 1   
    41   20   56 1   
    42   21   24 1   
    43   21   57 1   
    44   21   58 1   
    45   22   23 1   
    46   22   59 1   
    47   23   60 1   
    48   23   61 1   
    49   24   25 1   
    50   25   26 ar  
    51   25   28 ar  
    52   26   27 ar  
    53   26   62 1   
    54   27   30 ar  
    55   27   63 1   
    56   28   29 ar  
    57   28   64 1   
    58   29   30 ar  
    59   29   65 1   
    60   30   31 1   
    61   31   32 1   
    62   31   66 1   
    63   31   67 1   
    64   32   33 1   
    65   32   68 1   
    66   32   69 1   
    67   33   34 1   
    68   33   70 1   
    69   33   71 1   
    70   34   35 1   
    71   35   36 ar  
    72   35   38 ar  
    73   36   37 1   
    74   36   43 ar  
    75   38   39 1   
    76   38   40 ar  
    77   40   41 1   
    78   40   42 ar  
    79   42   43 ar  
    80   42   72 1   
    81   43   73 1   
@<TRIPOS>SUBSTRUCTURE
     1 A6T         1 TEMP              0 ****  ****    0 ROOT
