@<TRIPOS>MOLECULE
A6T
   75    80     1     0     0
SMALL
bcc


@<TRIPOS>ATOM
      1 C           4.0680    4.4790   -0.1760 c3        1 A6T      0.120800
      2 CLA         3.9790   -5.5550    2.8450 cl        1 A6T     -0.073400
      3 C36         3.4070   -3.9860    2.5330 ca        1 A6T      0.015400
      4 C33         4.2730   -2.9760    2.0800 ca        1 A6T      0.020400
      5 CLR3        5.9220   -3.3350    1.8640 cl        1 A6T     -0.076400
      6 C38         2.0520   -3.7150    2.7380 ca        1 A6T     -0.118000
      7 C37         1.5610   -2.4350    2.4970 ca        1 A6T     -0.121000
      8 C34         2.4150   -1.4300    2.0480 ca        1 A6T     -0.104000
      9 C32         3.7720   -1.6890    1.8260 ca        1 A6T     -0.089300
     10 C29         4.6710   -0.5630    1.3850 c3        1 A6T      0.128300
     11 N26         4.2090    0.2270    0.2660 n         1 A6T     -0.430800
     12 C28         4.4070   -0.2330   -1.0710 cx        1 A6T      0.036700
     13 C31         5.0880   -1.5390   -1.4210 cx        1 A6T     -0.139400
     14 C30         3.6230   -1.3760   -1.6920 cx        1 A6T     -0.139400
     15 C22         3.4790    1.3890    0.5010 c         1 A6T      0.679300
     16 O25         3.2150    1.7430    1.6710 o         1 A6T     -0.616100
     17 C20         3.1030    2.2460   -0.6590 ce        1 A6T     -0.159400
     18 C23         4.1860    3.2110   -1.0810 c3        1 A6T      0.160700
     19 N27         4.0470    3.5410   -2.5040 n3        1 A6T     -0.777200
     20 C24         2.7370    4.1700   -2.7000 c3        1 A6T      0.117500
     21 C21         1.6090    3.1710   -2.4020 c3        1 A6T     -0.039200
     22 NB          2.8780    5.2700   -0.4190 n3        1 A6T     -0.795200
     23 CA          2.5740    5.4470   -1.8250 c3        1 A6T      0.118800
     24 C19         1.8900    2.2600   -1.2480 cf        1 A6T     -0.001400
     25 C18         0.7640    1.4140   -0.8440 ca        1 A6T     -0.074800
     26 C16         0.3430    1.3770    0.4930 ca        1 A6T     -0.112000
     27 C14        -0.7590    0.6110    0.8630 ca        1 A6T     -0.130500
     28 C17         0.0700    0.6560   -1.7970 ca        1 A6T     -0.112000
     29 C15        -1.0270   -0.1160   -1.4230 ca        1 A6T     -0.130500
     30 C13        -1.4550   -0.1410   -0.0910 ca        1 A6T     -0.072300
     31 C12        -2.6270   -0.9650    0.3130 c3        1 A6T     -0.036100
     32 C10        -3.8330   -0.1010    0.6230 c3        1 A6T     -0.082400
     33 C8         -4.9950   -0.9710    1.0650 c3        1 A6T      0.128400
     34 O5         -6.0810   -0.0620    1.3360 os        1 A6T     -0.324900
     35 C3         -7.2320   -0.6980    1.7630 ca        1 A6T      0.088100
     36 C6         -7.3460   -1.0910    3.1170 ca        1 A6T      0.102900
     37 F1         -6.2880   -0.9620    3.9510 f         1 A6T     -0.124900
     38 C2         -8.3220   -0.8480    0.8880 ca        1 A6T     -0.014600
     39 CL11       -8.1860   -0.3960   -0.7390 cl        1 A6T     -0.039400
     40 C4         -9.5340   -1.3750    1.3890 ca        1 A6T      0.127900
     41 F2        -10.6120   -1.5270    0.5850 f         1 A6T     -0.120900
     42 C7         -9.6390   -1.7550    2.7400 ca        1 A6T     -0.143000
     43 C9         -8.5570   -1.6190    3.5970 ca        1 A6T     -0.132000
     44 H           4.0800    4.1530    0.9000 h1        1 A6T      0.068200
     45 HA          4.9630    5.1350   -0.3640 h1        1 A6T      0.068200
     46 H37         0.4960   -2.2160    2.6640 ha        1 A6T      0.141000
     47 H34         2.0220   -0.4120    1.8750 ha        1 A6T      0.162000
     48 H29         4.7870    0.1290    2.2750 h1        1 A6T      0.082200
     49 H29A        5.6920   -0.9600    1.1180 h1        1 A6T      0.082200
     50 H28         4.6260    0.6330   -1.7440 h1        1 A6T      0.103700
     51 H31         5.8030   -1.5280   -2.2630 hc        1 A6T      0.079200
     52 H31A        5.4020   -2.2390   -0.6250 hc        1 A6T      0.079200
     53 H30         2.9050   -1.9460   -1.0770 hc        1 A6T      0.079200
     54 H30A        3.2710   -1.2540   -2.7320 hc        1 A6T      0.079200
     55 H23         5.2010    2.7470   -0.9270 h1        1 A6T      0.080700
     56 HN27        4.7700    4.1910   -2.7610 hn        1 A6T      0.359800
     57 H24         2.6610    4.4790   -3.7820 h1        1 A6T      0.068700
     58 H21         0.6610    3.7370   -2.2070 hc        1 A6T      0.064200
     59 H21A        1.4430    2.5340   -3.3140 hc        1 A6T      0.064200
     60 HNB         2.0930    4.8430    0.0440 hn        1 A6T      0.362800
     61 HAA         3.2710    6.2390   -2.2230 h1        1 A6T      0.056200
     62 HAB         1.5230    5.8310   -1.9260 h1        1 A6T      0.056200
     63 H16         0.8950    1.9540    1.2550 ha        1 A6T      0.148000
     64 H14        -1.0870    0.5980    1.9130 ha        1 A6T      0.135500
     65 H17         0.3950    0.6640   -2.8480 ha        1 A6T      0.148000
     66 H15        -1.5590   -0.7090   -2.1810 ha        1 A6T      0.135500
     67 H12        -2.8870   -1.6910   -0.5030 hc        1 A6T      0.049700
     68 H12A       -2.3570   -1.5690    1.2220 hc        1 A6T      0.049700
     69 H10        -3.5860    0.6330    1.4340 hc        1 A6T      0.065200
     70 H10A       -4.1320    0.4910   -0.2810 hc        1 A6T      0.065200
     71 H8         -5.3040   -1.6830    0.2560 h1        1 A6T      0.042700
     72 H8A        -4.7530   -1.5390    2.0010 h1        1 A6T      0.042700
     73 H7        -10.5930   -2.1630    3.1080 ha        1 A6T      0.161000
     74 H9         -8.6380   -1.9150    4.6540 ha        1 A6T      0.161000
     75 H38         1.3780   -4.5110    3.0920 ha        1 A6T      0.150000
@<TRIPOS>BOND
     1    1   18 1   
     2    1   22 1   
     3    1   44 1   
     4    1   45 1   
     5    2    3 1   
     6    3    4 ar  
     7    3    6 ar  
     8    4    5 1   
     9    4    9 ar  
    10    6    7 ar  
    11    6   75 1   
    12    7    8 ar  
    13    7   46 1   
    14    8    9 ar  
    15    8   47 1   
    16    9   10 1   
    17   10   11 1   
    18   10   48 1   
    19   10   49 1   
    20   11   12 1   
    21   11   15 1   
    22   12   13 1   
    23   12   14 1   
    24   12   50 1   
    25   13   14 1   
    26   13   51 1   
    27   13   52 1   
    28   14   53 1   
    29   14   54 1   
    30   15   16 2   
    31   15   17 1   
    32   17   18 1   
    33   17   24 2   
    34   18   19 1   
    35   18   55 1   
    36   19   20 1   
    37   19   56 1   
    38   20   21 1   
    39   20   23 1   
    40   20   57 1   
    41   21   24 1   
    42   21   58 1   
    43   21   59 1   
    44   22   23 1   
    45   22   60 1   
    46   23   61 1   
    47   23   62 1   
    48   24   25 1   
    49   25   26 ar  
    50   25   28 ar  
    51   26   27 ar  
    52   26   63 1   
    53   27   30 ar  
    54   27   64 1   
    55   28   29 ar  
    56   28   65 1   
    57   29   30 ar  
    58   29   66 1   
    59   30   31 1   
    60   31   32 1   
    61   31   67 1   
    62   31   68 1   
    63   32   33 1   
    64   32   69 1   
    65   32   70 1   
    66   33   34 1   
    67   33   71 1   
    68   33   72 1   
    69   34   35 1   
    70   35   36 ar  
    71   35   38 ar  
    72   36   37 1   
    73   36   43 ar  
    74   38   39 1   
    75   38   40 ar  
    76   40   41 1   
    77   40   42 ar  
    78   42   43 ar  
    79   42   73 1   
    80   43   74 1   
@<TRIPOS>SUBSTRUCTURE
     1 A6T         1 TEMP              0 ****  ****    0 ROOT
