@<TRIPOS>MOLECULE
A6U
   35    36     1     0     0
SMALL
bcc


@<TRIPOS>ATOM
      1 P           4.5180   -0.0070    0.2840 p5        1 A6U      1.431800
      2 N1         -2.7990   -0.0430    0.4280 n         1 A6U     -0.330000
      3 C2         -4.1950   -0.0590    0.6520 c         1 A6U      0.795500
      4 O2         -4.8190   -1.0790    1.0290 o         1 A6U     -0.676500
      5 N3         -4.9180    1.1360    0.4630 n         1 A6U     -0.597500
      6 C4         -4.3140    2.3440    0.0700 c         1 A6U      0.721700
      7 O4         -5.0460    3.3470   -0.0730 o         1 A6U     -0.685500
      8 C5         -2.8730    2.2990   -0.1260 cc        1 A6U     -0.393200
      9 C6         -2.1830    1.1320    0.0490 cd        1 A6U      0.105600
     10 C1'        -2.0290   -1.2880    0.5430 c3        1 A6U      0.052700
     11 C2'        -1.3900   -1.7250   -0.7990 c3        1 A6U      0.055100
     12 O2'        -1.2910   -3.1360   -0.7330 oh        1 A6U     -0.656800
     13 C3'         0.0180   -1.0970   -1.1680 c3        1 A6U      0.362800
     14 O3'         0.6240   -1.9050   -2.0160 o         1 A6U     -0.866500
     15 C4'         0.8780   -0.8440    0.1090 c3        1 A6U      0.039100
     16 O4'         0.1040   -0.3160    1.2050 os        1 A6U     -0.431600
     17 C5'         1.9590    0.2080   -0.1740 c3        1 A6U      0.204400
     18 O5'         2.9610    0.1770    0.7960 os        1 A6U     -0.587200
     19 C6'        -0.9220   -1.1940    1.6070 c3        1 A6U      0.133400
     20 OP1         4.4310   -1.5810   -0.1390 oh        1 A6U     -0.789400
     21 OP2         4.6550    0.7460   -0.9840 o         1 A6U     -0.849000
     22 OP3         5.4160    0.1400    1.4480 o         1 A6U     -0.849000
     23 H5         -2.3740    3.2280   -0.4180 ha        1 A6U      0.168000
     24 H6         -1.0750    1.0550   -0.0850 h4        1 A6U      0.233000
     25 H1'        -2.7570   -2.0930    0.8620 h1        1 A6U      0.083700
     26 H2'        -2.1000   -1.4880   -1.6420 h1        1 A6U      0.011700
     27 HO2'       -0.4310   -3.3630   -1.1410 ho        1 A6U      0.445000
     28 H3'        -0.2360   -0.0690   -1.5930 h1        1 A6U     -0.086300
     29 HO3'        3.8260   -1.7440   -0.8540 ho        1 A6U      0.434000
     30 H4'         1.3540   -1.8060    0.4380 h1        1 A6U      0.048700
     31 H5'         2.3880    0.0130   -1.1970 h1        1 A6U      0.031700
     32 H5'A        1.4750    1.2260   -0.1570 h1        1 A6U      0.031700
     33 H6'        -1.3020   -0.7780    2.5770 h1        1 A6U      0.040200
     34 H6'A       -0.5280   -2.2340    1.7610 h1        1 A6U      0.040200
     35 HN3        -5.9000    1.0970    0.6140 hn        1 A6U      0.327500
@<TRIPOS>BOND
     1    1   18 1   
     2    1   20 1   
     3    1   21 1   
     4    1   22 1   
     5    2    3 1   
     6    2    9 1   
     7    2   10 1   
     8    3    4 2   
     9    3    5 1   
    10    5    6 1   
    11    5   35 1   
    12    6    7 2   
    13    6    8 1   
    14    8    9 2   
    15    8   23 1   
    16    9   24 1   
    17   10   11 1   
    18   10   19 1   
    19   10   25 1   
    20   11   12 1   
    21   11   13 1   
    22   11   26 1   
    23   12   27 1   
    24   13   14 1   
    25   13   15 1   
    26   13   28 1   
    27   15   16 1   
    28   15   17 1   
    29   15   30 1   
    30   16   19 1   
    31   17   18 1   
    32   17   31 1   
    33   17   32 1   
    34   19   33 1   
    35   19   34 1   
    36   20   29 1   
@<TRIPOS>SUBSTRUCTURE
     1 A6U         1 TEMP              0 ****  ****    0 ROOT
