@<TRIPOS>MOLECULE
A6U
   35    35     1     0     0
SMALL
bcc


@<TRIPOS>ATOM
      1 P          -4.4980   -1.7580   -1.6260 p4        1 A6U      1.714200
      2 N1          1.5260    1.2280    0.4880 n         1 A6U     -0.330000
      3 C2          0.6720    2.3570    0.0350 c         1 A6U      0.795500
      4 O2          0.0090    2.2560   -1.0290 o         1 A6U     -0.676500
      5 N3          0.5680    3.5720    0.8520 n         1 A6U     -0.597500
      6 C4          1.2580    3.6590    2.0950 c         1 A6U      0.721700
      7 O4          1.1480    4.6370    2.7700 o         1 A6U     -0.685500
      8 C5          2.0860    2.5310    2.5620 cc        1 A6U     -0.393200
      9 C6          2.2120    1.3120    1.7300 cd        1 A6U      0.105600
     10 C1'         1.8150    0.0360   -0.4830 c3        1 A6U      0.052700
     11 C2'         1.5000   -1.1720    0.1780 c3        1 A6U      0.055100
     12 O2'         2.0170   -2.3230   -0.6530 oh        1 A6U     -0.656800
     13 C3'         0.0710   -1.3580    0.3990 c3        1 A6U      0.273100
     14 O3'        -0.1380   -2.6710    0.9800 oh        1 A6U     -0.977800
     15 C4'        -0.8140   -1.2480   -0.9180 c3        1 A6U      0.039100
     16 O4'        -0.3480    0.1170   -1.5350 os        1 A6U     -0.431600
     17 C5'        -2.1190   -1.2210   -0.6140 c3        1 A6U      0.204400
     18 O5'        -2.8910   -1.6350   -1.7700 os        1 A6U     -0.587200
     19 C6'         1.0860    0.2550   -1.6880 c3        1 A6U      0.133400
     20 OP1        -4.8490   -2.2490   -0.2240 o         1 A6U     -0.685000
     21 OP2        -5.0270   -2.7450   -2.6570 os        1 A6U     -1.150000
     22 OP3        -5.1320   -0.4010   -1.8590 o         1 A6U     -0.733800
     23 H5          2.5730    2.5930    3.4440 ha        1 A6U      0.168000
     24 H6          2.8000    0.5750    2.0210 h4        1 A6U      0.233000
     25 H1'         2.7490    0.0300   -0.6910 h1        1 A6U      0.083700
     26 H2'         1.9440   -1.1820    1.0240 h1        1 A6U      0.011700
     27 HO2'        2.6310   -2.7510   -0.2040 ho        1 A6U      0.445000
     28 H3'        -0.2400   -0.6740    1.0450 h1        1 A6U     -0.086300
     29 HO3'       -0.0460   -2.6220    1.9000 ho        1 A6U      0.434000
     30 H4'        -0.6040   -2.0310   -1.5650 h1        1 A6U      0.048700
     31 H5'        -2.3850   -0.2830   -0.3480 h1        1 A6U      0.031700
     32 H5'A       -2.2920   -1.8360    0.1330 h1        1 A6U      0.031700
     33 H6'         1.3960   -0.3960   -2.3660 h1        1 A6U      0.040200
     34 H6'A        1.2770    1.1430   -2.0060 h1        1 A6U      0.040200
     35 HN3         0.0490    4.2550    0.5780 hn        1 A6U      0.327500
@<TRIPOS>BOND
     1    1   18 1   
     2    1   20 1   
     3    1   22 2   
     4    2    3 1   
     5    2    9 1   
     6    2   10 1   
     7    3    4 2   
     8    3    5 1   
     9    5    6 1   
    10    5   35 1   
    11    6    7 2   
    12    6    8 1   
    13    8    9 2   
    14    8   23 1   
    15    9   24 1   
    16   10   11 1   
    17   10   19 1   
    18   10   25 1   
    19   11   12 1   
    20   11   13 1   
    21   11   26 1   
    22   12   27 1   
    23   13   14 1   
    24   13   15 1   
    25   13   28 1   
    26   14   29 1   
    27   15   16 1   
    28   15   17 1   
    29   15   30 1   
    30   16   19 1   
    31   17   18 1   
    32   17   31 1   
    33   17   32 1   
    34   19   33 1   
    35   19   34 1   
@<TRIPOS>SUBSTRUCTURE
     1 A6U         1 TEMP              0 ****  ****    0 ROOT
