@<TRIPOS>MOLECULE
A6V
   52    53     1     0     0
SMALL
bcc


@<TRIPOS>ATOM
      1 O1          0.1160   -0.2570    0.1050 oh        1 A6V     -0.628800
      2 C9          1.5230   -0.0780   -0.0150 c3        1 A6V      0.208400
      3 C10         2.0670   -0.0460    1.4220 c3        1 A6V     -0.113400
      4 C11         1.6440   -1.3230    2.1340 c3        1 A6V      0.098800
      5 N           1.9420   -1.2880    3.5970 nz        1 A6V     -0.838600
      6 C8          1.9030    1.1820   -0.7310 ca        1 A6V     -0.129300
      7 C7          1.1140    2.3320   -0.6100 ca        1 A6V     -0.166000
      8 C6          1.4750    3.4950   -1.2870 ca        1 A6V     -0.081000
      9 C5          2.6200    3.5300   -2.0820 ca        1 A6V     -0.186000
     10 C12         3.0490    1.1940   -1.5220 ca        1 A6V     -0.151000
     11 C4          3.4100    2.3780   -2.1980 ca        1 A6V      0.145100
     12 O           4.5640    2.2790   -2.9370 os        1 A6V     -0.317900
     13 C3          4.9320    3.4480   -3.6950 c3        1 A6V      0.169600
     14 C2          6.1690    3.1230   -4.4730 c2        1 A6V     -0.133400
     15 C13         6.0620    2.0270   -5.5000 c3        1 A6V     -0.001800
     16 C14         6.2210    0.6700   -4.8180 c3        1 A6V     -0.085600
     17 C15         4.7090    2.0580   -6.2050 c3        1 A6V     -0.085600
     18 C16         7.1450    2.1910   -6.5730 c3        1 A6V     -0.072400
     19 C17         8.5130    2.4010   -5.9700 c3        1 A6V     -0.077400
     20 C18         8.5390    3.6300   -5.0890 c3        1 A6V     -0.046200
     21 C1          7.3080    3.8200   -4.2710 c2        1 A6V     -0.072400
     22 C           7.4350    4.8860   -3.2420 c3        1 A6V     -0.071900
     23 H1         -0.2930    0.0670   -0.7090 ho        1 A6V      0.443000
     24 H2          1.9440   -0.9750   -0.5570 h1        1 A6V      0.058700
     25 H3          1.6490    0.8590    1.9370 hc        1 A6V      0.079700
     26 H4          3.1830    0.0460    1.3800 hc        1 A6V      0.079700
     27 H5          0.5280   -1.4720    2.0100 hx        1 A6V      0.124200
     28 H6          2.1800   -2.2120    1.6940 hx        1 A6V      0.124200
     29 H7          1.4430   -0.5070    4.0360 hn        1 A6V      0.459133
     30 H8          2.9460   -1.1600    3.7520 hn        1 A6V      0.459133
     31 H10         0.2090    2.3120    0.0140 ha        1 A6V      0.138000
     32 H11         0.8490    4.3970   -1.1970 ha        1 A6V      0.147000
     33 H12         2.8870    4.4570   -2.6110 ha        1 A6V      0.154000
     34 H13         3.6780    0.3000   -1.6430 ha        1 A6V      0.150000
     35 H14         4.0900    3.7150   -4.3920 h1        1 A6V      0.048200
     36 H15         5.0920    4.2950   -2.9740 h1        1 A6V      0.048200
     37 H16         7.1940    0.6160   -4.2740 hc        1 A6V      0.037200
     38 H17         5.3960    0.5080   -4.0830 hc        1 A6V      0.037200
     39 H18         6.1880   -0.1440   -5.5810 hc        1 A6V      0.037200
     40 H19         3.8910    1.7900   -5.4920 hc        1 A6V      0.037200
     41 H20         4.7030    1.3170   -7.0400 hc        1 A6V      0.037200
     42 H21         4.5070    3.0710   -6.6270 hc        1 A6V      0.037200
     43 H22         7.1540    1.2790   -7.2250 hc        1 A6V      0.047200
     44 H23         6.8850    3.0690   -7.2220 hc        1 A6V      0.047200
     45 H24         8.8060    1.4980   -5.3710 hc        1 A6V      0.046700
     46 H25         9.2720    2.5140   -6.7880 hc        1 A6V      0.046700
     47 H26         8.6680    4.5470   -5.7280 hc        1 A6V      0.055200
     48 H27         9.4310    3.5750   -4.4070 hc        1 A6V      0.055200
     49 H28         7.1910    4.4860   -2.2260 hc        1 A6V      0.046700
     50 H29         6.7420    5.7350   -3.4670 hc        1 A6V      0.046700
     51 H30         8.4750    5.2940   -3.2100 hc        1 A6V      0.046700
     52 HN3         1.6430   -2.1640    4.0370 hn        1 A6V      0.459133
@<TRIPOS>BOND
     1    1    2 1   
     2    1   23 1   
     3    2    3 1   
     4    2    6 1   
     5    2   24 1   
     6    3    4 1   
     7    3   25 1   
     8    3   26 1   
     9    4    5 1   
    10    4   27 1   
    11    4   28 1   
    12    5   29 1   
    13    5   30 1   
    14    5   52 1   
    15    6    7 ar  
    16    6   10 ar  
    17    7    8 ar  
    18    7   31 1   
    19    8    9 ar  
    20    8   32 1   
    21    9   11 ar  
    22    9   33 1   
    23   10   11 ar  
    24   10   34 1   
    25   11   12 1   
    26   12   13 1   
    27   13   14 1   
    28   13   35 1   
    29   13   36 1   
    30   14   15 1   
    31   14   21 2   
    32   15   16 1   
    33   15   17 1   
    34   15   18 1   
    35   16   37 1   
    36   16   38 1   
    37   16   39 1   
    38   17   40 1   
    39   17   41 1   
    40   17   42 1   
    41   18   19 1   
    42   18   43 1   
    43   18   44 1   
    44   19   20 1   
    45   19   45 1   
    46   19   46 1   
    47   20   21 1   
    48   20   47 1   
    49   20   48 1   
    50   21   22 1   
    51   22   49 1   
    52   22   50 1   
    53   22   51 1   
@<TRIPOS>SUBSTRUCTURE
     1 A6V         1 TEMP              0 ****  ****    0 ROOT
