@<TRIPOS>MOLECULE
A6V
   52    53     1     0     0
SMALL
bcc


@<TRIPOS>ATOM
      1 O1          0.1180   -0.2500    0.1160 oh        1 A6V     -0.628800
      2 C9          1.5250   -0.0710   -0.0070 c3        1 A6V      0.208400
      3 C10         2.0710   -0.0340    1.4290 c3        1 A6V     -0.113400
      4 C11         1.6490   -1.3080    2.1460 c3        1 A6V      0.098800
      5 N           1.9500   -1.2690    3.6080 n4        1 A6V     -0.838600
      6 C8          1.9040    1.1870   -0.7280 ca        1 A6V     -0.129300
      7 C7          1.1150    2.3370   -0.6100 ca        1 A6V     -0.166000
      8 C6          1.4740    3.4970   -1.2910 ca        1 A6V     -0.081000
      9 C5          2.6180    3.5310   -2.0870 ca        1 A6V     -0.186000
     10 C12         3.0490    1.1960   -1.5210 ca        1 A6V     -0.151000
     11 C4          3.4080    2.3780   -2.2000 ca        1 A6V      0.145100
     12 O           4.5610    2.2770   -2.9400 os        1 A6V     -0.317900
     13 C3          4.9290    3.4440   -3.7020 c3        1 A6V      0.169600
     14 C2          6.1670    3.1170   -4.4790 c2        1 A6V     -0.133400
     15 C13         6.0580    2.0220   -5.5070 c3        1 A6V     -0.001800
     16 C14         6.2130    0.6640   -4.8250 c3        1 A6V     -0.085600
     17 C15         4.7060    2.0570   -6.2140 c3        1 A6V     -0.085600
     18 C16         7.1430    2.1840   -6.5780 c3        1 A6V     -0.072400
     19 C17         8.5110    2.3890   -5.9720 c3        1 A6V     -0.077400
     20 C18         8.5390    3.6180   -5.0910 c3        1 A6V     -0.046200
     21 C1          7.3070    3.8110   -4.2740 c2        1 A6V     -0.072400
     22 C           7.4350    4.8750   -3.2440 c3        1 A6V     -0.071900
     23 H1         -0.2920    0.0710   -0.6990 ho        1 A6V      0.443000
     24 H2          1.9440   -0.9690   -0.5470 h1        1 A6V      0.058700
     25 H3          3.1870    0.0570    1.3840 hc        1 A6V      0.079700
     26 H4          1.6550    0.8730    1.9410 hc        1 A6V      0.079700
     27 H5          0.5330   -1.4570    2.0250 hx        1 A6V      0.124200
     28 H6          2.1840   -2.2000    1.7080 hx        1 A6V      0.124200
     29 H7          1.6520   -2.1430    4.0510 hn        1 A6V      0.459133
     30 H8          2.9560   -1.1410    3.7600 hn        1 A6V      0.459133
     31 H10         0.2100    2.3190    0.0160 ha        1 A6V      0.138000
     32 H11         0.8490    4.4000   -1.2030 ha        1 A6V      0.147000
     33 H12         2.8850    4.4560   -2.6190 ha        1 A6V      0.154000
     34 H13         3.6770    0.3020   -1.6390 ha        1 A6V      0.150000
     35 H14         5.0890    4.2930   -2.9830 h1        1 A6V      0.048200
     36 H15         4.0880    3.7090   -4.3990 h1        1 A6V      0.048200
     37 H16         7.1840    0.6070   -4.2800 hc        1 A6V      0.037200
     38 H17         5.3860    0.5050   -4.0910 hc        1 A6V      0.037200
     39 H18         6.1770   -0.1500   -5.5890 hc        1 A6V      0.037200
     40 H19         4.5080    3.0710   -6.6350 hc        1 A6V      0.037200
     41 H20         4.7000    1.3170   -7.0510 hc        1 A6V      0.037200
     42 H21         3.8870    1.7900   -5.5040 hc        1 A6V      0.037200
     43 H22         6.8870    3.0620   -7.2270 hc        1 A6V      0.047200
     44 H23         7.1520    1.2720   -7.2300 hc        1 A6V      0.047200
     45 H24         9.2710    2.5010   -6.7890 hc        1 A6V      0.046700
     46 H25         8.8000    1.4860   -5.3730 hc        1 A6V      0.046700
     47 H26         8.6710    4.5360   -5.7290 hc        1 A6V      0.055200
     48 H27         9.4300    3.5620   -4.4080 hc        1 A6V      0.055200
     49 H28         7.1880    4.4750   -2.2290 hc        1 A6V      0.046367
     50 H29         6.7460    5.7270   -3.4700 hc        1 A6V      0.046367
     51 H30         8.4770    5.2800   -3.2100 hc        1 A6V      0.046367
     52 HN3         1.4530   -0.4860    4.0450 hn        1 A6V      0.459133
@<TRIPOS>BOND
     1    1    2 1   
     2    1   23 1   
     3    2    3 1   
     4    2    6 1   
     5    2   24 1   
     6    3    4 1   
     7    3   25 1   
     8    3   26 1   
     9    4    5 1   
    10    4   27 1   
    11    4   28 1   
    12    5   29 1   
    13    5   30 1   
    14    5   52 1   
    15    6    7 ar  
    16    6   10 ar  
    17    7    8 ar  
    18    7   31 1   
    19    8    9 ar  
    20    8   32 1   
    21    9   11 ar  
    22    9   33 1   
    23   10   11 ar  
    24   10   34 1   
    25   11   12 1   
    26   12   13 1   
    27   13   14 1   
    28   13   35 1   
    29   13   36 1   
    30   14   15 1   
    31   14   21 2   
    32   15   16 1   
    33   15   17 1   
    34   15   18 1   
    35   16   37 1   
    36   16   38 1   
    37   16   39 1   
    38   17   40 1   
    39   17   41 1   
    40   17   42 1   
    41   18   19 1   
    42   18   43 1   
    43   18   44 1   
    44   19   20 1   
    45   19   45 1   
    46   19   46 1   
    47   20   21 1   
    48   20   47 1   
    49   20   48 1   
    50   21   22 1   
    51   22   49 1   
    52   22   50 1   
    53   22   51 1   
@<TRIPOS>SUBSTRUCTURE
     1 A6V         1 TEMP              0 ****  ****    0 ROOT
