@<TRIPOS>MOLECULE
A73
   27    22     1     0     0
SMALL
bcc


@<TRIPOS>ATOM
      1 CAB         0.2990   -0.0110   -1.6210 c1        1 A73     -0.293000
      2 CAD         1.7440    0.0080   -1.6380 c1        1 A73      0.311000
      3 OAH         2.3410   -0.1010   -2.6900 o         1 A73     -0.303000
      4 CAE         2.5070    0.0460   -0.3410 c1        1 A73     -0.194000
      5 CAO         3.9040    0.0160   -0.3490 c1        1 A73     -0.111750
      6 CAQ         4.6080   -0.0080    0.8550 c1        1 A73     -0.111750
      7 CAR         3.9140   -0.0020    2.0760 c1        1 A73     -0.111750
      8 CAP         2.5190    0.0280    2.0860 c1        1 A73     -0.111750
      9 CAF         1.8110    0.0520    0.8810 c1        1 A73      0.097000
     10 OAC         0.3190    0.1370    0.8930 os        1 A73     -0.136000
     11 CAA        -0.4170    0.0150   -0.3320 c2        1 A73      0.135000
     12 CAG        -1.9300    0.0040   -0.3080 c2        1 A73     -0.052000
     13 CAI        -2.6130   -1.1980   -0.2070 c2        1 A73     -0.089000
     14 CAM        -3.9980   -1.2070   -0.1660 c1        1 A73     -0.111000
     15 CAK        -4.7010   -0.0140   -0.2250 c1        1 A73     -0.150000
     16 BR1        -6.6130   -0.0290   -0.2060 br        1 A73      0.064000
     17 CAL        -4.0180    1.1880   -0.3260 c1        1 A73     -0.110000
     18 CAJ        -2.6330    1.1970   -0.3670 c1        1 A73     -0.099000
     19 H1         -0.1990   -0.0940   -2.4560 ha        1 A73      0.169000
     20 H2          4.3870    0.0120   -1.1970 ha        1 A73      0.149500
     21 H3          5.5840   -0.0300    0.8500 ha        1 A73      0.149500
     22 H4          4.4070   -0.0190    2.9180 ha        1 A73      0.149500
     23 H5          2.0370    0.0320    2.9350 ha        1 A73      0.149500
     24 H6         -2.1180   -2.0380   -0.1650 ha        1 A73      0.154000
     25 H7         -4.4790   -2.0540   -0.0950 ha        1 A73      0.153000
     26 H8         -4.5130    2.0280   -0.3680 ha        1 A73      0.153000
     27 H9         -2.1520    2.0440   -0.4380 ha        1 A73      0.148000
@<TRIPOS>BOND
     1    1   11 1   
     2    1   19 1   
     3    2    3 1   
     4    4    9 1   
     5    5    6 1   
     6    5   20 1   
     7    6   21 1   
     8    7    8 1   
     9    7   22 1   
    10    8   23 1   
    11    9   10 1   
    12   10   11 1   
    13   11   12 1   
    14   12   13 1   
    15   12   18 1   
    16   13   14 1   
    17   13   24 1   
    18   14   25 1   
    19   15   16 1   
    20   15   17 1   
    21   17   26 1   
    22   18   27 1   
@<TRIPOS>SUBSTRUCTURE
     1 A73         1 TEMP              0 ****  ****    0 ROOT
