@<TRIPOS>MOLECULE
A73
   27    29     1     0     0
SMALL
bcc


@<TRIPOS>ATOM
      1 CAB         0.0590    0.2750   -0.0740 cc        1 A73     -0.312200
      2 CAD         1.5220    0.3020   -0.0660 c         1 A73      0.589900
      3 OAH         2.1940    0.4800   -1.0910 o         1 A73     -0.542100
      4 CAE         2.1170    0.1010    1.2640 ca        1 A73     -0.214600
      5 CAO         3.5080    0.1020    1.4530 ca        1 A73     -0.046000
      6 CAQ         4.0430   -0.0910    2.7200 ca        1 A73     -0.165000
      7 CAR         3.2000   -0.2890    3.8200 ca        1 A73     -0.077000
      8 CAP         1.8200   -0.2960    3.6650 ca        1 A73     -0.159000
      9 CAF         1.2870   -0.0990    2.3780 ca        1 A73      0.142100
     10 OAC        -0.0980   -0.1200    2.3040 os        1 A73     -0.225200
     11 CAA        -0.6640    0.0710    1.0510 cd        1 A73      0.190900
     12 CAG        -2.1270    0.0320    1.1170 ca        1 A73     -0.063800
     13 CAI        -2.8670   -0.3830    0.0020 ca        1 A73     -0.094000
     14 CAM        -4.2590   -0.4040    0.0530 ca        1 A73     -0.110500
     15 CAK        -4.9240   -0.0150    1.2200 ca        1 A73     -0.009900
     16 BR1        -6.7940   -0.0430    1.2860 br        1 A73     -0.076100
     17 CAL        -4.1890    0.3920    2.3370 ca        1 A73     -0.110500
     18 CAJ        -2.7980    0.4140    2.2870 ca        1 A73     -0.094000
     19 H1         -0.4320    0.4390   -1.0440 ha        1 A73      0.169000
     20 H2          4.1570    0.2600    0.5760 ha        1 A73      0.161000
     21 H3          5.1340   -0.0880    2.8620 ha        1 A73      0.142000
     22 H4          3.6350   -0.4420    4.8200 ha        1 A73      0.141000
     23 H5          1.1450   -0.4520    4.5170 ha        1 A73      0.154000
     24 H6         -2.3510   -0.6990   -0.9190 ha        1 A73      0.151000
     25 H7         -4.8270   -0.7310   -0.8320 ha        1 A73      0.153000
     26 H8         -4.7030    0.6970    3.2630 ha        1 A73      0.153000
     27 H9         -2.2190    0.7300    3.1700 ha        1 A73      0.151000
@<TRIPOS>BOND
     1    1    2 1   
     2    1   11 2   
     3    1   19 1   
     4    2    3 2   
     5    2    4 1   
     6    4    5 ar  
     7    4    9 ar  
     8    5    6 ar  
     9    5   20 1   
    10    6    7 ar  
    11    6   21 1   
    12    7    8 ar  
    13    7   22 1   
    14    8    9 ar  
    15    8   23 1   
    16    9   10 1   
    17   10   11 1   
    18   11   12 1   
    19   12   13 ar  
    20   12   18 ar  
    21   13   14 ar  
    22   13   24 1   
    23   14   15 ar  
    24   14   25 1   
    25   15   16 1   
    26   15   17 ar  
    27   17   18 ar  
    28   17   26 1   
    29   18   27 1   
@<TRIPOS>SUBSTRUCTURE
     1 A73         1 TEMP              0 ****  ****    0 ROOT
