@<TRIPOS>MOLECULE
A73
   27    29     1     0     0
SMALL
bcc


@<TRIPOS>ATOM
      1 CAB        -1.8000    1.5850   -0.2820 cc        1 A73     -0.312200
      2 CAD        -3.2570    1.7030   -0.3150 c         1 A73      0.589900
      3 OAH        -3.8380    2.7810   -0.5020 o         1 A73     -0.542100
      4 CAE        -3.9650    0.4310   -0.1060 ca        1 A73     -0.214600
      5 CAO        -5.3670    0.3630   -0.1120 ca        1 A73     -0.046000
      6 CAQ        -6.0110   -0.8520    0.0870 ca        1 A73     -0.165000
      7 CAR        -5.2670   -2.0190    0.2970 ca        1 A73     -0.077000
      8 CAP        -3.8790   -1.9840    0.3080 ca        1 A73     -0.159000
      9 CAF        -3.2350   -0.7490    0.1040 ca        1 A73      0.142100
     10 OAC        -1.8500   -0.7940    0.1300 os        1 A73     -0.225200
     11 CAA        -1.1760    0.4040   -0.0670 cd        1 A73      0.190900
     12 CAG         0.2750    0.2110   -0.0220 ca        1 A73     -0.063800
     13 CAI         1.1070    1.2620    0.3880 ca        1 A73     -0.094000
     14 CAM         2.4890    1.0910    0.4150 ca        1 A73     -0.110500
     15 CAK         3.0530   -0.1320    0.0370 ca        1 A73     -0.009900
     16 BR1         4.9100   -0.3590    0.0730 br        1 A73     -0.076100
     17 CAL         2.2260   -1.1850   -0.3650 ca        1 A73     -0.110500
     18 CAJ         0.8440   -1.0150   -0.3930 ca        1 A73     -0.094000
     19 H1         -1.2260    2.5080   -0.4510 ha        1 A73      0.169000
     20 H2         -5.9380    1.2920   -0.2780 ha        1 A73      0.161000
     21 H3         -7.1100   -0.8990    0.0820 ha        1 A73      0.142000
     22 H4         -5.7860   -2.9770    0.4550 ha        1 A73      0.141000
     23 H5         -3.2800   -2.8900    0.4720 ha        1 A73      0.154000
     24 H6          0.6710    2.2250    0.6960 ha        1 A73      0.151000
     25 H7          3.1310    1.9260    0.7380 ha        1 A73      0.153000
     26 H8          2.6580   -2.1530   -0.6630 ha        1 A73      0.153000
     27 H9          0.1920   -1.8460   -0.7060 ha        1 A73      0.151000
@<TRIPOS>BOND
     1    1    2 1   
     2    1   11 2   
     3    1   19 1   
     4    2    3 2   
     5    2    4 1   
     6    4    5 ar  
     7    4    9 ar  
     8    5    6 ar  
     9    5   20 1   
    10    6    7 ar  
    11    6   21 1   
    12    7    8 ar  
    13    7   22 1   
    14    8    9 ar  
    15    8   23 1   
    16    9   10 1   
    17   10   11 1   
    18   11   12 1   
    19   12   13 ar  
    20   12   18 ar  
    21   13   14 ar  
    22   13   24 1   
    23   14   15 ar  
    24   14   25 1   
    25   15   16 1   
    26   15   17 ar  
    27   17   18 ar  
    28   17   26 1   
    29   18   27 1   
@<TRIPOS>SUBSTRUCTURE
     1 A73         1 TEMP              0 ****  ****    0 ROOT
