@<TRIPOS>MOLECULE
A74
   46    49     1     0     0
SMALL
bcc


@<TRIPOS>ATOM
      1 C           4.1020   -1.1980   -2.2420 ca        1 A74     -0.145000
      2 C1          4.9510   -0.1180   -2.0190 ca        1 A74     -0.050000
      3 C2          5.0290    0.4440   -0.7400 ca        1 A74     -0.011600
      4 C3          4.2670   -0.0780    0.3060 ca        1 A74      0.002000
      5 C4          3.4180   -1.1770    0.1040 ca        1 A74     -0.367500
      6 C5          3.3400   -1.7150   -1.1900 ca        1 A74      0.130400
      7 S           2.5900   -1.7700    1.4560 sy        1 A74      1.524200
      8 O1          2.8040   -3.1490    1.6030 o         1 A74     -0.623800
      9 O2          2.9030   -0.9800    2.5660 o         1 A74     -0.623800
     10 N           1.0000   -1.5980    1.0240 nh        1 A74     -0.795100
     11 C6          0.3470   -0.4060    0.7970 cc        1 A74      0.768500
     12 N1          0.8240    0.8530    0.7790 nd        1 A74     -0.604100
     13 C7         -0.3030    1.6580    0.4990 ca        1 A74      0.125400
     14 C8         -0.4270    3.0420    0.3670 ca        1 A74     -0.161000
     15 C9         -1.7070    3.5340    0.0860 ca        1 A74      0.127100
     16 C10        -2.8350    2.6970   -0.0620 ca        1 A74     -0.148000
     17 C11        -2.7360    1.3070    0.0730 cp        1 A74      0.043000
     18 C12        -1.4580    0.8200    0.3460 ca        1 A74     -0.007900
     19 O3         -1.0570   -0.5110    0.5310 os        1 A74     -0.316700
     20 CL2         6.0530    1.7670   -0.4610 cl        1 A74     -0.067400
     21 CL1         2.2990   -3.0160   -1.5210 cl        1 A74     -0.063400
     22 O4         -1.9900    4.8770   -0.0780 os        1 A74     -0.326900
     23 C13        -0.8970    5.7750    0.0790 c3        1 A74      0.111700
     24 C14        -6.2730    0.0430    0.1420 ca        1 A74     -0.264300
     25 C15        -6.0380   -1.2520   -0.3960 ca        1 A74      0.632600
     26 N2         -4.8080   -1.7060   -0.7560 nb        1 A74     -0.730000
     27 C16        -3.7780   -0.8610   -0.5850 ca        1 A74      0.456200
     28 C17        -3.8990    0.4480   -0.0690 cp        1 A74     -0.197300
     29 C18        -5.1840    0.8870    0.3000 ca        1 A74     -0.049000
     30 C19        -7.0030   -3.3490   -1.0530 c3        1 A74      0.124700
     31 H           4.0320   -1.6420   -3.2480 ha        1 A74      0.162000
     32 H1          5.5530    0.2900   -2.8470 ha        1 A74      0.159000
     33 H3          4.3260    0.3810    1.3140 ha        1 A74      0.190000
     34 HN          0.4130   -2.4000    0.9100 hn        1 A74      0.481800
     35 H8          0.4460    3.6970    0.4850 ha        1 A74      0.162000
     36 H10        -3.8050    3.1630   -0.2940 ha        1 A74      0.158000
     37 H131       -1.3630    6.7800   -0.0850 h1        1 A74      0.047700
     38 H132       -0.4700    5.7010    1.1090 h1        1 A74      0.047700
     39 H133       -0.1100    5.5760   -0.6880 h1        1 A74      0.047700
     40 H14        -7.2920    0.3410    0.4180 ha        1 A74      0.161000
     41 H16        -2.7880   -1.2580   -0.8790 h4        1 A74      0.034100
     42 H18        -5.3250    1.8950    0.7220 ha        1 A74      0.146000
     43 H191       -6.5940   -3.3110   -2.0900 h1        1 A74      0.051033
     44 H192       -6.3410   -3.9570   -0.3910 h1        1 A74      0.051033
     45 H193       -8.0490   -3.7500   -1.0500 h1        1 A74      0.051033
     46 O5         -7.1670   -2.0310   -0.5280 os        1 A74     -0.445100
@<TRIPOS>BOND
     1    1    2 ar  
     2    1    6 ar  
     3    1   31 1   
     4    2    3 ar  
     5    2   32 1   
     6    3    4 ar  
     7    3   20 1   
     8    4    5 ar  
     9    4   33 1   
    10    5    6 ar  
    11    5    7 1   
    12    6   21 1   
    13    7    8 2   
    14    7    9 2   
    15    7   10 1   
    16   10   11 1   
    17   10   34 1   
    18   11   12 2   
    19   11   19 1   
    20   12   13 1   
    21   13   14 ar  
    22   13   18 ar  
    23   14   15 ar  
    24   14   35 1   
    25   15   16 ar  
    26   15   22 1   
    27   16   17 ar  
    28   16   36 1   
    29   17   18 ar  
    30   17   28 1   
    31   18   19 1   
    32   22   23 1   
    33   23   37 1   
    34   23   38 1   
    35   23   39 1   
    36   24   25 ar  
    37   24   29 ar  
    38   24   40 1   
    39   25   26 ar  
    40   25   46 1   
    41   26   27 ar  
    42   27   28 ar  
    43   27   41 1   
    44   28   29 ar  
    45   29   42 1   
    46   30   43 1   
    47   30   44 1   
    48   30   45 1   
    49   30   46 1   
@<TRIPOS>SUBSTRUCTURE
     1 A74         1 TEMP              0 ****  ****    0 ROOT
