@<TRIPOS>MOLECULE
A74
   47    47     1     0     0
SMALL
bcc


@<TRIPOS>ATOM
      1 C           0.7700    0.3930   -1.0670 c3        1 A74     -0.002000
      2 C1          1.5710   -0.6850   -0.5810 c1        1 A74     -0.219000
      3 C2          2.2750   -1.5960   -0.2500 c1        1 A74     -0.134000
      4 C3         -0.4050   -0.0220    2.3850 c2        1 A74     -1.030000
      5 C4         -0.2750    0.4780    1.1740 c1        1 A74      0.103000
      6 C5         -0.1980    0.9280   -0.0560 c2        1 A74     -0.008000
      7 S           0.3440    0.3600    3.7030 s4        1 A74      2.090800
      8 O1          0.1710   -0.4820    4.7520 o         1 A74     -0.411400
      9 O2          1.2880    1.3250    3.6700 o         1 A74     -0.411400
     10 N          -1.4710    1.7460    4.4910 n3        1 A74     -0.364000
     11 C6         -1.0300    3.0650    4.7920 c2        1 A74      0.062000
     12 N1         -0.1800    3.4960    5.6960 n2        1 A74     -0.123000
     13 C7         -0.1160    4.9590    5.5550 c3        1 A74     -0.023000
     14 C8          1.2180    5.6330    5.4640 c2        1 A74     -0.168000
     15 C9          1.0620    7.0820    5.0360 c3        1 A74      0.029000
     16 C10         0.2240    7.2600    3.8390 c1        1 A74     -0.060000
     17 C11        -0.8810    6.4140    3.5830 c2        1 A74     -0.151000
     18 C12        -0.9420    5.2520    4.2950 c2        1 A74      0.107000
     19 O3         -1.5850    4.0800    3.9270 os        1 A74     -0.151000
     20 CL2         3.2080   -2.8050    0.1910 cl        1 A74      0.216000
     21 CL1        -1.1960    2.1950   -0.5420 cl        1 A74      0.149000
     22 O4          2.3450    7.6680    4.8850 oh        1 A74     -0.310000
     23 C13         2.3880    5.0750    5.7710 c2        1 A74     -0.124000
     24 C14        -3.0240    8.5560    3.6650 c1        1 A74     -0.234000
     25 C15        -3.1750    7.3030    2.9630 c3        1 A74      0.155000
     26 N2         -2.1460    4.7480    0.8470 n1        1 A74     -0.089000
     27 C16        -2.0040    5.6540    1.5620 c1        1 A74     -0.102000
     28 C17        -1.8060    6.7760    2.4650 c3        1 A74      0.049000
     29 C18        -2.9090    9.6090    4.2210 c1        1 A74     -0.137000
     30 C19        -5.0950    6.5520    4.1520 c3        1 A74     -0.076000
     31 H           1.4370    1.2430   -1.4050 hc        1 A74      0.162000
     32 H1          0.1790    0.0500   -1.9710 hc        1 A74      0.162000
     33 H3         -1.1440   -0.8700    2.4510 h4        1 A74      0.245000
     34 HN         -2.2240    1.7960    3.8170 hn        1 A74      0.235000
     35 H8         -0.6560    5.3960    6.4570 h1        1 A74      0.176000
     36 H10         0.5660    7.6480    5.8920 h1        1 A74      0.142000
     37 H131        2.4050    8.0190    3.9840 ho        1 A74      0.233000
     38 H132        3.3230    5.6550    5.7090 ha        1 A74      0.144500
     39 H133        2.4920    4.0340    6.1030 ha        1 A74      0.144500
     40 H14        -2.8080   10.5480    4.7080 ha        1 A74      0.235000
     41 H16        -3.8450    7.4640    2.0640 h1        1 A74      0.112000
     42 H18        -1.3270    7.6230    1.8790 hc        1 A74      0.174000
     43 H191       -5.7450    6.5900    3.2430 h1        1 A74      0.084333
     44 H192       -5.1640    7.5140    4.7170 h1        1 A74      0.084333
     45 H193       -5.3800    5.6890    4.8040 h1        1 A74      0.084333
     46 HN3        -1.8000    1.2940    5.3360 hn        1 A74      0.235000
     47 O5         -3.7490    6.2820    3.7870 os        1 A74     -0.287000
@<TRIPOS>BOND
     1    1    2 1   
     2    1    6 1   
     3    1   31 1   
     4    1   32 1   
     5    2    3 1   
     6    3   20 1   
     7    4    5 1   
     8    4    7 1   
     9    4   33 1   
    10    5    6 1   
    11    6   21 1   
    12    7    8 1   
    13    7    9 1   
    14   10   11 1   
    15   10   34 1   
    16   10   46 1   
    17   11   12 1   
    18   11   19 1   
    19   12   13 1   
    20   13   14 1   
    21   13   18 1   
    22   13   35 1   
    23   14   15 1   
    24   14   23 1   
    25   15   16 1   
    26   15   22 1   
    27   15   36 1   
    28   16   17 1   
    29   17   18 1   
    30   17   28 1   
    31   18   19 1   
    32   22   37 1   
    33   23   38 1   
    34   23   39 1   
    35   24   25 1   
    36   24   29 1   
    37   25   28 1   
    38   25   41 1   
    39   25   47 1   
    40   26   27 1   
    41   27   28 1   
    42   28   42 1   
    43   29   40 1   
    44   30   43 1   
    45   30   44 1   
    46   30   45 1   
    47   30   47 1   
@<TRIPOS>SUBSTRUCTURE
     1 A74         1 TEMP              0 ****  ****    0 ROOT
