@<TRIPOS>MOLECULE
A74
   46    37     1     0     0
SMALL
bcc


@<TRIPOS>ATOM
      1 C           4.6290    0.5690   -5.2130 c1        1 A74     -0.097500
      2 C1          4.1540    1.5520   -6.0510 c1        1 A74     -0.097500
      3 C2          3.2640    2.5340   -5.5580 c1        1 A74     -0.026000
      4 C3          2.8690    2.5070   -4.2270 c1        1 A74     -0.015000
      5 C4          3.3440    1.5270   -3.3920 c1        1 A74     -0.812000
      6 C5          4.2390    0.5400   -3.8910 c1        1 A74     -0.026000
      7 S           2.9550    1.5740   -1.6670 s4        1 A74      2.091800
      8 O1          4.0050    1.0610   -0.8980 o         1 A74     -0.506400
      9 O2          2.8870    2.9030   -1.1920 o         1 A74     -0.506400
     10 N           1.5650    0.7750   -1.3750 n2        1 A74     -0.777000
     11 C6          0.7850    1.0930   -0.2030 c2        1 A74      0.189000
     12 N1          0.8020    2.0520    0.7680 n2        1 A74     -0.167000
     13 C7         -0.0240    1.6530    1.7710 c1        1 A74     -0.012000
     14 C8         -0.3800    2.2540    2.9950 c1        1 A74     -0.157000
     15 C9         -1.2660    1.6220    3.8420 c1        1 A74      0.081000
     16 C10        -1.8120    0.3810    3.4870 c1        1 A74     -0.078500
     17 C11        -1.4630   -0.2090    2.2860 c1        1 A74     -0.044500
     18 C12        -0.5580    0.4390    1.4210 c1        1 A74     -0.053000
     19 O3         -0.0560    0.0970    0.2020 o         1 A74     -0.140000
     20 CL2         2.7760    3.8320   -6.5720 cl        1 A74      0.020000
     21 CL1         4.7340   -0.7730   -2.8730 cl        1 A74      0.020000
     22 O4         -1.5940    1.6680    5.2180 os        1 A74     -0.210000
     23 C13        -2.2530    2.8570    5.6070 c3        1 A74     -0.078000
     24 C14        -3.6120   -2.7230    0.7690 c1        1 A74     -0.124500
     25 C15        -2.8710   -3.8800    0.9980 c1        1 A74      0.133000
     26 N2         -1.6940   -3.8100    1.6750 n1        1 A74     -0.205000
     27 C16        -1.2430   -2.6250    2.1240 c1        1 A74     -0.078500
     28 C17        -1.9850   -1.4560    1.8970 c1        1 A74     -0.044500
     29 C18        -3.1530   -1.5190    1.2260 c1        1 A74     -0.124500
     30 O5         -3.3500   -5.1460    0.5270 os        1 A74     -0.204000
     31 C19        -2.7790   -5.5540   -0.7210 c3        1 A74     -0.064000
     32 H           5.2550   -0.1190   -5.5610 ha        1 A74      0.162000
     33 H1          4.4210    1.5700   -6.9510 ha        1 A74      0.162000
     34 H3          2.2290    3.2160   -3.8700 ha        1 A74      0.189000
     35 HN          1.3140    0.0750   -1.9190 hn        1 A74      0.271000
     36 H8          0.0170    3.1570    3.2520 ha        1 A74      0.164000
     37 H10        -2.4260   -0.0560    4.0750 ha        1 A74      0.165000
     38 H131       -3.1100    2.9640    5.0640 h1        1 A74      0.087333
     39 H132       -2.4730    2.8120    6.5600 h1        1 A74      0.087333
     40 H133       -1.6660    3.6230    5.4430 h1        1 A74      0.087333
     41 H14        -4.4600   -2.7720    0.2820 ha        1 A74      0.154000
     42 H16        -0.4120   -2.5800    2.6010 ha        1 A74      0.165000
     43 H18        -3.6530   -0.7340    1.0720 ha        1 A74      0.154000
     44 H191       -3.3690   -6.2350   -1.1510 h1        1 A74      0.089667
     45 H192       -2.6950   -4.7710   -1.3140 h1        1 A74      0.089667
     46 H193       -1.8880   -5.9450   -0.5640 h1        1 A74      0.089667
@<TRIPOS>BOND
     1    1    6 1   
     2    1   32 1   
     3    2    3 1   
     4    2   33 1   
     5    3   20 1   
     6    4    5 1   
     7    4   34 1   
     8    5    7 1   
     9    6   21 1   
    10    7    8 1   
    11    7    9 1   
    12   10   11 1   
    13   10   35 1   
    14   11   12 1   
    15   11   19 1   
    16   12   13 1   
    17   13   18 1   
    18   14   15 1   
    19   14   36 1   
    20   15   22 1   
    21   16   17 1   
    22   16   37 1   
    23   22   23 1   
    24   23   38 1   
    25   23   39 1   
    26   23   40 1   
    27   24   29 1   
    28   24   41 1   
    29   25   26 1   
    30   25   30 1   
    31   27   28 1   
    32   27   42 1   
    33   29   43 1   
    34   30   31 1   
    35   31   44 1   
    36   31   45 1   
    37   31   46 1   
@<TRIPOS>SUBSTRUCTURE
     1 A74         1 TEMP              0 ****  ****    0 ROOT
