@<TRIPOS>MOLECULE
A75
   40    42     1     0     0
SMALL
bcc


@<TRIPOS>ATOM
      1 C1         -0.2510   -0.3610   -0.0250 c3        1 A75     -0.078400
      2 C2          1.2580   -0.2850   -0.1110 c3        1 A75     -0.031100
      3 C3          1.9100   -0.1620    1.2210 ca        1 A75     -0.102300
      4 C4          1.2030    0.2560    2.3560 ca        1 A75      0.011700
      5 C5         -0.2600    0.5390    2.3020 c3        1 A75     -0.052100
      6 C6         -0.7880    0.7130    0.8940 c3        1 A75     -0.075400
      7 C7          3.2720   -0.4620    1.3380 ca        1 A75     -0.074000
      8 C8          3.9400   -0.3570    2.5490 ca        1 A75     -0.193000
      9 C9          3.2510    0.0760    3.7050 ca        1 A75      0.209600
     10 C10         1.8730    0.3860    3.5840 ca        1 A75     -0.226600
     11 C11         1.1100    0.8160    4.7740 c         1 A75      0.640700
     12 O12         1.4910    1.9670    5.4140 oh        1 A75     -0.589100
     13 O13         0.1520    0.2590    5.3070 o         1 A75     -0.477000
     14 N14         3.8950    0.1880    4.9440 nh        1 A75     -0.778500
     15 S15         5.4930    0.3650    5.2770 sy        1 A75      1.520200
     16 C16         5.7420    2.0060    5.0090 ca        1 A75     -0.400500
     17 O17         5.6510    0.0920    6.6500 o         1 A75     -0.643300
     18 O18         6.2880   -0.3680    4.3790 o         1 A75     -0.643300
     19 C19         6.1910    2.4720    3.7660 ca        1 A75     -0.014000
     20 C20         6.4310    3.8270    3.5550 ca        1 A75     -0.156500
     21 C21         6.2250    4.7380    4.5920 ca        1 A75     -0.061000
     22 C22         5.7850    4.2890    5.8380 ca        1 A75     -0.156500
     23 C23         5.5480    2.9330    6.0420 ca        1 A75     -0.014000
     24 H11        -0.6890   -0.2390   -1.0500 hc        1 A75      0.047700
     25 H12A       -0.5590   -1.3700    0.3560 hc        1 A75      0.047700
     26 H21A        1.5520    0.6070   -0.7320 hc        1 A75      0.051700
     27 H22A        1.6470   -1.1980   -0.6380 hc        1 A75      0.051700
     28 H51        -0.7920   -0.3170    2.8060 hc        1 A75      0.069200
     29 H52        -0.4910    1.4600    2.9030 hc        1 A75      0.069200
     30 H61        -1.9090    0.6720    0.9160 hc        1 A75      0.046200
     31 H62        -0.4960    1.7230    0.5020 hc        1 A75      0.046200
     32 H7          3.8270   -0.8030    0.4490 ha        1 A75      0.142000
     33 H8          5.0080   -0.6350    2.5990 ha        1 A75      0.176000
     34 H14         2.1790    2.4160    4.9030 ho        1 A75      0.431000
     35 H19         6.3700    1.7470    2.9520 ha        1 A75      0.156000
     36 H20         6.7860    4.1770    2.5740 ha        1 A75      0.145000
     37 H21         6.4140    5.8110    4.4280 ha        1 A75      0.140000
     38 H22         5.6300    5.0040    6.6600 ha        1 A75      0.145000
     39 H23         5.2200    2.5750    7.0340 ha        1 A75      0.156000
     40 H142        3.2620    0.1480    5.7190 hn        1 A75      0.461800
@<TRIPOS>BOND
     1    1    2 1   
     2    1    6 1   
     3    1   24 1   
     4    1   25 1   
     5    2    3 1   
     6    2   26 1   
     7    2   27 1   
     8    3    4 ar  
     9    3    7 ar  
    10    4    5 1   
    11    4   10 ar  
    12    5    6 1   
    13    5   28 1   
    14    5   29 1   
    15    6   30 1   
    16    6   31 1   
    17    7    8 ar  
    18    7   32 1   
    19    8    9 ar  
    20    8   33 1   
    21    9   10 ar  
    22    9   14 1   
    23   10   11 1   
    24   11   12 1   
    25   11   13 2   
    26   12   34 1   
    27   14   15 1   
    28   14   40 1   
    29   15   16 1   
    30   15   17 2   
    31   15   18 2   
    32   16   19 ar  
    33   16   23 ar  
    34   19   20 ar  
    35   19   35 1   
    36   20   21 ar  
    37   20   36 1   
    38   21   22 ar  
    39   21   37 1   
    40   22   23 ar  
    41   22   38 1   
    42   23   39 1   
@<TRIPOS>SUBSTRUCTURE
     1 A75         1 TEMP              0 ****  ****    0 ROOT
