@<TRIPOS>MOLECULE
A75
   39    41     1     0     0
SMALL
bcc


@<TRIPOS>ATOM
      1 C1         -0.4270   -0.1280    0.2160 c3        1 A75     -0.074400
      2 C2          1.0560   -0.3800    0.0440 c3        1 A75     -0.021100
      3 C3          1.8170   -0.2750    1.3200 ca        1 A75     -0.108300
      4 C4          1.2930    0.3740    2.4490 ca        1 A75     -0.028300
      5 C5         -0.0820    0.9490    2.4390 c3        1 A75     -0.052100
      6 C6         -0.6600    1.1120    1.0500 c3        1 A75     -0.071400
      7 C7          3.1070   -0.8140    1.3690 ca        1 A75     -0.136000
      8 C8          3.8710   -0.7420    2.5250 ca        1 A75     -0.166000
      9 C9          3.3470   -0.1060    3.6700 ca        1 A75      0.150600
     10 C10         2.0570    0.4740    3.6200 ca        1 A75     -0.133600
     11 C11         1.5420    1.2140    4.8480 c         1 A75      0.901200
     12 O12         1.2150    2.4280    4.7310 o         1 A75     -0.826300
     13 O13         1.5270    0.5930    5.9520 o         1 A75     -0.826300
     14 N14         4.0830   -0.0740    4.8730 nh        1 A75     -0.784500
     15 S15         5.6060    0.3820    5.0660 sy        1 A75      1.496200
     16 C16         5.6150    2.0640    4.8200 ca        1 A75     -0.364500
     17 O17         6.0050    0.1240    6.4030 o         1 A75     -0.672800
     18 O18         6.4730   -0.1950    4.0990 o         1 A75     -0.672800
     19 C19         6.7960    2.6430    4.3280 ca        1 A75     -0.014500
     20 C20         6.9020    4.0160    4.1450 ca        1 A75     -0.162000
     21 C21         5.8150    4.8420    4.4450 ca        1 A75     -0.088000
     22 C22         4.6330    4.2840    4.9220 ca        1 A75     -0.162000
     23 C23         4.5340    2.9020    5.1080 ca        1 A75     -0.014500
     24 H11        -0.9050   -1.0110    0.7160 hc        1 A75      0.028700
     25 H12A       -0.9060   -0.0110   -0.7910 hc        1 A75      0.028700
     26 H21A        1.2100   -1.3980   -0.4050 hc        1 A75      0.033200
     27 H22A        1.4760    0.3690   -0.6820 hc        1 A75      0.033200
     28 H51        -0.0640    1.9470    2.9630 hc        1 A75      0.078200
     29 H52        -0.7450    0.2730    3.0450 hc        1 A75      0.078200
     30 H61        -0.1880    1.9950    0.5460 hc        1 A75      0.031200
     31 H62        -1.7600    1.3170    1.1280 hc        1 A75      0.031200
     32 H7          3.5210   -1.3100    0.4790 ha        1 A75      0.112000
     33 H8          4.8860   -1.1730    2.5410 ha        1 A75      0.148000
     34 H14         3.4640   -0.1450    5.6720 hn        1 A75      0.506800
     35 H19         7.6470    1.9870    4.0740 ha        1 A75      0.168500
     36 H20         7.8350    4.4510    3.7600 ha        1 A75      0.134000
     37 H21         5.8940    5.9280    4.2970 ha        1 A75      0.118000
     38 H22         3.7620    4.9180    5.1440 ha        1 A75      0.134000
     39 H23         3.5630    2.4940    5.4630 ha        1 A75      0.168500
@<TRIPOS>BOND
     1    1    2 1   
     2    1    6 1   
     3    1   24 1   
     4    1   25 1   
     5    2    3 1   
     6    2   26 1   
     7    2   27 1   
     8    3    4 ar  
     9    3    7 ar  
    10    4    5 1   
    11    4   10 ar  
    12    5    6 1   
    13    5   28 1   
    14    5   29 1   
    15    6   30 1   
    16    6   31 1   
    17    7    8 ar  
    18    7   32 1   
    19    8    9 ar  
    20    8   33 1   
    21    9   10 ar  
    22    9   14 1   
    23   10   11 1   
    24   11   12 1   
    25   11   13 1   
    26   14   15 1   
    27   14   34 1   
    28   15   16 1   
    29   15   17 2   
    30   15   18 2   
    31   16   19 ar  
    32   16   23 ar  
    33   19   20 ar  
    34   19   35 1   
    35   20   21 ar  
    36   20   36 1   
    37   21   22 ar  
    38   21   37 1   
    39   22   23 ar  
    40   22   38 1   
    41   23   39 1   
@<TRIPOS>SUBSTRUCTURE
     1 A75         1 TEMP              0 ****  ****    0 ROOT
