@<TRIPOS>MOLECULE
A75
   39    41     1     0     0
SMALL
bcc


@<TRIPOS>ATOM
      1 C1         -0.4680   -0.0780    0.2420 c3        1 A75     -0.074400
      2 C2          1.0130   -0.3240    0.0430 c3        1 A75     -0.021100
      3 C3          1.7930   -0.2420    1.3080 ca        1 A75     -0.107300
      4 C4          1.2850    0.3830    2.4580 ca        1 A75     -0.028300
      5 C5         -0.0910    0.9550    2.4810 c3        1 A75     -0.052100
      6 C6         -0.6910    1.1440    1.1050 c3        1 A75     -0.071400
      7 C7          3.0840   -0.7790    1.3280 ca        1 A75     -0.136000
      8 C8          3.8670   -0.7280    2.4730 ca        1 A75     -0.166000
      9 C9          3.3590   -0.1170    3.6380 ca        1 A75      0.150600
     10 C10         2.0670    0.4620    3.6190 ca        1 A75     -0.133600
     11 C11         1.5690    1.1740    4.8700 c         1 A75      0.901200
     12 O12         1.2380    2.3900    4.7830 o         1 A75     -0.826300
     13 O13         1.5710    0.5310    5.9610 o         1 A75     -0.826300
     14 N14         4.1120   -0.1060    4.8300 nu        1 A75     -0.784500
     15 S15         5.6370    0.3490    5.0080 sy        1 A75      1.496200
     16 C16         5.6400    2.0360    4.7960 ca        1 A75     -0.364500
     17 O17         6.0570    0.0660    6.3340 o         1 A75     -0.672800
     18 O18         6.4910   -0.2060    4.0180 o         1 A75     -0.672800
     19 C19         6.8110    2.6270    4.2980 ca        1 A75     -0.014500
     20 C20         6.9120    4.0040    4.1400 ca        1 A75     -0.162000
     21 C21         5.8280    4.8210    4.4730 ca        1 A75     -0.088000
     22 C22         4.6550    4.2500    4.9560 ca        1 A75     -0.162000
     23 C23         4.5610    2.8650    5.1160 ca        1 A75     -0.014500
     24 H11        -0.9620    0.0580   -0.7550 hc        1 A75      0.028700
     25 H12A       -0.9360   -0.9720    0.7320 hc        1 A75      0.028700
     26 H21A        1.1630   -1.3320   -0.4290 hc        1 A75      0.033200
     27 H22A        1.4210    0.4400   -0.6750 hc        1 A75      0.033200
     28 H51        -0.7440    0.2640    3.0830 hc        1 A75      0.078200
     29 H52        -0.0680    1.9420    3.0250 hc        1 A75      0.078200
     30 H61        -0.2280    2.0380    0.6110 hc        1 A75      0.031200
     31 H62        -1.7890    1.3460    1.2030 hc        1 A75      0.031200
     32 H7          3.4860   -1.2550    0.4210 ha        1 A75      0.112000
     33 H8          4.8830   -1.1560    2.4640 ha        1 A75      0.148000
     34 H14         3.5060   -0.1960    5.6370 hn        1 A75      0.506800
     35 H19         7.6600    1.9780    4.0180 ha        1 A75      0.168500
     36 H20         7.8380    4.4480    3.7510 ha        1 A75      0.134000
     37 H21         5.9030    5.9100    4.3460 ha        1 A75      0.118000
     38 H22         3.7850    4.8790    5.2030 ha        1 A75      0.134000
     39 H23         3.5960    2.4480    5.4770 ha        1 A75      0.168500
@<TRIPOS>BOND
     1    1    2 1   
     2    1    6 1   
     3    1   24 1   
     4    1   25 1   
     5    2    3 1   
     6    2   26 1   
     7    2   27 1   
     8    3    4 ar  
     9    3    7 ar  
    10    4    5 1   
    11    4   10 ar  
    12    5    6 1   
    13    5   28 1   
    14    5   29 1   
    15    6   30 1   
    16    6   31 1   
    17    7    8 ar  
    18    7   32 1   
    19    8    9 ar  
    20    8   33 1   
    21    9   10 ar  
    22    9   14 1   
    23   10   11 1   
    24   11   12 1   
    25   11   13 1   
    26   14   15 1   
    27   14   34 1   
    28   15   16 1   
    29   15   17 2   
    30   15   18 2   
    31   16   19 ar  
    32   16   23 ar  
    33   19   20 ar  
    34   19   35 1   
    35   20   21 ar  
    36   20   36 1   
    37   21   22 ar  
    38   21   37 1   
    39   22   23 ar  
    40   22   38 1   
    41   23   39 1   
@<TRIPOS>SUBSTRUCTURE
     1 A75         1 TEMP              0 ****  ****    0 ROOT
