@<TRIPOS>MOLECULE
A75
   39    36     1     0     0
SMALL
bcc


@<TRIPOS>ATOM
      1 C1         -3.0010   -0.5240   -4.4410 c3        1 A75     -0.153000
      2 C2         -1.6330   -0.2780   -4.4320 c3        1 A75     -0.107000
      3 C3         -0.9150   -0.1890   -2.9620 c2        1 A75     -0.100000
      4 C4         -1.7930   -0.2560   -1.7540 c1        1 A75     -0.021000
      5 C5         -3.3440   -0.2180   -1.9790 c2        1 A75     -0.138000
      6 C6         -3.7960    0.0670   -3.3300 c3        1 A75     -0.150000
      7 C7          0.4440   -0.1700   -2.8180 c2        1 A75     -0.136000
      8 C8          1.0180   -0.2130   -1.5300 c1        1 A75     -0.166000
      9 C9          0.1560   -0.2790   -0.3440 c1        1 A75      0.069000
     10 C10        -1.2300   -0.2980   -0.4910 c2        1 A75     -0.113000
     11 C11        -2.1190   -0.4270    0.7320 c2        1 A75      0.350000
     12 O12        -2.5540    0.5910    1.2900 o         1 A75     -0.561000
     13 O13        -2.4510   -1.5820    1.1610 o         1 A75     -0.561000
     14 N14         0.7170   -0.3840    0.9240 n3        1 A75     -0.834000
     15 S15         1.8700    0.7630    1.4540 s4        1 A75      2.051800
     16 C16         2.4970    0.2970    3.0580 c1        1 A75     -0.809000
     17 O17         2.9960    0.9290    0.4410 o         1 A75     -0.560400
     18 O18         1.3310    2.0720    1.4770 o         1 A75     -0.560400
     19 C19         2.8970   -0.9040    3.6490 c2        1 A75     -0.031000
     20 C20         3.5550   -0.8890    4.8730 c1        1 A75     -0.174000
     21 C21         3.8210    0.3460    5.5230 c1        1 A75     -0.119000
     22 C22         3.4190    1.5500    4.9300 c1        1 A75     -0.119000
     23 C23         2.7630    1.5350    3.7100 c1        1 A75      0.002000
     24 H11        -3.3820   -0.1400   -5.3380 hc        1 A75      0.068000
     25 H12A       -3.1220   -1.4800   -4.4040 hc        1 A75      0.068000
     26 H21A       -1.4960    0.5190   -4.8540 hc        1 A75      0.072500
     27 H22A       -1.2050   -1.0040   -4.9210 hc        1 A75      0.072500
     28 H51        -3.7160   -1.1110   -1.7080 ha        1 A75      0.117500
     29 H52        -3.7140    0.4480   -1.3960 ha        1 A75      0.117500
     30 H61        -3.7790    1.0430   -3.4450 hc        1 A75      0.070500
     31 H62        -4.7360   -0.2830   -3.4150 hc        1 A75      0.070500
     32 H7          1.0080   -0.1270   -3.5960 ha        1 A75      0.112000
     33 H8          1.9980   -0.1990   -1.4290 ha        1 A75      0.148000
     34 H14         0.4850   -1.1090    1.4810 hn        1 A75      0.302000
     35 H19         2.6900   -1.7490    3.2160 ha        1 A75      0.144000
     36 H20         3.7890   -1.7130    5.3010 ha        1 A75      0.121000
     37 H21         4.2950    0.3570    6.3720 ha        1 A75      0.132500
     38 H22         3.6360    2.4720    5.4050 ha        1 A75      0.132500
     39 H23         2.6010    2.5380    3.5920 ha        1 A75      0.193000
@<TRIPOS>BOND
     1    1    2 1   
     2    1    6 1   
     3    1   24 1   
     4    1   25 1   
     5    2    3 1   
     6    2   26 1   
     7    2   27 1   
     8    3    4 1   
     9    3    7 1   
    10    4   10 1   
    11    5    6 1   
    12    5   28 1   
    13    5   29 1   
    14    6   30 1   
    15    6   31 1   
    16    7    8 1   
    17    7   32 1   
    18    8   33 1   
    19    9   10 1   
    20    9   14 1   
    21   10   11 1   
    22   11   12 1   
    23   11   13 1   
    24   14   15 1   
    25   14   34 1   
    26   15   17 1   
    27   15   18 1   
    28   16   19 1   
    29   16   23 1   
    30   19   20 1   
    31   19   35 1   
    32   20   36 1   
    33   21   22 1   
    34   21   37 1   
    35   22   38 1   
    36   23   39 1   
@<TRIPOS>SUBSTRUCTURE
     1 A75         1 TEMP              0 ****  ****    0 ROOT
