@<TRIPOS>MOLECULE
A75
   39    41     1     0     0
SMALL
bcc


@<TRIPOS>ATOM
      1 C1          5.2170   -0.9160   -0.0960 c3        1 A75     -0.074400
      2 C2          4.2020   -1.5510   -1.0230 c3        1 A75     -0.021100
      3 C3          2.8790   -0.8680   -0.9970 ca        1 A75     -0.107300
      4 C4          2.5040   -0.0090    0.0490 ca        1 A75     -0.028300
      5 C5          3.4410    0.3000    1.1660 c3        1 A75     -0.052100
      6 C6          4.6050   -0.6620    1.2640 c3        1 A75     -0.071400
      7 C7          1.9790   -1.1250   -2.0350 ca        1 A75     -0.136000
      8 C8          0.7270   -0.5260   -2.0660 ca        1 A75     -0.166000
      9 C9          0.3470    0.3500   -1.0280 ca        1 A75      0.150600
     10 C10         1.2370    0.5900    0.0470 ca        1 A75     -0.133600
     11 C11         0.7770    1.4880    1.1880 c         1 A75      0.901200
     12 O12         0.7600    1.0170    2.3600 o         1 A75     -0.826300
     13 O13         0.3670    2.6510    0.9000 o         1 A75     -0.826300
     14 N14        -0.8960    1.0160   -1.0680 nh        1 A75     -0.784500
     15 S15        -2.3360    0.3630   -1.3210 sy        1 A75      1.496200
     16 C16        -2.6790   -0.5460    0.0740 ca        1 A75     -0.364500
     17 O17        -3.3040    1.3950   -1.4310 o         1 A75     -0.672800
     18 O18        -2.3410   -0.5320   -2.4250 o         1 A75     -0.672800
     19 C19        -3.5120   -1.6670   -0.0690 ca        1 A75     -0.014500
     20 C20        -3.8790   -2.4350    1.0290 ca        1 A75     -0.162000
     21 C21        -3.4080   -2.0970    2.3000 ca        1 A75     -0.089000
     22 C22        -2.5710   -0.9970    2.4580 ca        1 A75     -0.162000
     23 C23        -2.2080   -0.2260    1.3500 ca        1 A75     -0.014500
     24 H11         5.5720    0.0540   -0.5330 hc        1 A75      0.028700
     25 H12A        6.1080   -1.5890    0.0010 hc        1 A75      0.028700
     26 H21A        4.6060   -1.5530   -2.0710 hc        1 A75      0.033200
     27 H22A        4.0520   -2.6260   -0.7260 hc        1 A75      0.033200
     28 H51         3.8290    1.3450    1.0140 hc        1 A75      0.078200
     29 H52         2.8660    0.3010    2.1360 hc        1 A75      0.078200
     30 H61         5.3790   -0.2390    1.9570 hc        1 A75      0.031200
     31 H62         4.2560   -1.6330    1.7030 hc        1 A75      0.031200
     32 H7          2.2680   -1.8090   -2.8470 ha        1 A75      0.112000
     33 H8          0.0330   -0.7450   -2.8930 ha        1 A75      0.148000
     34 H14        -0.8160    1.9460   -0.6750 hn        1 A75      0.506800
     35 H19        -3.8680   -1.9430   -1.0770 ha        1 A75      0.168500
     36 H20        -4.5330   -3.3080    0.8980 ha        1 A75      0.134000
     37 H21        -3.6930   -2.7050    3.1710 ha        1 A75      0.118000
     38 H22        -2.1750   -0.7300    3.4500 ha        1 A75      0.134000
     39 H23        -1.5150    0.6270    1.5150 ha        1 A75      0.168500
@<TRIPOS>BOND
     1    1    2 1   
     2    1    6 1   
     3    1   24 1   
     4    1   25 1   
     5    2    3 1   
     6    2   26 1   
     7    2   27 1   
     8    3    4 ar  
     9    3    7 ar  
    10    4    5 1   
    11    4   10 ar  
    12    5    6 1   
    13    5   28 1   
    14    5   29 1   
    15    6   30 1   
    16    6   31 1   
    17    7    8 ar  
    18    7   32 1   
    19    8    9 ar  
    20    8   33 1   
    21    9   10 ar  
    22    9   14 1   
    23   10   11 1   
    24   11   12 1   
    25   11   13 1   
    26   14   15 1   
    27   14   34 1   
    28   15   16 1   
    29   15   17 2   
    30   15   18 2   
    31   16   19 ar  
    32   16   23 ar  
    33   19   20 ar  
    34   19   35 1   
    35   20   21 ar  
    36   20   36 1   
    37   21   22 ar  
    38   21   37 1   
    39   22   23 ar  
    40   22   38 1   
    41   23   39 1   
@<TRIPOS>SUBSTRUCTURE
     1 A75         1 TEMP              0 ****  ****    0 ROOT
