@<TRIPOS>MOLECULE
A7B
   25    26     1     0     0
SMALL
bcc


@<TRIPOS>ATOM
      1 C1         -0.0650   -2.2430   -0.0270 ca        1 A7B     -0.106000
      2 C2          0.5550   -0.9800   -0.0010 ca        1 A7B     -0.109800
      3 C3         -0.2440    0.1950    0.0080 ca        1 A7B      0.083600
      4 C4         -1.6720    0.0430   -0.0100 ca        1 A7B      0.076100
      5 C5         -2.2520   -1.2160   -0.0360 ca        1 A7B     -0.161000
      6 C6         -1.4410   -2.3600   -0.0440 ca        1 A7B     -0.135000
      7 C7          1.9990   -0.8320    0.0170 cc        1 A7B      0.020600
      8 C8          2.5540    0.4040    0.0420 cd        1 A7B     -0.235200
      9 C9          1.7340    1.6200    0.0510 c         1 A7B      0.692700
     10 N10         0.3460    1.4500    0.0330 n         1 A7B     -0.432100
     11 O11        -2.3900    1.2290   -0.0010 os        1 A7B     -0.338900
     12 O12         2.1930    2.7790    0.0740 o         1 A7B     -0.636500
     13 C13         2.8480   -2.0480    0.0090 c3        1 A7B     -0.069900
     14 C14        -3.8070    1.1060   -0.0170 c3        1 A7B      0.118700
     15 H1          0.5620   -3.1480   -0.0340 ha        1 A7B      0.138000
     16 H5         -3.3450   -1.3340   -0.0500 ha        1 A7B      0.142000
     17 H6         -1.9140   -3.3530   -0.0640 ha        1 A7B      0.138000
     18 H8          3.6410    0.5720    0.0570 ha        1 A7B      0.164000
     19 HN10       -0.2440    2.2550    0.0390 hn        1 A7B      0.346500
     20 H13         2.6470   -2.6530   -0.9110 hc        1 A7B      0.054367
     21 H13A        3.9330   -1.7820    0.0250 hc        1 A7B      0.054367
     22 H13B        2.6260   -2.6800    0.9050 hc        1 A7B      0.054367
     23 H14        -4.1470    0.5890   -0.9480 h1        1 A7B      0.047367
     24 H14A       -4.1670    0.5610    0.8890 h1        1 A7B      0.047367
     25 H14B       -4.1570    2.1700   -0.0050 h1        1 A7B      0.047367
@<TRIPOS>BOND
     1    1    2 ar  
     2    1    6 ar  
     3    1   15 1   
     4    2    3 ar  
     5    2    7 1   
     6    3    4 ar  
     7    3   10 1   
     8    4    5 ar  
     9    4   11 1   
    10    5    6 ar  
    11    5   16 1   
    12    6   17 1   
    13    7    8 2   
    14    7   13 1   
    15    8    9 1   
    16    8   18 1   
    17    9   10 1   
    18    9   12 2   
    19   10   19 1   
    20   11   14 1   
    21   13   20 1   
    22   13   21 1   
    23   13   22 1   
    24   14   23 1   
    25   14   24 1   
    26   14   25 1   
@<TRIPOS>SUBSTRUCTURE
     1 A7B         1 TEMP              0 ****  ****    0 ROOT
