@<TRIPOS>MOLECULE
A7B
   25    22     1     0     0
SMALL
bcc


@<TRIPOS>ATOM
      1 C1         -1.7620    0.2210   -0.8260 c1        1 A7B     -0.119500
      2 C2         -0.3480    0.2030   -0.8270 c1        1 A7B     -0.111000
      3 C3          0.3500    0.1430    0.3850 c1        1 A7B      0.100000
      4 C4         -0.3670    0.0990    1.6170 c2        1 A7B     -0.005000
      5 C5         -1.7650    0.1170    1.6120 c1        1 A7B     -0.109000
      6 C6         -2.4670    0.1780    0.3870 c1        1 A7B     -0.119500
      7 C7          0.4120    0.1140   -2.1480 c2        1 A7B      0.016000
      8 C8          1.8470    0.1620   -2.1450 c1        1 A7B     -0.218000
      9 C9          2.5710    0.2520   -0.8670 c1        1 A7B      0.333000
     10 N10         1.8420    0.1640    0.3880 n2        1 A7B     -0.289000
     11 O11         0.0850    0.3600    2.9320 os        1 A7B     -0.228000
     12 O12         3.8100    0.2950   -0.8600 o         1 A7B     -0.358000
     13 C13        -0.3230    0.1840   -3.4310 c3        1 A7B     -0.192000
     14 C14         0.1990   -0.8130    3.7520 c3        1 A7B     -0.075000
     15 H1         -2.2200    0.2600   -1.6200 ha        1 A7B      0.139000
     16 H5         -2.2510    0.0870    2.4450 ha        1 A7B      0.145000
     17 H6         -3.4880    0.1930    0.3840 ha        1 A7B      0.139000
     18 H8          2.3520    0.2250   -3.0160 ha        1 A7B      0.164000
     19 HN10        2.3080    0.2200    1.2020 hn        1 A7B      0.259000
     20 H13        -0.8850   -0.6190   -3.5300 hc        1 A7B      0.093667
     21 H13A       -0.8650    0.9460   -3.4370 hc        1 A7B      0.093667
     22 H13B        0.3410    0.2330   -4.2000 hc        1 A7B      0.093667
     23 H14         0.8430   -1.3790    3.3940 h1        1 A7B      0.082667
     24 H14A       -0.6730   -1.2820    3.7850 h1        1 A7B      0.082667
     25 H14B        0.4540   -0.5630    4.6240 h1        1 A7B      0.082667
@<TRIPOS>BOND
     1    1    6 1   
     2    1   15 1   
     3    2    3 1   
     4    2    7 1   
     5    3    4 1   
     6    4    5 1   
     7    4   11 1   
     8    5   16 1   
     9    6   17 1   
    10    7    8 1   
    11    7   13 1   
    12    8   18 1   
    13    9   10 1   
    14    9   12 1   
    15   10   19 1   
    16   11   14 1   
    17   13   20 1   
    18   13   21 1   
    19   13   22 1   
    20   14   23 1   
    21   14   24 1   
    22   14   25 1   
@<TRIPOS>SUBSTRUCTURE
     1 A7B         1 TEMP              0 ****  ****    0 ROOT
