@<TRIPOS>MOLECULE
A7B
   25    26     1     0     0
SMALL
bcc


@<TRIPOS>ATOM
      1 C1         -0.0240    0.0030   -0.0360 ca        1 A7B     -0.106000
      2 C2          1.3840    0.0010   -0.0290 ca        1 A7B     -0.109800
      3 C3          2.0800   -0.0020    1.2090 ca        1 A7B      0.083600
      4 C4          1.3080   -0.0040    2.4210 ca        1 A7B      0.076100
      5 C5         -0.0770   -0.0010    2.3790 ca        1 A7B     -0.161000
      6 C6         -0.7410    0.0020    1.1440 ca        1 A7B     -0.135000
      7 C7          2.1590    0.0020   -1.2560 cc        1 A7B      0.020600
      8 C8          3.5130    0.0000   -1.2040 cd        1 A7B     -0.235200
      9 C9          4.2370   -0.0030    0.0720 c         1 A7B      0.692700
     10 N10         3.4670   -0.0040    1.2400 n         1 A7B     -0.432100
     11 O11         2.0510   -0.0080    3.5910 os        1 A7B     -0.338900
     12 O12         5.4800   -0.0050    0.1760 o         1 A7B     -0.636500
     13 C13         1.4480    0.0060   -2.5580 c3        1 A7B     -0.069900
     14 C14         1.3100    0.0000    4.8050 c3        1 A7B      0.118700
     15 H1         -0.5550    0.0060   -1.0000 ha        1 A7B      0.138000
     16 H5         -0.6700   -0.0020    3.3050 ha        1 A7B      0.142000
     17 H6         -1.8410    0.0040    1.1260 ha        1 A7B      0.138000
     18 H8          4.1480    0.0010   -2.1020 ha        1 A7B      0.164000
     19 HN10        3.9250   -0.0070    2.1260 hn        1 A7B      0.346500
     20 H13         0.8010    0.9150   -2.6420 hc        1 A7B      0.054367
     21 H13A        0.7980   -0.9010   -2.6450 hc        1 A7B      0.054367
     22 H13B        2.1690    0.0060   -3.4120 hc        1 A7B      0.054367
     23 H14         2.1070   -0.0000    5.5920 h1        1 A7B      0.047367
     24 H14A        0.6830    0.9220    4.8790 h1        1 A7B      0.047367
     25 H14B        0.6750   -0.9150    4.8860 h1        1 A7B      0.047367
@<TRIPOS>BOND
     1    1    2 ar  
     2    1    6 ar  
     3    1   15 1   
     4    2    3 ar  
     5    2    7 1   
     6    3    4 ar  
     7    3   10 1   
     8    4    5 ar  
     9    4   11 1   
    10    5    6 ar  
    11    5   16 1   
    12    6   17 1   
    13    7    8 2   
    14    7   13 1   
    15    8    9 1   
    16    8   18 1   
    17    9   10 1   
    18    9   12 2   
    19   10   19 1   
    20   11   14 1   
    21   13   20 1   
    22   13   21 1   
    23   13   22 1   
    24   14   23 1   
    25   14   24 1   
    26   14   25 1   
@<TRIPOS>SUBSTRUCTURE
     1 A7B         1 TEMP              0 ****  ****    0 ROOT
