@<TRIPOS>MOLECULE
A7D
   47    46     1     0     0
SMALL
bcc


@<TRIPOS>ATOM
      1 N1          1.8500   -0.7620    0.8840 n2        1 A7D     -0.211000
      2 C2          2.2280   -2.0450    1.1030 c1        1 A7D      0.065000
      3 N3          3.0310   -2.3990    2.1830 n3        1 A7D     -0.128000
      4 C4          3.4550   -1.4370    3.0500 c2        1 A7D      0.136000
      5 C5          3.0620   -0.0430    2.8400 c2        1 A7D     -0.190000
      6 C6          2.2470    0.2220    1.7190 c2        1 A7D      0.055000
      7 N6          1.8170    1.6060    1.4540 n4        1 A7D     -0.023000
      8 N7          3.6480    0.7010    3.8890 n3        1 A7D     -0.244000
      9 C8          4.3660   -0.1310    4.7150 c1        1 A7D      0.136000
     10 N9          4.2620   -1.4600    4.2190 n3        1 A7D     -0.260000
     11 OAC         2.5000   -5.0420   10.8940 oh        1 A7D     -0.298000
     12 OAD         0.3180    3.8850    1.9120 oh        1 A7D     -0.401000
     13 OAE         2.8310    3.5390    3.2030 oh        1 A7D     -0.401000
     14 CAH         3.6270   -5.2070   12.9450 c2        1 A7D     -0.012000
     15 CAI         4.7580   -3.1330    9.2090 c3        1 A7D     -0.388000
     16 CAJ         4.4160   -6.5620   10.9820 c3        1 A7D     -0.180000
     17 OAO         5.5400   -2.5550    5.7590 os        1 A7D     -0.257000
     18 SAP         5.6950   -4.4070    8.4640 ss        1 A7D      0.209000
     19 CAT         3.5160   -5.6070   11.6590 c2        1 A7D     -0.142000
     20 CAU         0.7990    4.8290    2.8630 c3        1 A7D     -0.048000
     21 CAV         1.6820    4.0710    3.8470 c3        1 A7D     -0.048000
     22 CAW         6.1590   -3.7300    6.1660 c1        1 A7D      0.166000
     23 CAX         4.7870   -2.6800    4.6470 c1        1 A7D      0.244000
     24 H2          3.2950   -3.3620    2.3130 hn        1 A7D      0.308000
     25 HN6         2.6290    2.2390    1.4750 hn        1 A7D      0.275667
     26 HN6A        1.3450    1.6830    0.5430 hn        1 A7D      0.275667
     27 H8          3.5580    1.6840    3.9950 hn        1 A7D      0.288000
     28 HOAD       -0.4490    4.2790    1.4780 ho        1 A7D      0.240000
     29 HOAE        3.4490    4.2650    3.0520 ho        1 A7D      0.240000
     30 HAHA        3.8370   -7.4360   10.5910 hc        1 A7D      0.090000
     31 HAI         5.3810   -2.4700    9.8500 h1        1 A7D      0.123333
     32 HAIA        4.9230   -6.0620   10.1140 hc        1 A7D      0.090000
     33 HAJ         4.2200   -2.5060    8.4650 h1        1 A7D      0.123333
     34 HAJA        4.0050   -3.6580    9.8560 h1        1 A7D      0.123333
     35 HAT         5.1990   -6.9370   11.6850 hc        1 A7D      0.090000
     36 HAU         1.3870    5.6190    2.3230 h1        1 A7D      0.109000
     37 HAV         1.9770    4.7500    4.6890 h1        1 A7D      0.109000
     38 HAW        -0.0560    5.3050    3.4130 h1        1 A7D      0.109000
     39 HAX         1.1440    3.1720    4.2550 h1        1 A7D      0.109000
     40 HOAC        2.0230   -5.7780   10.4860 ho        1 A7D      0.215000
     41 OAB         2.7830   -4.3200   13.5510 oh        1 A7D     -0.250000
     42 H63         1.1620    1.9220    2.1880 hn        1 A7D      0.275667
     43 CAK         6.8530   -3.5110    7.4550 c3        1 A7D     -0.433000
     44 HAH         4.4290   -5.5180   13.6320 h4        1 A7D      0.177000
     45 HAK         7.0200   -2.4600    7.7830 h1        1 A7D      0.152500
     46 HOAB        2.0540   -4.1170   12.9420 ho        1 A7D      0.226000
     47 HAKA        7.8320   -4.0530    7.4570 h1        1 A7D      0.152500
@<TRIPOS>BOND
     1    1    2 1   
     2    1    6 1   
     3    2    3 1   
     4    3    4 1   
     5    3   24 1   
     6    4    5 1   
     7    4   10 1   
     8    5    6 1   
     9    5    8 1   
    10    6    7 1   
    11    7   25 1   
    12    7   26 1   
    13    7   42 1   
    14    8    9 1   
    15    8   27 1   
    16    9   10 1   
    17   10   23 1   
    18   11   19 1   
    19   11   40 1   
    20   12   20 1   
    21   12   28 1   
    22   13   21 1   
    23   13   29 1   
    24   14   19 1   
    25   14   41 1   
    26   14   44 1   
    27   15   18 1   
    28   15   31 1   
    29   15   33 1   
    30   15   34 1   
    31   16   19 1   
    32   16   30 1   
    33   16   32 1   
    34   16   35 1   
    35   17   22 1   
    36   17   23 1   
    37   18   43 1   
    38   20   21 1   
    39   20   36 1   
    40   20   38 1   
    41   21   37 1   
    42   21   39 1   
    43   22   43 1   
    44   41   46 1   
    45   43   45 1   
    46   43   47 1   
@<TRIPOS>SUBSTRUCTURE
     1 A7D         1 TEMP              0 ****  ****    0 ROOT
