@<TRIPOS>MOLECULE
A7D
   46    41     1     0     0
SMALL
bcc


@<TRIPOS>ATOM
      1 N1         -3.7400    0.7470   -6.2410 n1        1 A7D     -0.270000
      2 C2         -2.3610    0.6730   -6.2190 c1        1 A7D      0.028000
      3 N3         -1.6850    0.8950   -5.0630 n1        1 A7D     -0.234000
      4 C4         -2.3640    1.1920   -3.9180 c1        1 A7D     -0.089500
      5 C5         -3.7080    1.2650   -3.9330 c1        1 A7D     -0.089500
      6 C6         -4.4070    1.0350   -5.1300 c1        1 A7D      0.246000
      7 N6         -5.8230    0.9590   -5.4360 n3        1 A7D     -0.356000
      8 N7         -4.1270    1.5760   -2.6630 n1        1 A7D     -0.164500
      9 C8         -3.0330    1.6910   -1.8790 c1        1 A7D     -0.032000
     10 N9         -1.9400    1.4550   -2.6490 n1        1 A7D     -0.164500
     11 OAB         4.3070   -3.1600    6.8720 oh        1 A7D     -0.340000
     12 OAC         1.6720   -2.9760    6.0320 oh        1 A7D     -0.331000
     13 OAD         2.2160    1.8810   -1.0700 oh        1 A7D     -0.304000
     14 OAE         0.7780    2.9110   -2.8700 oh        1 A7D     -0.322000
     15 CAH         3.9950   -3.2000    5.5150 c3        1 A7D     -0.060000
     16 CAI         1.3710   -1.3820    3.4050 c3        1 A7D     -0.280000
     17 CAJ         2.2820   -2.5340    3.7750 c3        1 A7D     -0.144000
     18 CAK         0.3080    0.1270    1.1550 c3        1 A7D     -0.302000
     19 OAO        -0.6210    0.1500   -1.0150 os        1 A7D     -0.265000
     20 SAP         1.0500   -1.4160    1.6570 ss        1 A7D      0.078000
     21 CAT         2.6680   -2.4310    5.2660 c3        1 A7D      0.035000
     22 CAU         0.9220    1.8180   -0.6700 c3        1 A7D      0.013000
     23 CAV        -0.0080    2.2840   -1.7940 c3        1 A7D     -0.028000
     24 CAW         0.5140    0.3330   -0.3740 c3        1 A7D     -0.014000
     25 CAX        -0.6070    1.1660   -2.2400 c2        1 A7D      0.136000
     26 H2         -1.9030    0.4760   -6.9840 ha        1 A7D      0.188000
     27 HN6        -6.1150    1.1090   -6.2880 hn        1 A7D      0.246500
     28 HN6A       -6.4070    0.8200   -4.7880 hn        1 A7D      0.246500
     29 H8         -3.0280    1.9110   -0.8690 DU        1 A7D      0.214000
     30 HOAB        5.0750   -3.6520    7.0280 ho        1 A7D      0.208000
     31 HOAC        1.5050   -2.4310    6.7500 ho        1 A7D      0.219000
     32 HOAD        2.6640    2.5050   -0.5690 ho        1 A7D      0.226000
     33 HOAE        0.6440    3.7950   -2.8610 ho        1 A7D      0.233000
     34 HAH         3.8910   -4.1130    5.2370 h1        1 A7D      0.075500
     35 HAHA        4.7130   -2.7830    5.0040 h1        1 A7D      0.075500
     36 HAI         1.7850   -0.5760    3.6300 h1        1 A7D      0.117000
     37 HAIA        0.5420   -1.4600    3.8850 h1        1 A7D      0.117000
     38 HAJ         3.0590   -2.4980    3.2480 hc        1 A7D      0.102500
     39 HAJA        1.8040   -3.4060    3.6110 hc        1 A7D      0.102500
     40 HAK        -0.6640    0.1090    1.3570 h1        1 A7D      0.124000
     41 HAKA        0.7320    0.8690    1.6470 h1        1 A7D      0.124000
     42 HAT         2.7890   -1.4890    5.5100 h1        1 A7D      0.091000
     43 HAU         0.7870    2.3760    0.1390 h1        1 A7D      0.133000
     44 HAV        -0.6680    2.9050   -1.4500 h1        1 A7D      0.126000
     45 HAW         1.2110   -0.2940   -0.7210 h1        1 A7D      0.142000
     46 HAX        -0.0750    0.7680   -3.0280 h4        1 A7D      0.143000
@<TRIPOS>BOND
     1    1    6 1   
     2    2    3 1   
     3    2   26 1   
     4    4    5 1   
     5    6    7 1   
     6    7   27 1   
     7    7   28 1   
     8    8    9 1   
     9    9   10 1   
    10   11   15 1   
    11   11   30 1   
    12   12   21 1   
    13   12   31 1   
    14   13   22 1   
    15   13   32 1   
    16   14   23 1   
    17   14   33 1   
    18   15   21 1   
    19   15   34 1   
    20   15   35 1   
    21   16   17 1   
    22   16   20 1   
    23   16   36 1   
    24   16   37 1   
    25   17   21 1   
    26   17   38 1   
    27   17   39 1   
    28   18   20 1   
    29   18   24 1   
    30   18   40 1   
    31   18   41 1   
    32   19   24 1   
    33   19   25 1   
    34   21   42 1   
    35   22   23 1   
    36   22   24 1   
    37   22   43 1   
    38   23   25 1   
    39   23   44 1   
    40   24   45 1   
    41   25   46 1   
@<TRIPOS>SUBSTRUCTURE
     1 A7D         1 TEMP              0 ****  ****    0 ROOT
