@<TRIPOS>MOLECULE
A7D
   46    43     1     0     0
SMALL
bcc


@<TRIPOS>ATOM
      1 N1          0.3090    0.4870   -0.1620 n2        1 A7D     -0.337000
      2 C2          0.6770    1.2230   -1.0160 c1        1 A7D      0.155000
      3 N3          2.8580    0.5980    1.6240 n2        1 A7D     -0.221000
      4 C4          2.0560   -0.2000    2.2260 c2        1 A7D      0.103000
      5 C5          0.6500   -0.6920    1.9020 c2        1 A7D     -0.020000
      6 C6         -0.1420   -0.3790    0.8290 c2        1 A7D      0.077000
      7 N6         -1.4480   -0.9560    0.7310 n3        1 A7D     -0.305000
      8 N7          0.2990   -1.5650    2.9630 n3        1 A7D     -0.274000
      9 C8          1.3080   -1.6760    3.8890 c1        1 A7D      0.095000
     10 N9          2.3600   -0.8670    3.4860 n3        1 A7D     -0.201000
     11 OAC         7.3870   -3.5190   12.0330 oh        1 A7D     -0.229000
     12 OAD         5.3330    1.4530    5.6810 oh        1 A7D     -0.265500
     13 OAE         2.9520    2.6470    4.3140 oh        1 A7D     -0.265500
     14 CAH         5.8750   -5.2710   11.6280 c3        1 A7D     -0.116000
     15 CAI         3.9210   -2.5660    9.7550 c3        1 A7D     -0.662000
     16 CAJ         2.8430   -3.5320   10.1440 c3        1 A7D     -0.175000
     17 OAO         4.6710   -1.0270    3.4900 os        1 A7D      0.072000
     18 SAP         3.9740   -2.4360    8.0150 ss        1 A7D      1.241000
     19 CAT         6.7020   -4.1500   11.0980 c1        1 A7D     -0.047000
     20 CAU         4.7440    2.6650    5.9570 c2        1 A7D     -0.121500
     21 CAV         3.6610    3.1870    5.3560 c2        1 A7D     -0.121500
     22 CAW         5.8030   -1.1980    4.1200 c2        1 A7D     -0.249000
     23 CAX         3.5470   -0.6980    4.1820 c2        1 A7D     -0.217000
     24 H2          2.5420    1.0080    0.7730 hn        1 A7D      0.175000
     25 HN6        -1.5440   -1.4990   -0.1060 hn        1 A7D      0.173500
     26 HN6A       -2.1580   -0.2490    0.7630 hn        1 A7D      0.173500
     27 H8         -0.5770   -2.0210    3.0160 hn        1 A7D      0.276000
     28 HOAB        6.0520   -4.8510   13.5100 ho        1 A7D      0.203000
     29 HOAD        4.9950    1.1210    4.8350 ho        1 A7D      0.216000
     30 HOAE        3.2500    1.7370    4.1530 ho        1 A7D      0.216000
     31 HAH         6.1160   -6.1950   11.0280 h1        1 A7D      0.128000
     32 HAHA        4.7950   -4.9950   11.4490 h1        1 A7D      0.128000
     33 HAI         2.8210   -3.6780   11.2520 hc        1 A7D      0.068333
     34 HAIA        3.0130   -4.5310    9.6700 hc        1 A7D      0.068333
     35 HAJ         3.7480   -1.5820   10.2530 h1        1 A7D      0.114500
     36 HAJA        4.9130   -2.9380   10.1250 h1        1 A7D      0.114500
     37 HAT         1.8380   -3.1590    9.8280 hc        1 A7D      0.068333
     38 HAU         5.8530   -1.2820    5.2120 h4        1 A7D      0.162000
     39 HAV         3.5400   -0.7920    5.2820 h5        1 A7D      0.201000
     40 HAW         5.2690    3.1510    6.7930 h4        1 A7D      0.168500
     41 HAX         3.2350    4.1650    5.6270 h4        1 A7D      0.168500
     42 CAK         4.4990   -1.2910    7.4970 c1        1 A7D     -1.049000
     43 HOAC        7.8880   -2.8030   11.6010 ho        1 A7D      0.259000
     44 OAB         6.0710   -5.6540   12.9750 oh        1 A7D     -0.327000
     45 HAK         4.9110   -0.3780    7.1310 ha        1 A7D      0.216000
     46 HAKA        6.6820   -1.1170    3.4700 h4        1 A7D      0.162000
@<TRIPOS>BOND
     1    1    2 1   
     2    1    6 1   
     3    3    4 1   
     4    3   24 1   
     5    4    5 1   
     6    4   10 1   
     7    5    6 1   
     8    5    8 1   
     9    6    7 1   
    10    7   25 1   
    11    7   26 1   
    12    8    9 1   
    13    8   27 1   
    14    9   10 1   
    15   10   23 1   
    16   11   19 1   
    17   11   43 1   
    18   12   20 1   
    19   12   29 1   
    20   13   21 1   
    21   13   30 1   
    22   14   19 1   
    23   14   31 1   
    24   14   32 1   
    25   14   44 1   
    26   15   16 1   
    27   15   18 1   
    28   15   35 1   
    29   15   36 1   
    30   16   33 1   
    31   16   34 1   
    32   16   37 1   
    33   17   22 1   
    34   17   23 1   
    35   18   42 1   
    36   20   21 1   
    37   20   40 1   
    38   21   41 1   
    39   22   38 1   
    40   22   46 1   
    41   23   39 1   
    42   28   44 1   
    43   42   45 1   
@<TRIPOS>SUBSTRUCTURE
     1 A7D         1 TEMP              0 ****  ****    0 ROOT
