@<TRIPOS>MOLECULE
A7D
   46    43     1     0     0
SMALL
bcc


@<TRIPOS>ATOM
      1 N1         -0.7870    0.6910    0.7270 n2        1 A7D     -0.339000
      2 C2         -0.9460    1.8040    0.3510 c1        1 A7D      0.157000
      3 N3          1.8610    1.1390    2.2940 n2        1 A7D     -0.234000
      4 C4          1.5980   -0.1090    2.4330 c2        1 A7D      0.110000
      5 C5          0.4540   -0.9800    1.9260 c2        1 A7D     -0.024000
      6 C6         -0.6220   -0.6230    1.1560 c2        1 A7D      0.081000
      7 N6         -1.5840   -1.6170    0.7940 n8        1 A7D     -0.305000
      8 N7          0.7210   -2.2830    2.4180 n7        1 A7D     -0.274000
      9 C8          1.8800   -2.3240    3.1530 c1        1 A7D      0.097000
     10 N9          2.4210   -1.0450    3.1860 n3        1 A7D     -0.197000
     11 OAC         5.2150   -5.2340   11.4420 oh        1 A7D     -0.374000
     12 OAD         5.4190    1.8690    6.4870 oh        1 A7D     -0.285500
     13 OAE         4.7210    2.7150    3.9250 oh        1 A7D     -0.285500
     14 CAH         3.7140   -4.7320   13.2290 c1        1 A7D      0.048000
     15 CAI         5.5890   -3.7160    8.4540 c3        1 A7D     -0.731000
     16 CAJ         4.9240   -2.8990   12.0820 c3        1 A7D     -0.228000
     17 OAO         4.5010   -0.0180    3.1820 os        1 A7D      0.079000
     18 SAP         5.3360   -3.0560    6.8760 ss        1 A7D      1.235000
     19 CAT         4.2850   -4.2640   11.9150 c3        1 A7D     -0.097000
     20 CAU         4.5430    2.8980    6.2630 c2        1 A7D     -0.100500
     21 CAV         4.1540    3.3080    5.0400 c2        1 A7D     -0.100500
     22 CAW         5.7300    0.0710    3.6420 c2        1 A7D     -0.303000
     23 CAX         3.5710   -0.7030    3.8780 c2        1 A7D     -0.170000
     24 H2          1.2210    1.6800    1.7570 hn        1 A7D      0.174000
     25 HN6        -1.6240   -1.7390   -0.2000 hn        1 A7D      0.175000
     26 HN6A       -2.4940   -1.3890    1.1480 hn        1 A7D      0.175000
     27 H8          0.1270   -3.0550    2.2450 hn        1 A7D      0.277000
     28 HOAB        4.7830   -6.3540   13.2640 ho        1 A7D      0.193000
     29 HOAD        5.6640    1.4830    5.6280 ho        1 A7D      0.229500
     30 HOAE        3.9930    2.3180    3.4190 ho        1 A7D      0.229500
     31 HAH         3.4250   -4.1980   11.1840 h1        1 A7D      0.111000
     32 HAHA        4.1880   -2.1890   12.5290 hc        1 A7D      0.091667
     33 HAI         5.2530   -2.5100   11.0880 hc        1 A7D      0.091667
     34 HAIA        4.6650   -3.6720    9.0750 h1        1 A7D      0.107000
     35 HAJ         6.3990   -3.2080    9.0250 h1        1 A7D      0.107000
     36 HAJA        5.8710   -4.7890    8.3340 h1        1 A7D      0.107000
     37 HAT         5.8150   -2.9660   12.7510 hc        1 A7D      0.091667
     38 HAU         6.0850   -0.5600    4.4610 h4        1 A7D      0.159500
     39 HAV         3.8510   -1.2710    4.7800 h5        1 A7D      0.203000
     40 HAW         4.2250    3.3520    7.2120 h4        1 A7D      0.154000
     41 HAX         3.4510    4.1270    4.8520 h4        1 A7D      0.154000
     42 CAK         5.2910   -1.7000    6.7550 c1        1 A7D     -1.032000
     43 HOAC        5.6930   -4.8460   10.6990 ho        1 A7D      0.222000
     44 OAB         4.1000   -5.8430   13.7510 oh        1 A7D     -0.152000
     45 HAK         6.2750    0.9340    3.2410 h4        1 A7D      0.159500
     46 HAKA        5.2620   -0.6350    6.7100 ha        1 A7D      0.214000
@<TRIPOS>BOND
     1    1    2 1   
     2    1    6 1   
     3    3    4 1   
     4    3   24 1   
     5    4    5 1   
     6    4   10 1   
     7    5    6 1   
     8    5    8 1   
     9    6    7 1   
    10    7   25 1   
    11    7   26 1   
    12    8    9 1   
    13    8   27 1   
    14    9   10 1   
    15   10   23 1   
    16   11   19 1   
    17   11   43 1   
    18   12   20 1   
    19   12   29 1   
    20   13   21 1   
    21   13   30 1   
    22   14   19 1   
    23   14   44 1   
    24   15   18 1   
    25   15   34 1   
    26   15   35 1   
    27   15   36 1   
    28   16   19 1   
    29   16   32 1   
    30   16   33 1   
    31   16   37 1   
    32   17   22 1   
    33   17   23 1   
    34   18   42 1   
    35   19   31 1   
    36   20   21 1   
    37   20   40 1   
    38   21   41 1   
    39   22   38 1   
    40   22   45 1   
    41   23   39 1   
    42   28   44 1   
    43   42   46 1   
@<TRIPOS>SUBSTRUCTURE
     1 A7D         1 TEMP              0 ****  ****    0 ROOT
