@<TRIPOS>MOLECULE
A7D
   46    48     1     0     0
SMALL
bcc


@<TRIPOS>ATOM
      1 N1         -5.3650    1.6750   -1.1600 nb        1 A7D     -0.795000
      2 C2         -5.3370    0.3260   -0.9930 ca        1 A7D      0.686900
      3 N3         -4.3840   -0.4690   -0.4530 nb        1 A7D     -0.743000
      4 C4         -3.2980    0.2360   -0.0130 ca        1 A7D      0.457800
      5 C5         -3.1790    1.6870   -0.1210 ca        1 A7D     -0.231200
      6 C6         -4.2710    2.3920   -0.7320 ca        1 A7D      0.761200
      7 N6         -4.2050    3.7490   -0.9040 nh        1 A7D     -0.956500
      8 N7         -1.9610    2.1130    0.4290 nc        1 A7D     -0.547100
      9 C8         -1.3590    0.9950    0.8540 cd        1 A7D      0.417700
     10 N9         -2.1080   -0.1840    0.6010 na        1 A7D     -0.297000
     11 OAC         5.0150    2.6780   -0.9510 oh        1 A7D     -0.592800
     12 OAD        -0.2900   -4.4230   -0.1890 oh        1 A7D     -0.584800
     13 OAE        -2.6080   -3.6970    0.6020 oh        1 A7D     -0.587800
     14 CAH         7.0400    1.8570    0.0710 c3        1 A7D      0.096400
     15 CAI         3.6470    0.1010   -0.4180 c3        1 A7D     -0.013300
     16 CAJ         4.8870    0.5780    0.2910 c3        1 A7D     -0.102400
     17 OAO        -0.4360   -1.5640    1.5250 os        1 A7D     -0.402600
     18 SAP         2.6310   -0.7090    0.7830 ss        1 A7D     -0.290200
     19 CAT         5.7120    1.4940   -0.6070 c3        1 A7D      0.138100
     20 CAU        -0.4820   -3.0390   -0.3700 c3        1 A7D      0.089100
     21 CAV        -1.9320   -2.6230   -0.0260 c3        1 A7D      0.079100
     22 CAW         0.4200   -2.2020    0.5640 c3        1 A7D      0.113100
     23 CAX        -1.7910   -1.5180    1.0650 c3        1 A7D      0.258800
     24 H2         -6.2440   -0.2030   -1.3580 h5        1 A7D      0.052100
     25 HN6        -4.9870    4.2490   -1.2490 hn        1 A7D      0.447800
     26 HN6A       -3.4510    4.2430   -0.4950 hn        1 A7D      0.447800
     27 H8         -0.3820    0.9350    1.3560 h5        1 A7D      0.092800
     28 HOAB        8.7020    0.9470    0.4190 ho        1 A7D      0.406000
     29 HOAD       -0.5620   -4.6420    0.7150 ho        1 A7D      0.421000
     30 HOAE       -2.8460   -4.3200   -0.0970 ho        1 A7D      0.424000
     31 HAH         6.8630    2.1980    1.1260 h1        1 A7D      0.031200
     32 HAHA        7.5380    2.6830   -0.5040 h1        1 A7D      0.031200
     33 HAI         3.1050    0.9690   -0.8710 h1        1 A7D      0.068200
     34 HAIA        3.9110   -0.6020   -1.2450 h1        1 A7D      0.068200
     35 HAJ         4.6030    1.1280    1.2280 hc        1 A7D      0.068700
     36 HAJA        5.5310   -0.2930    0.5870 hc        1 A7D      0.068700
     37 HAT         5.9170    0.9930   -1.5960 h1        1 A7D      0.092700
     38 HAU        -0.2470   -2.8590   -1.4530 h1        1 A7D      0.096700
     39 HAV        -2.4870   -2.2800   -0.9360 h1        1 A7D      0.092700
     40 HAW         1.0930   -2.8660    1.1790 h1        1 A7D      0.107700
     41 HAX        -2.4280   -1.7590    1.9700 h2        1 A7D      0.119700
     42 CAK         1.2370   -1.1810   -0.2010 c3        1 A7D     -0.038300
     43 HOAC        4.7380    3.1010   -0.1290 ho        1 A7D      0.399000
     44 OAB         7.8430    0.6910    0.0650 oh        1 A7D     -0.597800
     45 HAK         0.6140   -0.2850   -0.4430 h1        1 A7D      0.073700
     46 HAKA        1.5940   -1.6250   -1.1630 h1        1 A7D      0.073700
@<TRIPOS>BOND
     1    1    2 ar  
     2    1    6 ar  
     3    2    3 ar  
     4    2   24 1   
     5    3    4 ar  
     6    4    5 ar  
     7    4   10 1   
     8    5    6 ar  
     9    5    8 1   
    10    6    7 1   
    11    7   25 1   
    12    7   26 1   
    13    8    9 2   
    14    9   10 1   
    15    9   27 1   
    16   10   23 1   
    17   11   19 1   
    18   11   43 1   
    19   12   20 1   
    20   12   29 1   
    21   13   21 1   
    22   13   30 1   
    23   14   19 1   
    24   14   31 1   
    25   14   32 1   
    26   14   44 1   
    27   15   16 1   
    28   15   18 1   
    29   15   33 1   
    30   15   34 1   
    31   16   19 1   
    32   16   35 1   
    33   16   36 1   
    34   17   22 1   
    35   17   23 1   
    36   18   42 1   
    37   19   37 1   
    38   20   21 1   
    39   20   22 1   
    40   20   38 1   
    41   21   23 1   
    42   21   39 1   
    43   22   40 1   
    44   22   42 1   
    45   23   41 1   
    46   28   44 1   
    47   42   45 1   
    48   42   46 1   
@<TRIPOS>SUBSTRUCTURE
     1 A7D         1 TEMP              0 ****  ****    0 ROOT
