@<TRIPOS>MOLECULE
A7I
   50    51     1     0     0
SMALL
bcc


@<TRIPOS>ATOM
      1 C15         1.2490   -0.0540   -0.2470 c3        1 A7I     -0.110900
      2 C16         2.4240   -0.4300    0.6690 c3        1 A7I      0.179300
      3 N17         2.0450   -0.4360    2.0670 n3        1 A7I     -0.750600
      4 C20         3.0610   -0.9440    3.0070 c3        1 A7I      0.191500
      5 C22         2.3970   -1.6310    4.2040 c3        1 A7I     -0.101600
      6 C21         4.0620   -1.9210    2.3940 c3        1 A7I     -0.101600
      7 C18         1.4970    0.8410    2.4890 c3        1 A7I      0.179300
      8 C19         0.2740    1.2480    1.6570 c3        1 A7I     -0.110900
      9 C14         0.6810    1.3000    0.1820 c3        1 A7I      0.119500
     10 N13        -0.4930    1.7090   -0.7000 n4        1 A7I     -0.751900
     11 S12        -0.7750    3.5030   -0.6420 s6        1 A7I      1.377900
     12 O23        -1.5000    3.7160    0.5080 o         1 A7I     -0.526300
     13 O24         0.4410    4.0810   -0.9270 o         1 A7I     -0.526300
     14 C10        -1.8130    3.6640   -2.0060 c3        1 A7I     -0.377600
     15 C9         -2.2460    5.1190   -2.1460 c3        1 A7I      0.128800
     16 N8         -3.1530    5.3840   -3.2890 n4        1 A7I     -0.690800
     17 C7         -3.5510    6.8940   -3.3770 c         1 A7I      0.636700
     18 O25        -3.0420    7.5900   -2.5140 o         1 A7I     -0.424100
     19 C3         -4.4360    7.2060   -4.4440 cc        1 A7I     -0.324700
     20 C2         -4.8720    8.5360   -4.6330 cd        1 A7I      0.028000
     21 C1         -5.7410    8.6530   -5.7340 cd        1 A7I     -0.169000
     22 C5         -5.9570    7.4240   -6.3640 cc        1 A7I      0.086300
     23 CL6        -6.9190    7.1880   -7.6870 cl        1 A7I      0.096600
     24 S4         -5.1080    6.1900   -5.6080 ss        1 A7I      0.074200
     25 H151        1.6300   -0.0100   -1.3000 hc        1 A7I      0.075450
     26 H152        0.4590   -0.8480   -0.1810 hc        1 A7I      0.075450
     27 H161        2.7440   -1.4720    0.3780 h1        1 A7I      0.065450
     28 H162        3.2810    0.2750    0.4540 h1        1 A7I      0.065450
     29 H14         1.4780    2.0920    0.0250 hx        1 A7I      0.117700
     30 H20         3.6610   -0.0640    3.4030 h1        1 A7I      0.036700
     31 H181        1.1660    0.7460    3.5630 h1        1 A7I      0.065450
     32 H182        2.2580    1.6750    2.4330 h1        1 A7I      0.065450
     33 H221        1.8160   -2.5260    3.8760 hc        1 A7I      0.051700
     34 H222        1.7110   -0.9390    4.7460 hc        1 A7I      0.051700
     35 H223        3.1950   -1.9620    4.9130 hc        1 A7I      0.051700
     36 H211        4.6640   -1.4370    1.5880 hc        1 A7I      0.051700
     37 H212        3.5510   -2.8240    1.9830 hc        1 A7I      0.051700
     38 H213        4.7660   -2.2550    3.1970 hc        1 A7I      0.051700
     39 H191       -0.0830    2.2480    2.0160 hc        1 A7I      0.075450
     40 H192       -0.5470    0.4990    1.8130 hc        1 A7I      0.075450
     41 H13        -1.3040    1.1820   -0.3600 hn        1 A7I      0.467300
     42 H101       -1.3050    3.3410   -2.9580 h1        1 A7I      0.145200
     43 H102       -2.7310    3.0160   -1.9150 h1        1 A7I      0.145200
     44 H91C       -1.3350    5.7810   -2.2800 hx        1 A7I      0.141200
     45 H92C       -2.7860    5.4530   -1.2050 hx        1 A7I      0.141200
     46 H8         -4.0100    4.8310   -3.1930 hn        1 A7I      0.455800
     47 H2         -4.5670    9.3790   -3.9960 ha        1 A7I      0.203000
     48 H1         -6.1950    9.6010   -6.0560 ha        1 A7I      0.218000
     49 H132       -0.2870    1.3620   -1.6390 hn        1 A7I      0.467300
     50 H82        -2.6950    5.1220   -4.1680 hn        1 A7I      0.455800
@<TRIPOS>BOND
     1    1    2 1   
     2    1    9 1   
     3    1   25 1   
     4    1   26 1   
     5    2    3 1   
     6    2   27 1   
     7    2   28 1   
     8    3    4 1   
     9    3    7 1   
    10    4    5 1   
    11    4    6 1   
    12    4   30 1   
    13    5   33 1   
    14    5   34 1   
    15    5   35 1   
    16    6   36 1   
    17    6   37 1   
    18    6   38 1   
    19    7    8 1   
    20    7   31 1   
    21    7   32 1   
    22    8    9 1   
    23    8   39 1   
    24    8   40 1   
    25    9   10 1   
    26    9   29 1   
    27   10   11 1   
    28   10   41 1   
    29   10   49 1   
    30   11   12 2   
    31   11   13 2   
    32   11   14 1   
    33   14   15 1   
    34   14   42 1   
    35   14   43 1   
    36   15   16 1   
    37   15   44 1   
    38   15   45 1   
    39   16   17 1   
    40   16   46 1   
    41   16   50 1   
    42   17   18 2   
    43   17   19 1   
    44   19   20 2   
    45   19   24 1   
    46   20   21 1   
    47   20   47 1   
    48   21   22 2   
    49   21   48 1   
    50   22   23 1   
    51   22   24 1   
@<TRIPOS>SUBSTRUCTURE
     1 A7I         1 TEMP              0 ****  ****    0 ROOT
