@<TRIPOS>MOLECULE
A7I
   48    45     1     0     0
SMALL
bcc


@<TRIPOS>ATOM
      1 C15         0.3500    2.0200    0.9700 c3        1 A7I     -0.210500
      2 C16         1.8850    2.0490    0.9500 c3        1 A7I     -0.069500
      3 N17         2.4640    2.0350    2.3020 n3        1 A7I     -0.251000
      4 C20         2.2170    3.3410    2.9670 c3        1 A7I     -0.018000
      5 C22         2.8240    4.5050    2.0890 c3        1 A7I     -0.211500
      6 C21         2.8860    3.3420    4.3500 c3        1 A7I     -0.211500
      7 C18         1.9300    0.9310    3.1490 c3        1 A7I     -0.069500
      8 C19         0.4040    0.9010    3.1770 c3        1 A7I     -0.210500
      9 C14        -0.1880    0.9090    1.8140 c3        1 A7I      0.046000
     10 N13         0.1100   -0.3820    1.1520 n3        1 A7I     -0.897000
     11 S12        -1.1040   -1.5530    0.9960 s4        1 A7I      2.036800
     12 O23        -2.2290   -1.2510    1.8340 o         1 A7I     -0.540900
     13 O24        -0.6800   -2.8200    1.5410 o         1 A7I     -0.540900
     14 C10        -1.5990   -1.7160   -0.7230 c2        1 A7I     -0.900000
     15 C9         -1.7880   -3.1820   -1.0580 c3        1 A7I      0.005000
     16 N8         -2.5130   -3.3050   -2.3100 n         1 A7I     -0.358000
     17 C7         -1.8760   -3.9030   -3.4540 c2        1 A7I      0.373000
     18 O25        -0.9670   -4.6740   -3.3010 o         1 A7I     -0.360000
     19 C3         -2.2980   -3.4920   -4.8630 c2        1 A7I     -0.454000
     20 C2         -1.5620   -2.6180   -5.7460 c1        1 A7I     -0.075000
     21 C1         -2.2870   -2.6180   -7.1720 c1        1 A7I     -0.162000
     22 C5         -3.4330   -3.4910   -7.0980 c1        1 A7I     -0.365000
     23 CL6        -4.5020   -3.8950   -8.4190 cl        1 A7I      0.061000
     24 S4         -3.4960   -4.0770   -5.6610 ss        1 A7I      0.623000
     25 H151        0.0220    2.8710    1.3200 hc        1 A7I      0.101500
     26 H152        0.0230    1.9070    0.0530 hc        1 A7I      0.101500
     27 H161        2.2100    1.2690    0.4590 h1        1 A7I      0.092000
     28 H162        2.1800    2.8580    0.4890 h1        1 A7I      0.092000
     29 H14        -1.1640    1.0100    1.8910 h1        1 A7I      0.101000
     30 H20         1.2590    3.4780    3.0700 h1        1 A7I      0.059000
     31 H181        2.2550    0.0800    2.7990 h1        1 A7I      0.092000
     32 H182        2.2620    1.0450    4.0660 h1        1 A7I      0.092000
     33 H221        2.1470    4.8260    1.4570 hc        1 A7I      0.078000
     34 H222        3.6050    4.1680    1.5900 hc        1 A7I      0.078000
     35 H223        3.1080    5.2550    2.6810 hc        1 A7I      0.078000
     36 H211        3.6930    2.7830    4.3230 hc        1 A7I      0.078000
     37 H212        2.2640    2.9840    5.0130 hc        1 A7I      0.078000
     38 H213        3.1320    4.2610    4.5950 hc        1 A7I      0.078000
     39 H191        0.1090    0.0890    3.6480 hc        1 A7I      0.101500
     40 H192        0.0820    1.6840    3.6640 hc        1 A7I      0.101500
     41 H13         0.9580   -0.5680    0.8820 hn        1 A7I      0.251000
     42 H101       -0.9080   -1.3370   -1.2970 ha        1 A7I      0.157500
     43 H102       -2.4320   -1.2420   -0.8650 ha        1 A7I      0.157500
     44 H91C       -2.2940   -3.6150   -0.3460 h1        1 A7I      0.113500
     45 H92C       -0.9100   -3.6140   -1.1440 h1        1 A7I      0.113500
     46 H8         -3.3880   -3.0240   -2.3650 hn        1 A7I      0.217000
     47 H2         -0.7570   -2.1120   -5.5120 DU        1 A7I      0.175000
     48 H1         -2.0020   -2.1130   -7.9580 DU        1 A7I      0.175000
@<TRIPOS>BOND
     1    1    2 1   
     2    1    9 1   
     3    1   25 1   
     4    1   26 1   
     5    2    3 1   
     6    2   27 1   
     7    2   28 1   
     8    3    4 1   
     9    3    7 1   
    10    4    5 1   
    11    4    6 1   
    12    4   30 1   
    13    5   33 1   
    14    5   34 1   
    15    5   35 1   
    16    6   36 1   
    17    6   37 1   
    18    6   38 1   
    19    7    8 1   
    20    7   31 1   
    21    7   32 1   
    22    8    9 1   
    23    8   39 1   
    24    8   40 1   
    25    9   10 1   
    26    9   29 1   
    27   10   11 1   
    28   10   41 1   
    29   11   12 1   
    30   11   13 1   
    31   14   15 1   
    32   14   42 1   
    33   14   43 1   
    34   15   16 1   
    35   15   44 1   
    36   15   45 1   
    37   16   17 1   
    38   16   46 1   
    39   17   18 1   
    40   17   19 1   
    41   19   20 1   
    42   19   24 1   
    43   20   21 1   
    44   21   22 1   
    45   22   24 1   
@<TRIPOS>SUBSTRUCTURE
     1 A7I         1 TEMP              0 ****  ****    0 ROOT
