@<TRIPOS>MOLECULE
A7I
   50    51     1     0     0
SMALL
bcc


@<TRIPOS>ATOM
      1 C15         1.1980   -0.0870   -0.2440 c3        1 A7I     -0.110900
      2 C16         2.3630   -0.4860    0.6760 c3        1 A7I      0.179300
      3 N17         1.9800   -0.4850    2.0730 n3        1 A7I     -0.750600
      4 C20         2.9830   -1.0120    3.0160 c3        1 A7I      0.191500
      5 C22         2.3020   -1.6850    4.2110 c3        1 A7I     -0.101600
      6 C21         3.9660   -2.0090    2.4060 c3        1 A7I     -0.101600
      7 C18         1.4570    0.8040    2.4930 c3        1 A7I      0.179300
      8 C19         0.2450    1.2360    1.6570 c3        1 A7I     -0.110900
      9 C14         0.6570    1.2790    0.1830 c3        1 A7I      0.119500
     10 N13        -0.5070    1.7110   -0.7020 ny        1 A7I     -0.751900
     11 S12        -0.7510    3.5100   -0.6460 s6        1 A7I      1.377900
     12 O23        -1.4730    3.7400    0.5030 o         1 A7I     -0.526300
     13 O24         0.4770    4.0630   -0.9300 o         1 A7I     -0.526300
     14 C10        -1.7840    3.6910   -2.0120 c3        1 A7I     -0.377600
     15 C9         -2.1870    5.1540   -2.1540 c3        1 A7I      0.128800
     16 N8         -3.0870    5.4360   -3.2990 ny        1 A7I     -0.690800
     17 C7         -3.4520    6.9550   -3.3900 c         1 A7I      0.636700
     18 O25        -2.9200    7.6430   -2.5340 o         1 A7I     -0.424100
     19 C3         -4.3380    7.2820   -4.4520 cc        1 A7I     -0.324700
     20 C2         -4.7440    8.6210   -4.6440 cd        1 A7I      0.028000
     21 C1         -5.6190    8.7520   -5.7390 cd        1 A7I     -0.169000
     22 C5         -5.8670    7.5260   -6.3610 cc        1 A7I      0.086300
     23 Cl6        -6.8450    7.3050   -7.6760 cl        1 A7I      0.096600
     24 S4         -5.0410    6.2760   -5.6060 ss        1 A7I      0.074200
     25 H151        1.5830   -0.0510   -1.2960 hc        1 A7I      0.075450
     26 H152        0.3920   -0.8650   -0.1790 hc        1 A7I      0.075450
     27 H161        3.2350    0.2010    0.4630 h1        1 A7I      0.065450
     28 H162        2.6630   -1.5340    0.3860 h1        1 A7I      0.065450
     29 H14         1.4700    2.0550    0.0280 hx        1 A7I      0.117700
     30 H20         3.6000   -0.1440    3.4130 h1        1 A7I      0.036700
     31 H181        1.1210    0.7170    3.5660 h1        1 A7I      0.065450
     32 H182        2.2350    1.6230    2.4390 h1        1 A7I      0.065450
     33 H221        1.6280   -0.9790    4.7510 hc        1 A7I      0.051700
     34 H222        3.0910   -2.0310    4.9220 hc        1 A7I      0.051700
     35 H223        1.7040   -2.5680    3.8820 hc        1 A7I      0.051700
     36 H211        4.6600   -2.3570    3.2110 hc        1 A7I      0.051700
     37 H212        4.5800   -1.5380    1.6010 hc        1 A7I      0.051700
     38 H213        3.4370   -2.9020    1.9940 hc        1 A7I      0.051700
     39 H191       -0.5910    0.5030    1.8120 hc        1 A7I      0.075450
     40 H192       -0.0930    2.2430    2.0150 hc        1 A7I      0.075450
     41 H13        -0.3050    1.3590   -1.6400 hn        1 A7I      0.467300
     42 H101       -2.7150    3.0630   -1.9210 h1        1 A7I      0.145200
     43 H102       -1.2810    3.3560   -2.9630 h1        1 A7I      0.145200
     44 H91C       -2.7200    5.5010   -1.2140 hx        1 A7I      0.140700
     45 H92C       -1.2620    5.7970   -2.2880 hx        1 A7I      0.140700
     46 H8         -2.6350    5.1630   -4.1760 hn        1 A7I      0.455800
     47 H2         -4.4160    9.4590   -4.0140 ha        1 A7I      0.203000
     48 H1         -6.0540    9.7090   -6.0620 ha        1 A7I      0.218000
     49 H132       -1.3290    1.2010   -0.3630 hn        1 A7I      0.467300
     50 H82        -3.9560    4.9030   -3.2020 hn        1 A7I      0.455800
@<TRIPOS>BOND
     1    1    2 1   
     2    1    9 1   
     3    1   25 1   
     4    1   26 1   
     5    2    3 1   
     6    2   27 1   
     7    2   28 1   
     8    3    4 1   
     9    3    7 1   
    10    4    5 1   
    11    4    6 1   
    12    4   30 1   
    13    5   33 1   
    14    5   34 1   
    15    5   35 1   
    16    6   36 1   
    17    6   37 1   
    18    6   38 1   
    19    7    8 1   
    20    7   31 1   
    21    7   32 1   
    22    8    9 1   
    23    8   39 1   
    24    8   40 1   
    25    9   10 1   
    26    9   29 1   
    27   10   11 1   
    28   10   41 1   
    29   10   49 1   
    30   11   12 2   
    31   11   13 2   
    32   11   14 1   
    33   14   15 1   
    34   14   42 1   
    35   14   43 1   
    36   15   16 1   
    37   15   44 1   
    38   15   45 1   
    39   16   17 1   
    40   16   46 1   
    41   16   50 1   
    42   17   18 2   
    43   17   19 1   
    44   19   20 2   
    45   19   24 1   
    46   20   21 1   
    47   20   47 1   
    48   21   22 2   
    49   21   48 1   
    50   22   23 1   
    51   22   24 1   
@<TRIPOS>SUBSTRUCTURE
     1 A7I         1 TEMP              0 ****  ****    0 ROOT
