@<TRIPOS>MOLECULE
A7I
   50    51     1     0     0
SMALL
bcc


@<TRIPOS>ATOM
      1 C15         1.2140   -0.0790   -0.2540 c3        1 A7I     -0.110900
      2 C16         2.3980   -0.4670    0.6460 c3        1 A7I      0.179300
      3 N17         2.0420   -0.4530    2.0500 n3        1 A7I     -0.750600
      4 C20         3.0660   -0.9700    2.9780 c3        1 A7I      0.191500
      5 C22         2.4090   -1.6340    4.1920 c3        1 A7I     -0.101600
      6 C21         4.0390   -1.9690    2.3580 c3        1 A7I     -0.101600
      7 C18         1.5240    0.8380    2.4680 c3        1 A7I      0.179300
      8 C19         0.2940    1.2580    1.6530 c3        1 A7I     -0.110900
      9 C14         0.6770    1.2890    0.1710 c3        1 A7I      0.119500
     10 N13        -0.5050    1.7100   -0.6950 n4        1 A7I     -0.751900
     11 S12        -0.7530    3.5090   -0.6510 s6        1 A7I      1.377900
     12 O23        -1.4520    3.7480    0.5100 o         1 A7I     -0.526300
     13 O24         0.4670    4.0620   -0.9650 o         1 A7I     -0.526300
     14 C10        -1.8150    3.6740   -1.9970 c3        1 A7I     -0.377600
     15 C9         -2.2250    5.1350   -2.1440 c3        1 A7I      0.128800
     16 N8         -3.1490    5.4040   -3.2720 n4        1 A7I     -0.690800
     17 C7         -3.5190    6.9210   -3.3710 c         1 A7I      0.636700
     18 O25        -2.9680    7.6190   -2.5360 o         1 A7I     -0.424100
     19 C3         -4.4320    7.2350   -4.4140 cc        1 A7I     -0.324700
     20 C2         -4.8460    8.5710   -4.6100 cd        1 A7I      0.028000
     21 C1         -5.7480    8.6890   -5.6840 cd        1 A7I     -0.169000
     22 C5         -6.0090    7.4550   -6.2870 cc        1 A7I      0.086300
     23 CL6        -7.0190    7.2200   -7.5740 cl        1 A7I      0.096600
     24 S4         -5.1610    6.2150   -5.5400 ss        1 A7I      0.074200
     25 H151        0.4120   -0.8580   -0.1670 hc        1 A7I      0.075450
     26 H152        1.5770   -0.0520   -1.3140 hc        1 A7I      0.075450
     27 H161        3.2630    0.2210    0.4100 h1        1 A7I      0.065450
     28 H162        2.6950   -1.5170    0.3600 h1        1 A7I      0.065450
     29 H14         1.4850    2.0660   -0.0070 hx        1 A7I      0.117700
     30 H20         3.6870   -0.0970    3.3560 h1        1 A7I      0.036700
     31 H181        2.2980    1.6580    2.3920 h1        1 A7I      0.065450
     32 H182        1.2100    0.7590    3.5480 h1        1 A7I      0.065450
     33 H221        1.7440   -0.9250    4.7390 hc        1 A7I      0.051700
     34 H222        3.2130   -1.9720    4.8910 hc        1 A7I      0.051700
     35 H223        1.8080   -2.5220    3.8820 hc        1 A7I      0.051700
     36 H211        4.7500   -2.3080    3.1520 hc        1 A7I      0.051700
     37 H212        4.6360   -1.5040    1.5370 hc        1 A7I      0.051700
     38 H213        3.5050   -2.8670    1.9640 hc        1 A7I      0.051700
     39 H191       -0.5360    0.5250    1.8310 hc        1 A7I      0.075450
     40 H192       -0.0390    2.2680    2.0090 hc        1 A7I      0.075450
     41 H13        -1.3190    1.2010   -0.3350 hn        1 A7I      0.467300
     42 H101       -1.3310    3.3320   -2.9550 h1        1 A7I      0.145200
     43 H102       -2.7420    3.0440   -1.8800 h1        1 A7I      0.145200
     44 H91C       -1.3040    5.7790   -2.3030 hx        1 A7I      0.141200
     45 H92C       -2.7390    5.4890   -1.1960 hx        1 A7I      0.141200
     46 H8         -4.0150    4.8700   -3.1520 hn        1 A7I      0.455800
     47 H2         -4.5040    9.4160   -3.9970 ha        1 A7I      0.203000
     48 H1         -6.1920    9.6410   -6.0060 ha        1 A7I      0.218000
     49 H132       -0.3210    1.3500   -1.6340 hn        1 A7I      0.467300
     50 H82        -2.7140    5.1230   -4.1570 hn        1 A7I      0.455800
@<TRIPOS>BOND
     1    1    2 1   
     2    1    9 1   
     3    1   25 1   
     4    1   26 1   
     5    2    3 1   
     6    2   27 1   
     7    2   28 1   
     8    3    4 1   
     9    3    7 1   
    10    4    5 1   
    11    4    6 1   
    12    4   30 1   
    13    5   33 1   
    14    5   34 1   
    15    5   35 1   
    16    6   36 1   
    17    6   37 1   
    18    6   38 1   
    19    7    8 1   
    20    7   31 1   
    21    7   32 1   
    22    8    9 1   
    23    8   39 1   
    24    8   40 1   
    25    9   10 1   
    26    9   29 1   
    27   10   11 1   
    28   10   41 1   
    29   10   49 1   
    30   11   12 2   
    31   11   13 2   
    32   11   14 1   
    33   14   15 1   
    34   14   42 1   
    35   14   43 1   
    36   15   16 1   
    37   15   44 1   
    38   15   45 1   
    39   16   17 1   
    40   16   46 1   
    41   16   50 1   
    42   17   18 2   
    43   17   19 1   
    44   19   20 2   
    45   19   24 1   
    46   20   21 1   
    47   20   47 1   
    48   21   22 2   
    49   21   48 1   
    50   22   23 1   
    51   22   24 1   
@<TRIPOS>SUBSTRUCTURE
     1 A7I         1 TEMP              0 ****  ****    0 ROOT
