@<TRIPOS>MOLECULE
A7I
   48    49     1     0     0
SMALL
bcc


@<TRIPOS>ATOM
      1 C15         2.7190   -0.5080    0.7540 c3        1 A7I     -0.098400
      2 C16         3.3330   -1.4200   -0.3040 c3        1 A7I      0.168800
      3 N17         4.7890   -1.3860   -0.3500 n3        1 A7I     -0.726600
      4 C20         5.3210   -2.2260   -1.4390 c3        1 A7I      0.183500
      5 C22         6.8510   -2.2580   -1.4600 c3        1 A7I     -0.094100
      6 C21         4.8170   -3.6690   -1.3650 c3        1 A7I     -0.094100
      7 C18         5.3200   -0.0300   -0.4070 c3        1 A7I      0.168800
      8 C19         4.7480    0.9090    0.6500 c3        1 A7I     -0.098400
      9 C14         3.2140    0.9330    0.5660 c3        1 A7I      0.236500
     10 N13         2.6180    1.8620    1.4980 n3        1 A7I     -0.923100
     11 S12         1.7020    3.1150    1.0970 s6        1 A7I      1.462900
     12 O23         1.6820    4.0370    2.1670 o         1 A7I     -0.653300
     13 O24         2.0360    3.6180   -0.1780 o         1 A7I     -0.653300
     14 C10         0.1060    2.4580    0.9930 c3        1 A7I     -0.358600
     15 C9         -0.1960    1.8210   -0.3600 c3        1 A7I      0.120000
     16 N8         -1.4880    1.2090   -0.4830 n         1 A7I     -0.549900
     17 C7         -1.7120   -0.0750    0.0080 c         1 A7I      0.700700
     18 O25        -0.7670   -0.7760    0.4250 o         1 A7I     -0.599100
     19 C3         -3.0910   -0.5820   -0.0390 cc        1 A7I     -0.203700
     20 C2         -3.4880   -1.7280    0.6350 cd        1 A7I     -0.075000
     21 C1         -4.8670   -2.0130    0.4270 cd        1 A7I     -0.162000
     22 C5         -5.4580   -1.0730   -0.4030 cc        1 A7I     -0.016700
     23 CL6        -7.0590   -1.0790   -0.8750 cl        1 A7I     -0.017400
     24 S4         -4.3600    0.0950   -0.9000 ss        1 A7I      0.080200
     25 H151        1.6010   -0.5640    0.6580 hc        1 A7I      0.060950
     26 H152        2.9930   -0.8730    1.7780 hc        1 A7I      0.060950
     27 H161        3.0260   -2.4760   -0.0550 h1        1 A7I      0.036200
     28 H162        2.8810   -1.1590   -1.3070 h1        1 A7I      0.036200
     29 H14         2.9290    1.2760   -0.4770 h1        1 A7I      0.065700
     30 H20         4.9820   -1.8050   -2.4390 h1        1 A7I      0.016700
     31 H181        6.4320   -0.0950   -0.2340 h1        1 A7I      0.036200
     32 H182        5.1570    0.4360   -1.4250 h1        1 A7I      0.036200
     33 H221        7.2600   -2.5290   -0.4580 hc        1 A7I      0.040033
     34 H222        7.1900   -3.0210   -2.2010 hc        1 A7I      0.040033
     35 H223        7.2690   -1.2700   -1.7680 hc        1 A7I      0.040033
     36 H211        4.9920   -4.1040   -0.3520 hc        1 A7I      0.040033
     37 H212        3.7280   -3.7260   -1.6000 hc        1 A7I      0.040033
     38 H213        5.3650   -4.2860   -2.1180 hc        1 A7I      0.040033
     39 H191        5.0680    0.5770    1.6710 hc        1 A7I      0.060950
     40 H192        5.1670    1.9330    0.4720 hc        1 A7I      0.060950
     41 H13         2.8340    1.6570    2.4450 hn        1 A7I      0.453800
     42 H101       -0.0880    1.7010    1.7980 h1        1 A7I      0.116200
     43 H102       -0.6280    3.2860    1.1840 h1        1 A7I      0.116200
     44 H91C       -0.1140    2.6140   -1.1600 h1        1 A7I      0.076200
     45 H92C        0.5830    1.0270   -0.5630 h1        1 A7I      0.076200
     46 H8         -2.2650    1.8270   -0.5350 hn        1 A7I      0.303500
     47 H2         -2.8200   -2.3400    1.2490 ha        1 A7I      0.179000
     48 H1         -5.3800   -2.8700    0.8720 ha        1 A7I      0.172000
@<TRIPOS>BOND
     1    1    2 1   
     2    1    9 1   
     3    1   25 1   
     4    1   26 1   
     5    2    3 1   
     6    2   27 1   
     7    2   28 1   
     8    3    4 1   
     9    3    7 1   
    10    4    5 1   
    11    4    6 1   
    12    4   30 1   
    13    5   33 1   
    14    5   34 1   
    15    5   35 1   
    16    6   36 1   
    17    6   37 1   
    18    6   38 1   
    19    7    8 1   
    20    7   31 1   
    21    7   32 1   
    22    8    9 1   
    23    8   39 1   
    24    8   40 1   
    25    9   10 1   
    26    9   29 1   
    27   10   11 1   
    28   10   41 1   
    29   11   12 2   
    30   11   13 2   
    31   11   14 1   
    32   14   15 1   
    33   14   42 1   
    34   14   43 1   
    35   15   16 1   
    36   15   44 1   
    37   15   45 1   
    38   16   17 1   
    39   16   46 1   
    40   17   18 2   
    41   17   19 1   
    42   19   20 2   
    43   19   24 1   
    44   20   21 1   
    45   20   47 1   
    46   21   22 2   
    47   21   48 1   
    48   22   23 1   
    49   22   24 1   
@<TRIPOS>SUBSTRUCTURE
     1 A7I         1 TEMP              0 ****  ****    0 ROOT
