@<TRIPOS>MOLECULE
A7T
   83    88     1     0     0
SMALL
bcc


@<TRIPOS>ATOM
      1 O26         1.7360    2.0780   -0.0680 o         1 A7T     -0.419100
      2 C23         2.0340    0.9290   -0.3510 c         1 A7T      0.597300
      3 N27         2.1470   -0.0670    0.8160 n4        1 A7T     -0.562200
      4 C32         0.7790   -0.3110    1.3870 c3        1 A7T      0.161100
      5 C36         0.6410   -1.6190    2.0980 ca        1 A7T     -0.150300
      6 C38         0.9840   -2.7930    1.4150 ca        1 A7T     -0.135000
      7 C41         0.8360   -4.0310    2.0310 ca        1 A7T     -0.116000
      8 C42         0.3290   -4.1020    3.3260 ca        1 A7T     -0.098000
      9 C39        -0.0470   -2.9420    4.0130 ca        1 A7T     -0.058300
     10 C43        -0.6040   -3.0720    5.3810 c3        1 A7T     -0.065800
     11 C37         0.1050   -1.6830    3.3980 ca        1 A7T     -0.047300
     12 C40        -0.3190   -0.4450    4.0970 c3        1 A7T     -0.073800
     13 C31         3.1730    0.4070    1.7600 cx        1 A7T      0.004500
     14 C35         3.2640   -0.0470    3.2010 cx        1 A7T     -0.097400
     15 C34         2.9140    1.3750    2.8950 cx        1 A7T     -0.097400
     16 C21         2.3470    0.3450   -1.6590 ce        1 A7T     -0.303400
     17 C24         3.7780    0.5400   -2.1330 c3        1 A7T      0.221700
     18 N28         3.8680    0.5690   -3.5890 n3        1 A7T     -0.774200
     19 C29         4.6620   -0.6260   -1.5990 c3        1 A7T      0.165800
     20 N33         4.2570   -1.9050   -2.1490 n3        1 A7T     -0.833200
     21 C30         4.1030   -1.8920   -3.5950 c3        1 A7T      0.159800
     22 C25         3.2960   -0.6700   -4.1150 c3        1 A7T      0.156500
     23 C22         1.8050   -0.8320   -3.7720 c3        1 A7T     -0.094200
     24 C20         1.4330   -0.2920   -2.4290 cf        1 A7T      0.115600
     25 C19         0.0290   -0.4530   -2.0550 ca        1 A7T     -0.192800
     26 C17        -0.7380    0.6670   -1.6830 ca        1 A7T     -0.077500
     27 C15        -2.0870    0.5390   -1.3920 ca        1 A7T     -0.183500
     28 C18        -0.5890   -1.7090   -2.1290 ca        1 A7T     -0.077500
     29 C16        -1.9390   -1.8590   -1.8290 ca        1 A7T     -0.183500
     30 C14        -2.6950   -0.7330   -1.4670 ca        1 A7T      0.172100
     31 O13        -4.0240   -0.7580   -1.1370 os        1 A7T     -0.315900
     32 C12        -4.7390   -1.9680   -1.4470 c3        1 A7T      0.121400
     33 C8         -6.2170   -1.6130   -1.3360 c3        1 A7T      0.122400
     34 O5         -6.6570   -1.3870   -2.6860 os        1 A7T     -0.329900
     35 C3         -8.0060   -1.0760   -2.7760 ca        1 A7T      0.083100
     36 C6         -8.4260    0.2670   -2.7790 ca        1 A7T      0.018900
     37 CL9        -7.3240    1.5320   -2.5150 cl        1 A7T     -0.072400
     38 C10        -9.7680    0.5810   -3.0050 ca        1 A7T     -0.119500
     39 C7        -10.7050   -0.4350   -3.2210 ca        1 A7T     -0.051300
     40 C11       -12.1240   -0.0960   -3.4780 c3        1 A7T     -0.061800
     41 C4        -10.2940   -1.7720   -3.2060 ca        1 A7T     -0.119500
     42 C2         -8.9540   -2.0950   -2.9810 ca        1 A7T      0.018900
     43 CL1        -8.5010   -3.7330   -2.9670 cl        1 A7T     -0.072400
     44 H32         0.0610   -0.3050    0.5060 hx        1 A7T      0.110200
     45 H32A        0.5260    0.5640    2.0490 hx        1 A7T      0.110200
     46 H38         1.3490   -2.7550    0.3770 ha        1 A7T      0.129000
     47 H41         1.1130   -4.9520    1.4950 ha        1 A7T      0.151000
     48 H42         0.2130   -5.0850    3.8130 ha        1 A7T      0.154000
     49 H43        -1.6490   -2.6710    5.4180 hc        1 A7T      0.058700
     50 H43A        0.0210   -2.5060    6.1170 hc        1 A7T      0.058700
     51 H43B       -0.6340   -4.1420    5.7050 hc        1 A7T      0.058700
     52 H40        -1.1270    0.0690    3.5170 hc        1 A7T      0.056367
     53 H40A       -0.7210   -0.6540    5.1190 hc        1 A7T      0.056367
     54 H40B        0.5440    0.2600    4.2130 hc        1 A7T      0.056367
     55 H31         4.1320    0.5330    1.1980 hx        1 A7T      0.124700
     56 H35         4.2700   -0.2960    3.5910 hc        1 A7T      0.106450
     57 H35A        2.4850   -0.7160    3.6150 hc        1 A7T      0.106450
     58 H34         1.8910    1.7410    3.0990 hc        1 A7T      0.106450
     59 H34A        3.6650    2.1740    3.0530 hc        1 A7T      0.106450
     60 H24         4.1820    1.5120   -1.7300 h1        1 A7T      0.082700
     61 HN28        3.3900    1.3680   -3.9610 hn        1 A7T      0.380800
     62 H29         4.5590   -0.6860   -0.4810 h1        1 A7T      0.036200
     63 H29A        5.7380   -0.3670   -1.8280 h1        1 A7T      0.036200
     64 HN33        4.9230   -2.6120   -1.8900 hn        1 A7T      0.376800
     65 H30         5.0990   -1.8900   -4.1270 h1        1 A7T      0.053700
     66 H30A        3.5580   -2.8330   -3.8830 h1        1 A7T      0.053700
     67 H25         3.4050   -0.6510   -5.2380 h1        1 A7T      0.091700
     68 H22         1.1830   -0.2950   -4.5410 hc        1 A7T      0.087700
     69 H22A        1.5250   -1.9190   -3.8210 hc        1 A7T      0.087700
     70 H17        -0.2680    1.6640   -1.6490 ha        1 A7T      0.145500
     71 H15        -2.6980    1.4130   -1.1210 ha        1 A7T      0.163000
     72 H18        -0.0030   -2.5950   -2.4230 ha        1 A7T      0.145500
     73 H16        -2.4030   -2.8550   -1.8860 ha        1 A7T      0.163000
     74 H12        -4.4600   -2.7470   -0.6920 h1        1 A7T      0.065200
     75 H12A       -4.4910   -2.3120   -2.4860 h1        1 A7T      0.065200
     76 H8         -6.3710   -0.6840   -0.7280 h1        1 A7T      0.065200
     77 H8A        -6.7880   -2.4710   -0.8960 h1        1 A7T      0.065200
     78 H10       -10.0910    1.6340   -3.0140 ha        1 A7T      0.157500
     79 H11       -12.8020   -0.9010   -3.1000 hc        1 A7T      0.055367
     80 H11A      -12.2920    0.0150   -4.5800 hc        1 A7T      0.055367
     81 H11B      -12.4030    0.8660   -2.9820 hc        1 A7T      0.055367
     82 H4        -11.0320   -2.5720   -3.3740 ha        1 A7T      0.157500
     83 H271        2.4920   -0.9620    0.4290 hn        1 A7T      0.465800
@<TRIPOS>BOND
     1    1    2 2   
     2    2    3 1   
     3    2   16 1   
     4    3    4 1   
     5    3   13 1   
     6    3   83 1   
     7    4    5 1   
     8    4   44 1   
     9    4   45 1   
    10    5    6 ar  
    11    5   11 ar  
    12    6    7 ar  
    13    6   46 1   
    14    7    8 ar  
    15    7   47 1   
    16    8    9 ar  
    17    8   48 1   
    18    9   10 1   
    19    9   11 ar  
    20   10   49 1   
    21   10   50 1   
    22   10   51 1   
    23   11   12 1   
    24   12   52 1   
    25   12   53 1   
    26   12   54 1   
    27   13   14 1   
    28   13   15 1   
    29   13   55 1   
    30   14   15 1   
    31   14   56 1   
    32   14   57 1   
    33   15   58 1   
    34   15   59 1   
    35   16   17 1   
    36   16   24 2   
    37   17   18 1   
    38   17   19 1   
    39   17   60 1   
    40   18   22 1   
    41   18   61 1   
    42   19   20 1   
    43   19   62 1   
    44   19   63 1   
    45   20   21 1   
    46   20   64 1   
    47   21   22 1   
    48   21   65 1   
    49   21   66 1   
    50   22   23 1   
    51   22   67 1   
    52   23   24 1   
    53   23   68 1   
    54   23   69 1   
    55   24   25 1   
    56   25   26 ar  
    57   25   28 ar  
    58   26   27 ar  
    59   26   70 1   
    60   27   30 ar  
    61   27   71 1   
    62   28   29 ar  
    63   28   72 1   
    64   29   30 ar  
    65   29   73 1   
    66   30   31 1   
    67   31   32 1   
    68   32   33 1   
    69   32   74 1   
    70   32   75 1   
    71   33   34 1   
    72   33   76 1   
    73   33   77 1   
    74   34   35 1   
    75   35   36 ar  
    76   35   42 ar  
    77   36   37 1   
    78   36   38 ar  
    79   38   39 ar  
    80   38   78 1   
    81   39   40 1   
    82   39   41 ar  
    83   40   79 1   
    84   40   80 1   
    85   40   81 1   
    86   41   42 ar  
    87   41   82 1   
    88   42   43 1   
@<TRIPOS>SUBSTRUCTURE
     1 A7T         1 TEMP              0 ****  ****    0 ROOT
