@<TRIPOS>MOLECULE
A7T
   82    80     1     0     0
SMALL
bcc


@<TRIPOS>ATOM
      1 O26         0.7450   -1.5100    1.2850 o         1 A7T     -0.363000
      2 C23         1.8630   -1.0240    1.3130 c1        1 A7T      0.364000
      3 N27         2.6510   -1.0830    2.5420 n2        1 A7T     -0.299000
      4 C32         3.9290   -0.3940    2.6170 c3        1 A7T      0.020000
      5 C36         3.9140    0.5920    3.8060 c2        1 A7T     -0.097000
      6 C38         2.7880    1.3740    4.0460 c1        1 A7T     -0.113000
      7 C41         2.8020    2.3200    5.0690 c1        1 A7T     -0.127500
      8 C42         3.9430    2.4840    5.8520 c1        1 A7T     -0.127500
      9 C39         5.0700    1.7010    5.6130 c1        1 A7T     -0.069000
     10 C43         6.3370    1.9100    6.4470 c3        1 A7T     -0.178000
     11 C37         5.0570    0.7550    4.5910 c2        1 A7T     -0.072000
     12 C40         6.3090   -0.0900    4.3110 c3        1 A7T     -0.181000
     13 C31         2.1020   -1.7180    3.7220 cx        1 A7T     -0.031000
     14 C35         3.1110   -2.1430    4.7730 cx        1 A7T     -0.228500
     15 C34         2.4420   -3.1870    3.8970 cx        1 A7T     -0.228500
     16 C21         2.4970   -0.4760    0.0170 c2        1 A7T     -0.187000
     17 C24         3.6840   -1.1050   -0.5330 c3        1 A7T     -0.036000
     18 N28         4.3210   -0.4190   -1.7310 n3        1 A7T     -0.258000
     19 C29         3.3090   -2.5360   -0.9560 c3        1 A7T     -0.077000
     20 N33         3.6030   -2.7200   -2.4290 n3        1 A7T     -0.259000
     21 C30         3.0260   -1.5550   -3.2140 c3        1 A7T     -0.077000
     22 C25         3.6000   -0.1600   -2.6140 c3        1 A7T     -0.079000
     23 C22         2.2760    0.8250   -2.2090 c3        1 A7T     -0.165000
     24 C20         1.5710    0.3220   -1.0720 c2        1 A7T      0.005000
     25 C19         0.0490    0.0260   -1.1670 c2        1 A7T     -0.101000
     26 C17        -0.3930   -1.2530   -1.4960 c2        1 A7T     -0.073000
     27 C15        -1.7600   -1.5280   -1.5430 c1        1 A7T     -0.200000
     28 C18        -0.8740    1.0320   -0.8830 c1        1 A7T     -0.084000
     29 C16        -2.2410    0.7570   -0.9300 c1        1 A7T     -0.161000
     30 C14        -2.6840   -0.5230   -1.2600 c1        1 A7T      0.077000
     31 O13        -4.0720   -0.8380   -1.1730 os        1 A7T     -0.215000
     32 C12        -4.7140   -0.9720   -2.4370 c3        1 A7T     -0.026000
     33 C8         -5.6070    0.2490   -2.6890 c3        1 A7T     -0.055000
     34 O5         -6.9690   -0.1200   -2.5340 os        1 A7T     -0.219000
     35 C3         -7.8560    0.5930   -3.3780 c2        1 A7T      0.052000
     36 C6         -8.2300    1.8920   -3.0550 c2        1 A7T     -0.064000
     37 CL9        -7.7270    2.5920   -1.5360 cl        1 A7T      0.004000
     38 C10        -9.0700    2.6040   -3.9020 c1        1 A7T     -0.122000
     39 C7         -9.5350    2.0180   -5.0740 c1        1 A7T     -0.054000
     40 C11       -10.4060    2.8230   -6.0360 c3        1 A7T     -0.183000
     41 C4         -9.1610    0.7190   -5.3970 c1        1 A7T     -0.121000
     42 C2         -8.3220    0.0070   -4.5490 c1        1 A7T     -0.062000
     43 CL1        -7.9070   -1.6490   -4.9220 cl        1 A7T      0.016000
     44 H32         4.0840    0.1010    1.7840 h1        1 A7T      0.098000
     45 H32A        4.6480   -1.0510    2.7450 h1        1 A7T      0.098000
     46 H38         1.9860    1.2600    3.4950 ha        1 A7T      0.146000
     47 H41         2.0080    2.8720    5.2370 ha        1 A7T      0.132500
     48 H42         3.9530    3.1510    6.5730 ha        1 A7T      0.132500
     49 H43         6.9950    2.4170    5.9220 hc        1 A7T      0.082667
     50 H43A        6.1140    2.4110    7.2630 hc        1 A7T      0.082667
     51 H43B        6.7160    1.0370    6.6920 hc        1 A7T      0.082667
     52 H40         6.3040   -0.3830    3.3750 hc        1 A7T      0.082333
     53 H40A        6.3120   -0.8770    4.9000 hc        1 A7T      0.082333
     54 H40B        7.1140    0.4490    4.4820 hc        1 A7T      0.082333
     55 H31         1.2220   -1.4400    4.0620 h1        1 A7T      0.160000
     56 H35         2.7990   -2.1030    5.7060 hc        1 A7T      0.115000
     57 H35A        4.0480   -1.9510    4.5640 hc        1 A7T      0.115000
     58 H34         3.0070   -3.5800    3.1970 hc        1 A7T      0.115000
     59 H34A        1.7540   -3.7340    4.3370 hc        1 A7T      0.115000
     60 H24         4.3570   -1.1610    0.1800 h1        1 A7T      0.111000
     61 HN28        4.7530    0.3440   -1.4530 hn        1 A7T      0.152000
     62 H29         3.8370   -3.1820   -0.4330 h1        1 A7T      0.105500
     63 H29A        2.3540   -2.6860   -0.7920 h1        1 A7T      0.105500
     64 HN33        4.5110   -2.7560   -2.5580 hn        1 A7T      0.150000
     65 H30         3.2850   -1.6360   -4.1600 h1        1 A7T      0.094500
     66 H30A        2.0490   -1.5640   -3.1410 h1        1 A7T      0.094500
     67 H25         4.1210    0.2920   -3.3180 h1        1 A7T      0.104000
     68 H22         2.6090    1.7530   -2.2080 hc        1 A7T      0.103500
     69 H22A        1.6050    0.8780   -2.9270 hc        1 A7T      0.103500
     70 H17         0.2550   -1.9580   -1.6950 ha        1 A7T      0.166000
     71 H15        -2.0720   -2.4300   -1.7760 ha        1 A7T      0.162000
     72 H18        -0.5620    1.9330   -0.6510 ha        1 A7T      0.133000
     73 H16        -2.8910    1.4650   -0.7300 ha        1 A7T      0.148000
     74 H12        -4.0360   -1.0330   -3.1440 h1        1 A7T      0.115000
     75 H12A       -5.2650   -1.7870   -2.4400 h1        1 A7T      0.115000
     76 H8         -5.3850    0.9560   -2.0450 h1        1 A7T      0.097000
     77 H8A        -5.4600    0.5800   -3.6020 h1        1 A7T      0.097000
     78 H10        -9.3340    3.5220   -3.6740 ha        1 A7T      0.152000
     79 H11       -11.3250    2.4780   -6.0120 hc        1 A7T      0.090333
     80 H11A      -10.0490    2.7410   -6.9480 hc        1 A7T      0.090333
     81 H11B      -10.4030    3.7680   -5.7670 hc        1 A7T      0.090333
     82 H4         -9.4900    0.3050   -6.2240 ha        1 A7T      0.154000
@<TRIPOS>BOND
     1    1    2 1   
     2    2   16 1   
     3    3    4 1   
     4    3   13 1   
     5    4    5 1   
     6    4   44 1   
     7    4   45 1   
     8    5    6 1   
     9    5   11 1   
    10    6   46 1   
    11    7    8 1   
    12    7   47 1   
    13    8   48 1   
    14    9   10 1   
    15    9   11 1   
    16   10   49 1   
    17   10   50 1   
    18   10   51 1   
    19   11   12 1   
    20   12   52 1   
    21   12   53 1   
    22   12   54 1   
    23   13   14 1   
    24   13   15 1   
    25   13   55 1   
    26   14   15 1   
    27   14   56 1   
    28   14   57 1   
    29   15   58 1   
    30   15   59 1   
    31   16   17 1   
    32   16   24 1   
    33   17   18 1   
    34   17   19 1   
    35   17   60 1   
    36   18   22 1   
    37   18   61 1   
    38   19   20 1   
    39   19   62 1   
    40   19   63 1   
    41   20   21 1   
    42   20   64 1   
    43   21   22 1   
    44   21   65 1   
    45   21   66 1   
    46   22   23 1   
    47   22   67 1   
    48   23   24 1   
    49   23   68 1   
    50   23   69 1   
    51   24   25 1   
    52   25   26 1   
    53   25   28 1   
    54   26   27 1   
    55   26   70 1   
    56   27   71 1   
    57   28   72 1   
    58   29   30 1   
    59   29   73 1   
    60   30   31 1   
    61   31   32 1   
    62   32   33 1   
    63   32   74 1   
    64   32   75 1   
    65   33   34 1   
    66   33   76 1   
    67   33   77 1   
    68   34   35 1   
    69   35   36 1   
    70   35   42 1   
    71   36   37 1   
    72   36   38 1   
    73   38   78 1   
    74   39   40 1   
    75   39   41 1   
    76   40   79 1   
    77   40   80 1   
    78   40   81 1   
    79   41   82 1   
    80   42   43 1   
@<TRIPOS>SUBSTRUCTURE
     1 A7T         1 TEMP              0 ****  ****    0 ROOT
