@<TRIPOS>MOLECULE
A7T
   83    88     1     0     0
SMALL
bcc


@<TRIPOS>ATOM
      1 O26         1.7420    2.0780   -0.1010 o         1 A7T     -0.419100
      2 C23         2.0380    0.9270   -0.3750 c         1 A7T      0.597300
      3 N27         2.1510   -0.0590    0.8000 n4        1 A7T     -0.562200
      4 C32         0.7830   -0.2960    1.3750 c3        1 A7T      0.161100
      5 C36         0.6440   -1.5980    2.0980 ca        1 A7T     -0.150300
      6 C38         0.9840   -2.7780    1.4250 ca        1 A7T     -0.135000
      7 C41         0.8360   -4.0100    2.0530 ca        1 A7T     -0.116000
      8 C42         0.3290   -4.0690    3.3490 ca        1 A7T     -0.098000
      9 C39        -0.0440   -2.9020    4.0260 ca        1 A7T     -0.058300
     10 C43        -0.6000   -3.0200    5.3960 c3        1 A7T     -0.065800
     11 C37         0.1100   -1.6490    3.3990 ca        1 A7T     -0.047300
     12 C40        -0.3120   -0.4050    4.0880 c3        1 A7T     -0.073800
     13 C31         3.1790    0.4210    1.7390 cx        1 A7T      0.004500
     14 C35         3.2710   -0.0200    3.1830 cx        1 A7T     -0.097400
     15 C34         2.9230    1.4000    2.8660 cx        1 A7T     -0.097400
     16 C21         2.3480    0.3310   -1.6780 ce        1 A7T     -0.303400
     17 C24         3.7780    0.5190   -2.1550 c3        1 A7T      0.221700
     18 N28         3.8670    0.5350   -3.6120 n3        1 A7T     -0.774200
     19 C29         4.6620   -0.6430   -1.6130 c3        1 A7T      0.165800
     20 N33         4.2530   -1.9270   -2.1520 n3        1 A7T     -0.833200
     21 C30         4.0970   -1.9250   -3.5970 c3        1 A7T      0.159800
     22 C25         3.2920   -0.7070   -4.1270 c3        1 A7T      0.156500
     23 C22         1.8000   -0.8630   -3.7800 c3        1 A7T     -0.094200
     24 C20         1.4310   -0.3110   -2.4410 cf        1 A7T      0.115600
     25 C19         0.0270   -0.4670   -2.0640 ca        1 A7T     -0.192800
     26 C17        -0.7370    0.6580   -1.7000 ca        1 A7T     -0.077500
     27 C15        -2.0850    0.5350   -1.4070 ca        1 A7T     -0.183500
     28 C18        -0.5930   -1.7220   -2.1270 ca        1 A7T     -0.077500
     29 C16        -1.9430   -1.8670   -1.8230 ca        1 A7T     -0.183500
     30 C14        -2.6960   -0.7370   -1.4700 ca        1 A7T      0.172100
     31 O13        -4.0250   -0.7570   -1.1370 os        1 A7T     -0.315900
     32 C12        -4.7410   -1.9680   -1.4350 c3        1 A7T      0.121400
     33 C8         -6.2190   -1.6110   -1.3210 c3        1 A7T      0.122400
     34 O5         -6.6640   -1.3980   -2.6720 os        1 A7T     -0.329900
     35 C3         -8.0130   -1.0880   -2.7610 ca        1 A7T      0.083100
     36 C6         -8.4320    0.2550   -2.7760 ca        1 A7T      0.018900
     37 CL9        -7.3290    1.5230   -2.5300 cl        1 A7T     -0.072400
     38 C10        -9.7750    0.5670   -3.0000 ca        1 A7T     -0.119500
     39 C7        -10.7130   -0.4510   -3.2020 ca        1 A7T     -0.051300
     40 C11       -12.1330   -0.1140   -3.4580 c3        1 A7T     -0.061800
     41 C4        -10.3020   -1.7870   -3.1750 ca        1 A7T     -0.119500
     42 C2         -8.9620   -2.1090   -2.9520 ca        1 A7T      0.018900
     43 CL1        -8.5090   -3.7470   -2.9220 cl        1 A7T     -0.072400
     44 H32         0.0640   -0.2960    0.4960 hx        1 A7T      0.110200
     45 H32A        0.5320    0.5850    2.0300 hx        1 A7T      0.110200
     46 H38         1.3480   -2.7490    0.3860 ha        1 A7T      0.129000
     47 H41         1.1110   -4.9360    1.5240 ha        1 A7T      0.151000
     48 H42         0.2120   -5.0470    3.8440 ha        1 A7T      0.154000
     49 H43        -0.6310   -4.0870    5.7280 hc        1 A7T      0.058700
     50 H43A       -1.6440   -2.6160    5.4300 hc        1 A7T      0.058700
     51 H43B        0.0260   -2.4480    6.1260 hc        1 A7T      0.058700
     52 H40        -0.7120   -0.6040    5.1120 hc        1 A7T      0.056367
     53 H40A        0.5520    0.3000    4.1970 hc        1 A7T      0.056367
     54 H40B       -1.1200    0.1060    3.5040 hc        1 A7T      0.056367
     55 H31         4.1370    0.5410    1.1750 hx        1 A7T      0.124700
     56 H35         2.4910   -0.6840    3.6050 hc        1 A7T      0.106450
     57 H35A        4.2770   -0.2680    3.5740 hc        1 A7T      0.106450
     58 H34         3.6750    2.1990    3.0150 hc        1 A7T      0.106450
     59 H34A        1.9010    1.7690    3.0680 hc        1 A7T      0.106450
     60 H24         4.1850    1.4940   -1.7620 h1        1 A7T      0.082700
     61 HN28        3.3890    1.3330   -3.9910 hn        1 A7T      0.380800
     62 H29         4.5600   -0.6940   -0.4950 h1        1 A7T      0.036200
     63 H29A        5.7370   -0.3890   -1.8460 h1        1 A7T      0.036200
     64 HN33        4.9180   -2.6320   -1.8880 hn        1 A7T      0.376800
     65 H30         3.5500   -2.8680   -3.8770 h1        1 A7T      0.053700
     66 H30A        5.0920   -1.9300   -4.1310 h1        1 A7T      0.053700
     67 H25         3.3980   -0.6970   -5.2500 h1        1 A7T      0.091700
     68 H22         1.5190   -1.9500   -3.8200 hc        1 A7T      0.087700
     69 H22A        1.1780   -0.3320   -4.5530 hc        1 A7T      0.087700
     70 H17        -0.2650    1.6540   -1.6750 ha        1 A7T      0.145500
     71 H15        -2.6950    1.4120   -1.1420 ha        1 A7T      0.163000
     72 H18        -0.0090   -2.6110   -2.4140 ha        1 A7T      0.145500
     73 H16        -2.4080   -2.8620   -1.8710 ha        1 A7T      0.163000
     74 H12        -4.4970   -2.3210   -2.4710 h1        1 A7T      0.065200
     75 H12A       -4.4620   -2.7420   -0.6740 h1        1 A7T      0.065200
     76 H8         -6.3700   -0.6760   -0.7220 h1        1 A7T      0.065200
     77 H8A        -6.7890   -2.4640   -0.8710 h1        1 A7T      0.065200
     78 H10       -10.0980    1.6200   -3.0200 ha        1 A7T      0.157500
     79 H11       -12.3050   -0.0120   -4.5600 hc        1 A7T      0.055367
     80 H11A      -12.8100   -0.9150   -3.0710 hc        1 A7T      0.055367
     81 H11B      -12.4110    0.8520   -2.9690 hc        1 A7T      0.055367
     82 H4        -11.0410   -2.5890   -3.3320 ha        1 A7T      0.157500
     83 H271        2.4940   -0.9580    0.4210 hn        1 A7T      0.465800
@<TRIPOS>BOND
     1    1    2 2   
     2    2    3 1   
     3    2   16 1   
     4    3    4 1   
     5    3   13 1   
     6    3   83 1   
     7    4    5 1   
     8    4   44 1   
     9    4   45 1   
    10    5    6 ar  
    11    5   11 ar  
    12    6    7 ar  
    13    6   46 1   
    14    7    8 ar  
    15    7   47 1   
    16    8    9 ar  
    17    8   48 1   
    18    9   10 1   
    19    9   11 ar  
    20   10   49 1   
    21   10   50 1   
    22   10   51 1   
    23   11   12 1   
    24   12   52 1   
    25   12   53 1   
    26   12   54 1   
    27   13   14 1   
    28   13   15 1   
    29   13   55 1   
    30   14   15 1   
    31   14   56 1   
    32   14   57 1   
    33   15   58 1   
    34   15   59 1   
    35   16   17 1   
    36   16   24 2   
    37   17   18 1   
    38   17   19 1   
    39   17   60 1   
    40   18   22 1   
    41   18   61 1   
    42   19   20 1   
    43   19   62 1   
    44   19   63 1   
    45   20   21 1   
    46   20   64 1   
    47   21   22 1   
    48   21   65 1   
    49   21   66 1   
    50   22   23 1   
    51   22   67 1   
    52   23   24 1   
    53   23   68 1   
    54   23   69 1   
    55   24   25 1   
    56   25   26 ar  
    57   25   28 ar  
    58   26   27 ar  
    59   26   70 1   
    60   27   30 ar  
    61   27   71 1   
    62   28   29 ar  
    63   28   72 1   
    64   29   30 ar  
    65   29   73 1   
    66   30   31 1   
    67   31   32 1   
    68   32   33 1   
    69   32   74 1   
    70   32   75 1   
    71   33   34 1   
    72   33   76 1   
    73   33   77 1   
    74   34   35 1   
    75   35   36 ar  
    76   35   42 ar  
    77   36   37 1   
    78   36   38 ar  
    79   38   39 ar  
    80   38   78 1   
    81   39   40 1   
    82   39   41 ar  
    83   40   79 1   
    84   40   80 1   
    85   40   81 1   
    86   41   42 ar  
    87   41   82 1   
    88   42   43 1   
@<TRIPOS>SUBSTRUCTURE
     1 A7T         1 TEMP              0 ****  ****    0 ROOT
