@<TRIPOS>MOLECULE
A7T
   83    88     1     0     0
SMALL
bcc


@<TRIPOS>ATOM
      1 O26         1.7410    2.0740   -0.0840 o         1 A7T     -0.419100
      2 C23         2.0380    0.9240   -0.3620 c         1 A7T      0.597300
      3 N27         2.1500   -0.0680    0.8100 nx        1 A7T     -0.562200
      4 C32         0.7820   -0.3070    1.3830 c3        1 A7T      0.161100
      5 C36         0.6430   -1.6110    2.1010 ca        1 A7T     -0.150300
      6 C38         0.9840   -2.7890    1.4230 ca        1 A7T     -0.135000
      7 C41         0.8360   -4.0240    2.0460 ca        1 A7T     -0.116000
      8 C42         0.3290   -4.0880    3.3410 ca        1 A7T     -0.098000
      9 C39        -0.0450   -2.9240    4.0230 ca        1 A7T     -0.058300
     10 C43        -0.6020   -3.0470    5.3920 c3        1 A7T     -0.065800
     11 C37         0.1090   -1.6690    3.4010 ca        1 A7T     -0.047300
     12 C40        -0.3140   -0.4260    4.0950 c3        1 A7T     -0.073800
     13 C31         3.1770    0.4100    1.7500 cx        1 A7T      0.004500
     14 C35         3.2700   -0.0370    3.1930 cx        1 A7T     -0.097400
     15 C34         2.9210    1.3840    2.8810 cx        1 A7T     -0.097400
     16 C21         2.3480    0.3330   -1.6670 ce        1 A7T     -0.303400
     17 C24         3.7780    0.5230   -2.1430 c3        1 A7T      0.221700
     18 N28         3.8680    0.5450   -3.5990 n7        1 A7T     -0.774200
     19 C29         4.6620   -0.6420   -1.6050 c3        1 A7T      0.165800
     20 N33         4.2530   -1.9230   -2.1490 n7        1 A7T     -0.833200
     21 C30         4.0980   -1.9160   -3.5950 c3        1 A7T      0.159800
     22 C25         3.2930   -0.6950   -4.1190 c3        1 A7T      0.156500
     23 C22         1.8010   -0.8530   -3.7740 c3        1 A7T     -0.094200
     24 C20         1.4310   -0.3060   -2.4330 cf        1 A7T      0.115600
     25 C19         0.0270   -0.4630   -2.0570 ca        1 A7T     -0.192800
     26 C17        -0.7370    0.6600   -1.6900 ca        1 A7T     -0.077500
     27 C15        -2.0850    0.5360   -1.3970 ca        1 A7T     -0.183500
     28 C18        -0.5930   -1.7180   -2.1260 ca        1 A7T     -0.077500
     29 C16        -1.9430   -1.8640   -1.8240 ca        1 A7T     -0.183500
     30 C14        -2.6960   -0.7350   -1.4660 ca        1 A7T      0.172100
     31 O13        -4.0250   -0.7560   -1.1350 os        1 A7T     -0.315900
     32 C12        -4.7430   -1.9650   -1.4420 c3        1 A7T      0.121400
     33 C8         -6.2200   -1.6070   -1.3330 c3        1 A7T      0.122400
     34 O5         -6.6590   -1.3840   -2.6840 os        1 A7T     -0.329900
     35 C3         -8.0070   -1.0710   -2.7760 ca        1 A7T      0.083100
     36 C6         -8.4240    0.2720   -2.7860 ca        1 A7T      0.018900
     37 Cl9        -7.3210    1.5370   -2.5270 cl        1 A7T     -0.072400
     38 C10        -9.7660    0.5870   -3.0160 ca        1 A7T     -0.119500
     39 C7        -10.7040   -0.4270   -3.2280 ca        1 A7T     -0.051300
     40 C11       -12.1280   -0.0890   -3.4590 c3        1 A7T     -0.061800
     41 C4        -10.2950   -1.7650   -3.2090 ca        1 A7T     -0.119500
     42 C2         -8.9560   -2.0900   -2.9800 ca        1 A7T      0.018900
     43 Cl1        -8.5050   -3.7280   -2.9590 cl        1 A7T     -0.072400
     44 H32         0.5310    0.5710    2.0410 hx        1 A7T      0.110200
     45 H32A        0.0640   -0.3040    0.5030 hx        1 A7T      0.110200
     46 H38         1.3490   -2.7560    0.3850 ha        1 A7T      0.129000
     47 H41         1.1110   -4.9470    1.5140 ha        1 A7T      0.151000
     48 H42         0.2120   -5.0680    3.8330 ha        1 A7T      0.154000
     49 H43         0.0240   -2.4780    6.1250 hc        1 A7T      0.058700
     50 H43A       -1.6450   -2.6440    5.4280 hc        1 A7T      0.058700
     51 H43B       -0.6320   -4.1150    5.7200 hc        1 A7T      0.058700
     52 H40        -0.7150   -0.6300    5.1180 hc        1 A7T      0.056367
     53 H40A        0.5500    0.2780    4.2070 hc        1 A7T      0.056367
     54 H40B       -1.1220    0.0860    3.5130 hc        1 A7T      0.056367
     55 H31         4.1360    0.5310    1.1880 hx        1 A7T      0.124700
     56 H35         2.4890   -0.7030    3.6120 hc        1 A7T      0.106450
     57 H35A        4.2750   -0.2860    3.5830 hc        1 A7T      0.106450
     58 H34         3.6730    2.1830    3.0340 hc        1 A7T      0.106450
     59 H34A        1.8980    1.7520    3.0850 hc        1 A7T      0.106450
     60 H24         4.1850    1.4970   -1.7450 h1        1 A7T      0.082700
     61 HN28        3.3900    1.3440   -3.9750 hn        1 A7T      0.380800
     62 H29         5.7370   -0.3860   -1.8370 h1        1 A7T      0.036200
     63 H29A        4.5600   -0.6960   -0.4870 h1        1 A7T      0.036200
     64 HN33        4.9190   -2.6300   -1.8880 hn        1 A7T      0.376800
     65 H30         5.0930   -1.9190   -4.1280 h1        1 A7T      0.053700
     66 H30A        3.5510   -2.8570   -3.8780 h1        1 A7T      0.053700
     67 H25         3.4000   -0.6810   -5.2430 h1        1 A7T      0.091700
     68 H22         1.5200   -1.9390   -3.8180 hc        1 A7T      0.087700
     69 H22A        1.1800   -0.3180   -4.5450 hc        1 A7T      0.087700
     70 H17        -0.2650    1.6560   -1.6600 ha        1 A7T      0.145500
     71 H15        -2.6950    1.4120   -1.1290 ha        1 A7T      0.163000
     72 H18        -0.0090   -2.6060   -2.4160 ha        1 A7T      0.145500
     73 H16        -2.4090   -2.8590   -1.8770 ha        1 A7T      0.163000
     74 H12        -4.4670   -2.7430   -0.6830 h1        1 A7T      0.065200
     75 H12A       -4.4950   -2.3140   -2.4790 h1        1 A7T      0.065200
     76 H8         -6.3720   -0.6750   -0.7280 h1        1 A7T      0.065200
     77 H8A        -6.7930   -2.4620   -0.8900 h1        1 A7T      0.065200
     78 H10       -10.0870    1.6410   -3.0330 ha        1 A7T      0.157500
     79 H11       -12.6780   -0.0790   -2.4840 hc        1 A7T      0.055367
     80 H11A      -12.2290    0.9200   -3.9290 hc        1 A7T      0.055367
     81 H11B      -12.6140   -0.8420   -4.1280 hc        1 A7T      0.055367
     82 H4        -11.0340   -2.5650   -3.3780 ha        1 A7T      0.157500
     83 H271        2.4940   -0.9640    0.4270 hn        1 A7T      0.465800
@<TRIPOS>BOND
     1    1    2 2   
     2    2    3 1   
     3    2   16 1   
     4    3    4 1   
     5    3   13 1   
     6    3   83 1   
     7    4    5 1   
     8    4   44 1   
     9    4   45 1   
    10    5    6 ar  
    11    5   11 ar  
    12    6    7 ar  
    13    6   46 1   
    14    7    8 ar  
    15    7   47 1   
    16    8    9 ar  
    17    8   48 1   
    18    9   10 1   
    19    9   11 ar  
    20   10   49 1   
    21   10   50 1   
    22   10   51 1   
    23   11   12 1   
    24   12   52 1   
    25   12   53 1   
    26   12   54 1   
    27   13   14 1   
    28   13   15 1   
    29   13   55 1   
    30   14   15 1   
    31   14   56 1   
    32   14   57 1   
    33   15   58 1   
    34   15   59 1   
    35   16   17 1   
    36   16   24 2   
    37   17   18 1   
    38   17   19 1   
    39   17   60 1   
    40   18   22 1   
    41   18   61 1   
    42   19   20 1   
    43   19   62 1   
    44   19   63 1   
    45   20   21 1   
    46   20   64 1   
    47   21   22 1   
    48   21   65 1   
    49   21   66 1   
    50   22   23 1   
    51   22   67 1   
    52   23   24 1   
    53   23   68 1   
    54   23   69 1   
    55   24   25 1   
    56   25   26 ar  
    57   25   28 ar  
    58   26   27 ar  
    59   26   70 1   
    60   27   30 ar  
    61   27   71 1   
    62   28   29 ar  
    63   28   72 1   
    64   29   30 ar  
    65   29   73 1   
    66   30   31 1   
    67   31   32 1   
    68   32   33 1   
    69   32   74 1   
    70   32   75 1   
    71   33   34 1   
    72   33   76 1   
    73   33   77 1   
    74   34   35 1   
    75   35   36 ar  
    76   35   42 ar  
    77   36   37 1   
    78   36   38 ar  
    79   38   39 ar  
    80   38   78 1   
    81   39   40 1   
    82   39   41 ar  
    83   40   79 1   
    84   40   80 1   
    85   40   81 1   
    86   41   42 ar  
    87   41   82 1   
    88   42   43 1   
@<TRIPOS>SUBSTRUCTURE
     1 A7T         1 TEMP              0 ****  ****    0 ROOT
