@<TRIPOS>MOLECULE
A7T
   82    87     1     0     0
SMALL
bcc


@<TRIPOS>ATOM
      1 O26         3.3580    0.9500    2.3990 o         1 A7T     -0.556100
      2 C23         3.9450    0.9110    1.3070 c         1 A7T      0.678300
      3 N27         4.6760   -0.2580    0.8840 n         1 A7T     -0.430800
      4 C32         3.9650   -1.5100    1.1160 c3        1 A7T      0.109300
      5 C36         4.2110   -2.5780    0.0860 ca        1 A7T     -0.077300
      6 C38         4.7370   -2.2810   -1.1730 ca        1 A7T     -0.113000
      7 C41         4.9420   -3.2950   -2.1070 ca        1 A7T     -0.137000
      8 C42         4.6220   -4.6110   -1.7890 ca        1 A7T     -0.131000
      9 C39         4.0810   -4.9260   -0.5370 ca        1 A7T     -0.078300
     10 C43         3.7510   -6.3400   -0.2330 c3        1 A7T     -0.050800
     11 C37         3.8610   -3.9060    0.4050 ca        1 A7T     -0.076300
     12 C40         3.2650   -4.2150    1.7280 c3        1 A7T     -0.057800
     13 C31         6.0670   -0.2890    1.2370 cx        1 A7T      0.016700
     14 C35         6.6160   -0.8350    2.5450 cx        1 A7T     -0.145900
     15 C34         6.7130    0.6300    2.2550 cx        1 A7T     -0.145900
     16 C21         3.8870    2.0540    0.3560 ce        1 A7T     -0.192400
     17 C24         5.1870    2.7610    0.0390 c3        1 A7T      0.207700
     18 N28         4.9900    4.2040   -0.1280 n3        1 A7T     -0.782200
     19 C29         5.8190    2.1620   -1.2510 c3        1 A7T      0.173800
     20 N33         5.1000    2.5030   -2.4620 n3        1 A7T     -0.820200
     21 C30         4.6990    3.8920   -2.5530 c3        1 A7T      0.169800
     22 C25         4.0580    4.4110   -1.2380 c3        1 A7T      0.155500
     23 C22         2.6890    3.7400   -1.0220 c3        1 A7T     -0.075200
     24 C20         2.7330    2.5020   -0.1810 cf        1 A7T      0.026600
     25 C19         1.4270    1.8590   -0.0060 ca        1 A7T     -0.118800
     26 C17         0.8100    1.7980    1.2530 ca        1 A7T     -0.073500
     27 C15        -0.4460    1.2240    1.3990 ca        1 A7T     -0.185500
     28 C18         0.7680    1.3230   -1.1190 ca        1 A7T     -0.073500
     29 C16        -0.4880    0.7350   -0.9900 ca        1 A7T     -0.185500
     30 C14        -1.0970    0.6910    0.2700 ca        1 A7T      0.135100
     31 O13        -2.3350    0.1360    0.5260 os        1 A7T     -0.330900
     32 C12        -3.0390   -0.3750   -0.6120 c3        1 A7T      0.124400
     33 C8         -4.3880   -0.8480   -0.0800 c3        1 A7T      0.124400
     34 O5         -5.3610    0.0480   -0.6500 os        1 A7T     -0.329900
     35 C3         -6.6520   -0.2010   -0.2160 ca        1 A7T      0.097100
     36 C6         -7.1720    0.4830    0.8990 ca        1 A7T      0.015400
     37 CL9        -6.1960    1.5110    1.8310 cl        1 A7T     -0.068400
     38 C10        -8.5140    0.3260    1.2540 ca        1 A7T     -0.122000
     39 C7         -9.3490   -0.5150    0.5130 ca        1 A7T     -0.062300
     40 C11       -10.7750   -0.6630    0.8850 c3        1 A7T     -0.056800
     41 C4         -8.8350   -1.2050   -0.5890 ca        1 A7T     -0.122000
     42 C2         -7.4950   -1.0550   -0.9530 ca        1 A7T      0.015400
     43 CL1        -6.9150   -1.9180   -2.2970 cl        1 A7T     -0.068400
     44 H32         4.2270   -1.9250    2.1360 h1        1 A7T      0.055700
     45 H32A        2.8550   -1.2910    1.1180 h1        1 A7T      0.055700
     46 H38         4.9880   -1.2440   -1.4440 ha        1 A7T      0.147000
     47 H41         5.3560   -3.0530   -3.0970 ha        1 A7T      0.129000
     48 H42         4.7930   -5.4100   -2.5250 ha        1 A7T      0.128000
     49 H43         4.2450   -6.6630    0.7180 hc        1 A7T      0.042367
     50 H43A        2.6450   -6.4660   -0.1170 hc        1 A7T      0.042367
     51 H43B        4.0940   -7.0190   -1.0520 hc        1 A7T      0.042367
     52 H40         2.7860   -5.2240    1.7460 hc        1 A7T      0.044700
     53 H40A        4.0560   -4.1910    2.5200 hc        1 A7T      0.044700
     54 H40B        2.4800   -3.4620    1.9930 hc        1 A7T      0.044700
     55 H31         6.6550   -0.5260    0.3180 h1        1 A7T      0.092700
     56 H35         5.9230   -1.1720    3.3360 hc        1 A7T      0.078200
     57 H35A        7.5250   -1.4600    2.5010 hc        1 A7T      0.078200
     58 H34         7.6930    1.0740    2.0050 hc        1 A7T      0.078200
     59 H34A        6.0800    1.3240    2.8400 hc        1 A7T      0.078200
     60 H24         5.9200    2.6020    0.8820 h1        1 A7T      0.073700
     61 HN28        4.6060    4.5930    0.7150 hn        1 A7T      0.361800
     62 H29         6.8950    2.5050   -1.2820 h1        1 A7T      0.043200
     63 H29A        5.8100    1.0390   -1.1650 h1        1 A7T      0.043200
     64 HN33        5.6500    2.2540   -3.2640 hn        1 A7T      0.363800
     65 H30         5.5600    4.5760   -2.8100 h1        1 A7T      0.034700
     66 H30A        3.9390    3.9730   -3.3790 h1        1 A7T      0.034700
     67 H25         3.8990    5.5210   -1.3550 h1        1 A7T      0.064700
     68 H22         1.9980    4.4700   -0.5170 hc        1 A7T      0.065200
     69 H22A        2.2360    3.4870   -2.0170 hc        1 A7T      0.065200
     70 H17         1.3370    2.1940    2.1370 ha        1 A7T      0.148500
     71 H15        -0.9370    1.1750    2.3810 ha        1 A7T      0.145000
     72 H18         1.2520    1.3560   -2.1080 ha        1 A7T      0.148500
     73 H16        -0.9820    0.3140   -1.8770 ha        1 A7T      0.145000
     74 H12        -3.1720    0.4340   -1.3780 h1        1 A7T      0.059700
     75 H12A       -2.4650   -1.2330   -1.0480 h1        1 A7T      0.059700
     76 H8         -4.6070   -1.8910   -0.4250 h1        1 A7T      0.060700
     77 H8A        -4.4280   -0.7900    1.0390 h1        1 A7T      0.060700
     78 H10        -8.9180    0.8680    2.1240 ha        1 A7T      0.152500
     79 H11       -11.3870    0.1140    0.3610 hc        1 A7T      0.050700
     80 H11A      -11.1630   -1.6700    0.5920 hc        1 A7T      0.050700
     81 H11B      -10.9170   -0.5360    1.9870 hc        1 A7T      0.050700
     82 H4         -9.4910   -1.8690   -1.1730 ha        1 A7T      0.152500
@<TRIPOS>BOND
     1    1    2 2   
     2    2    3 1   
     3    2   16 1   
     4    3    4 1   
     5    3   13 1   
     6    4    5 1   
     7    4   44 1   
     8    4   45 1   
     9    5    6 ar  
    10    5   11 ar  
    11    6    7 ar  
    12    6   46 1   
    13    7    8 ar  
    14    7   47 1   
    15    8    9 ar  
    16    8   48 1   
    17    9   10 1   
    18    9   11 ar  
    19   10   49 1   
    20   10   50 1   
    21   10   51 1   
    22   11   12 1   
    23   12   52 1   
    24   12   53 1   
    25   12   54 1   
    26   13   14 1   
    27   13   15 1   
    28   13   55 1   
    29   14   15 1   
    30   14   56 1   
    31   14   57 1   
    32   15   58 1   
    33   15   59 1   
    34   16   17 1   
    35   16   24 2   
    36   17   18 1   
    37   17   19 1   
    38   17   60 1   
    39   18   22 1   
    40   18   61 1   
    41   19   20 1   
    42   19   62 1   
    43   19   63 1   
    44   20   21 1   
    45   20   64 1   
    46   21   22 1   
    47   21   65 1   
    48   21   66 1   
    49   22   23 1   
    50   22   67 1   
    51   23   24 1   
    52   23   68 1   
    53   23   69 1   
    54   24   25 1   
    55   25   26 ar  
    56   25   28 ar  
    57   26   27 ar  
    58   26   70 1   
    59   27   30 ar  
    60   27   71 1   
    61   28   29 ar  
    62   28   72 1   
    63   29   30 ar  
    64   29   73 1   
    65   30   31 1   
    66   31   32 1   
    67   32   33 1   
    68   32   74 1   
    69   32   75 1   
    70   33   34 1   
    71   33   76 1   
    72   33   77 1   
    73   34   35 1   
    74   35   36 ar  
    75   35   42 ar  
    76   36   37 1   
    77   36   38 ar  
    78   38   39 ar  
    79   38   78 1   
    80   39   40 1   
    81   39   41 ar  
    82   40   79 1   
    83   40   80 1   
    84   40   81 1   
    85   41   42 ar  
    86   41   82 1   
    87   42   43 1   
@<TRIPOS>SUBSTRUCTURE
     1 A7T         1 TEMP              0 ****  ****    0 ROOT
