@<TRIPOS>MOLECULE
A80
   51    53     1     0     0
SMALL
bcc


@<TRIPOS>ATOM
      1 C1          0.2210    0.2870   -0.1510 c3        1 A80     -0.010700
      2 C2          1.6010    0.8890    0.1160 c3        1 A80     -0.073400
      3 C3          1.8860    1.0450    1.5870 c3        1 A80     -0.074400
      4 C4          0.9060    1.9970    2.2720 c3        1 A80     -0.016700
      5 C5         -0.5100    1.7310    1.8330 ca        1 A80     -0.008300
      6 C6         -1.5500    2.3270    2.5640 ca        1 A80     -0.112000
      7 C7         -2.8850    2.1220    2.2410 ca        1 A80     -0.097000
      8 C8         -3.1970    1.2880    1.1540 ca        1 A80     -0.049400
      9 C9         -2.1720    0.7010    0.3980 ca        1 A80     -0.106000
     10 C10        -0.8280    0.9290    0.7210 ca        1 A80     -0.042300
     11 N11        -4.5940    1.0410    0.7990 n4        1 A80     -0.552200
     12 C12        -5.1940    2.2120   -0.0060 c         1 A80      0.598700
     13 C13        -5.6530    3.3490    0.7550 ca        1 A80     -0.245600
     14 C14        -5.6770    4.5940    0.0880 ca        1 A80     -0.086000
     15 C15        -6.0520    5.7400    0.7750 ca        1 A80     -0.120500
     16 C16        -6.4210    5.6710    2.1230 ca        1 A80     -0.040600
     17 C17        -6.4440    4.4240    2.7720 ca        1 A80     -0.120500
     18 C18        -6.0660    3.2740    2.1030 ca        1 A80     -0.086000
     19 C19        -6.7870    6.9450    2.9070 c         1 A80      0.907200
     20 C20         0.2460   -1.2150    0.1200 c3        1 A80     -0.089600
     21 C21        -0.1020    0.5150   -1.6270 c3        1 A80     -0.089600
     22 C22         1.0380    1.7920    3.7810 c3        1 A80     -0.090100
     23 C23         1.2640    3.4440    1.9400 c3        1 A80     -0.090100
     24 O24        -5.1790    2.0040   -1.2140 o         1 A80     -0.477100
     25 O25        -7.0510    6.7880    4.1260 o         1 A80     -0.782300
     26 O26        -6.7780    8.0210    2.2610 o         1 A80     -0.782300
     27 H2          2.3790    0.2260   -0.3470 hc        1 A80      0.054200
     28 H21         1.6690    1.8890   -0.3900 hc        1 A80      0.054200
     29 H3          1.8390    0.0430    2.0910 hc        1 A80      0.052700
     30 H4          2.9280    1.4390    1.7260 hc        1 A80      0.052700
     31 H6         -1.3100    2.9880    3.4150 ha        1 A80      0.165000
     32 H7         -3.6770    2.6240    2.8240 ha        1 A80      0.170000
     33 H9         -2.4120    0.0560   -0.4650 ha        1 A80      0.150000
     34 H11        -4.6470    0.1900    0.2280 hn        1 A80      0.447800
     35 H14        -5.3850    4.6430   -0.9730 ha        1 A80      0.122500
     36 H15        -6.0670    6.7290    0.2830 ha        1 A80      0.186500
     37 H17        -6.7750    4.4030    3.8260 ha        1 A80      0.186500
     38 H18        -6.1290    2.3130    2.6330 ha        1 A80      0.122500
     39 H201       -0.7590   -1.6610   -0.0730 hc        1 A80      0.042367
     40 H202        0.9890   -1.7080   -0.5520 hc        1 A80      0.042367
     41 H203        0.5300   -1.4210    1.1790 hc        1 A80      0.042367
     42 H211       -0.9660   -0.1120   -1.9530 hc        1 A80      0.042367
     43 H212       -0.3450    1.5880   -1.8140 hc        1 A80      0.042367
     44 H213        0.7810    0.2350   -2.2510 hc        1 A80      0.042367
     45 H221        2.1190    1.8000    4.0650 hc        1 A80      0.045200
     46 H222        0.5260    2.6080    4.3430 hc        1 A80      0.045200
     47 H223        0.5970    0.8130    4.0840 hc        1 A80      0.045200
     48 H231        1.2300    3.6170    0.8390 hc        1 A80      0.045200
     49 H232        2.2950    3.6700    2.3070 hc        1 A80      0.045200
     50 H233        0.5480    4.1440    2.4340 hc        1 A80      0.045200
     51 H112       -5.1330    0.9050    1.6590 hn        1 A80      0.447800
@<TRIPOS>BOND
     1    1    2 1   
     2    1   10 1   
     3    1   20 1   
     4    1   21 1   
     5    2    3 1   
     6    2   27 1   
     7    2   28 1   
     8    3    4 1   
     9    3   29 1   
    10    3   30 1   
    11    4    5 1   
    12    4   22 1   
    13    4   23 1   
    14    5    6 ar  
    15    5   10 ar  
    16    6    7 ar  
    17    6   31 1   
    18    7    8 ar  
    19    7   32 1   
    20    8    9 ar  
    21    8   11 1   
    22    9   10 ar  
    23    9   33 1   
    24   11   12 1   
    25   11   34 1   
    26   11   51 1   
    27   12   13 1   
    28   12   24 2   
    29   13   14 ar  
    30   13   18 ar  
    31   14   15 ar  
    32   14   35 1   
    33   15   16 ar  
    34   15   36 1   
    35   16   17 ar  
    36   16   19 1   
    37   17   18 ar  
    38   17   37 1   
    39   18   38 1   
    40   19   25 1   
    41   19   26 1   
    42   20   39 1   
    43   20   40 1   
    44   20   41 1   
    45   21   42 1   
    46   21   43 1   
    47   21   44 1   
    48   22   45 1   
    49   22   46 1   
    50   22   47 1   
    51   23   48 1   
    52   23   49 1   
    53   23   50 1   
@<TRIPOS>SUBSTRUCTURE
     1 A80         1 TEMP              0 ****  ****    0 ROOT
