@<TRIPOS>MOLECULE
A80
   50    52     1     0     0
SMALL
bcc


@<TRIPOS>ATOM
      1 C1         -3.9090   -1.7490    0.3020 c3        1 A80     -0.004700
      2 C2         -5.3680   -1.3870    0.5870 c3        1 A80     -0.067400
      3 C3         -5.8870   -0.3220   -0.3460 c3        1 A80     -0.067400
      4 C4         -5.1170    0.9930   -0.2090 c3        1 A80      0.003300
      5 C5         -3.6350    0.7520   -0.1370 ca        1 A80     -0.108300
      6 C6         -2.7720    1.8470   -0.2880 ca        1 A80     -0.105000
      7 C7         -1.3930    1.7160   -0.2610 ca        1 A80     -0.166000
      8 C8         -0.8120    0.4410   -0.0770 ca        1 A80      0.093600
      9 C9         -1.6820   -0.6610    0.0950 ca        1 A80     -0.199000
     10 C10        -3.0720   -0.5150    0.0840 ca        1 A80     -0.032300
     11 N11         0.5670    0.2150   -0.0590 n         1 A80     -0.478100
     12 C12         1.5980    1.1550   -0.1540 c         1 A80      0.694700
     13 C13         2.9750    0.5980   -0.1190 ca        1 A80     -0.186600
     14 C14         3.9550    1.2910    0.6030 ca        1 A80     -0.118000
     15 C15         5.2520    0.7890    0.6730 ca        1 A80     -0.119500
     16 C16         5.5900   -0.3990    0.0190 ca        1 A80     -0.094600
     17 C17         4.6130   -1.0740   -0.7220 ca        1 A80     -0.119500
     18 C18         3.3120   -0.5840   -0.7920 ca        1 A80     -0.118000
     19 C19         7.0070   -0.9580    0.1080 c         1 A80      0.906200
     20 C20        -3.8280   -2.6380   -0.9350 c3        1 A80     -0.084100
     21 C21        -3.3940   -2.5380    1.5060 c3        1 A80     -0.084100
     22 C22        -5.4580    1.8510   -1.4280 c3        1 A80     -0.083100
     23 C23        -5.5720    1.7310    1.0470 c3        1 A80     -0.083100
     24 O24         1.3680    2.3770   -0.2350 o         1 A80     -0.607100
     25 O25         7.2500   -2.0360   -0.5020 o         1 A80     -0.821800
     26 O26         7.8500   -0.3120    0.7900 o         1 A80     -0.821800
     27 H2         -5.9980   -2.3100    0.4890 hc        1 A80      0.039200
     28 H21        -5.4560   -1.0320    1.6480 hc        1 A80      0.039200
     29 H3         -5.8120   -0.6820   -1.4060 hc        1 A80      0.038200
     30 H4         -6.9720   -0.1340   -0.1320 hc        1 A80      0.038200
     31 H6         -3.1980    2.8530   -0.4330 ha        1 A80      0.126000
     32 H7         -0.7580    2.6080   -0.3850 ha        1 A80      0.175000
     33 H9         -1.2580   -1.6680    0.2420 ha        1 A80      0.128000
     34 H11         0.8470   -0.7360    0.0550 hn        1 A80      0.320500
     35 H14         3.6880    2.2320    1.1070 ha        1 A80      0.119500
     36 H15         6.0370    1.3140    1.2420 ha        1 A80      0.159000
     37 H17         4.9040   -2.0000   -1.2440 ha        1 A80      0.159000
     38 H18         2.5640   -1.1180   -1.3950 ha        1 A80      0.119500
     39 H201       -4.2460   -2.1110   -1.8260 hc        1 A80      0.035200
     40 H202       -2.7650   -2.9040   -1.1480 hc        1 A80      0.035200
     41 H203       -4.4070   -3.5790   -0.7700 hc        1 A80      0.035200
     42 H211       -4.1370   -3.3220    1.7910 hc        1 A80      0.035200
     43 H212       -2.4280   -3.0450    1.2680 hc        1 A80      0.035200
     44 H213       -3.2350   -1.8590    2.3760 hc        1 A80      0.035200
     45 H221       -6.5640    1.8650   -1.5840 hc        1 A80      0.033367
     46 H222       -5.1120    2.9010   -1.2850 hc        1 A80      0.033367
     47 H223       -4.9710    1.4350   -2.3420 hc        1 A80      0.033367
     48 H231       -5.3880    1.1100    1.9550 hc        1 A80      0.033367
     49 H232       -5.0080    2.6890    1.1530 hc        1 A80      0.033367
     50 H233       -6.6620    1.9620    0.9830 hc        1 A80      0.033367
@<TRIPOS>BOND
     1    1    2 1   
     2    1   10 1   
     3    1   20 1   
     4    1   21 1   
     5    2    3 1   
     6    2   27 1   
     7    2   28 1   
     8    3    4 1   
     9    3   29 1   
    10    3   30 1   
    11    4    5 1   
    12    4   22 1   
    13    4   23 1   
    14    5    6 ar  
    15    5   10 ar  
    16    6    7 ar  
    17    6   31 1   
    18    7    8 ar  
    19    7   32 1   
    20    8    9 ar  
    21    8   11 1   
    22    9   10 ar  
    23    9   33 1   
    24   11   12 1   
    25   11   34 1   
    26   12   13 1   
    27   12   24 2   
    28   13   14 ar  
    29   13   18 ar  
    30   14   15 ar  
    31   14   35 1   
    32   15   16 ar  
    33   15   36 1   
    34   16   17 ar  
    35   16   19 1   
    36   17   18 ar  
    37   17   37 1   
    38   18   38 1   
    39   19   25 1   
    40   19   26 1   
    41   20   39 1   
    42   20   40 1   
    43   20   41 1   
    44   21   42 1   
    45   21   43 1   
    46   21   44 1   
    47   22   45 1   
    48   22   46 1   
    49   22   47 1   
    50   23   48 1   
    51   23   49 1   
    52   23   50 1   
@<TRIPOS>SUBSTRUCTURE
     1 A80         1 TEMP              0 ****  ****    0 ROOT
