@<TRIPOS>MOLECULE
A80
   50    52     1     0     0
SMALL
bcc


@<TRIPOS>ATOM
      1 C1         -0.1330    0.0830   -0.0020 c3        1 A80     -0.004700
      2 C2          1.3810   -0.1290   -0.0330 c3        1 A80     -0.067400
      3 C3          1.9960   -0.0800    1.3420 c3        1 A80     -0.067400
      4 C4          1.8000    1.2790    2.0170 c3        1 A80      0.003300
      5 C5          0.3940    1.7810    1.8310 ca        1 A80     -0.108300
      6 C6         -0.0340    2.8660    2.6090 ca        1 A80     -0.105000
      7 C7         -1.3190    3.3800    2.5240 ca        1 A80     -0.166000
      8 C8         -2.2480    2.8040    1.6290 ca        1 A80      0.093600
      9 C9         -1.8100    1.7210    0.8300 ca        1 A80     -0.199000
     10 C10        -0.5060    1.2220    0.9120 ca        1 A80     -0.032300
     11 N11        -3.5680    3.2430    1.4960 n         1 A80     -0.478100
     12 C12        -4.1900    4.3180    2.1390 c         1 A80      0.694700
     13 C13        -5.6210    4.5260    1.7960 ca        1 A80     -0.186600
     14 C14        -6.0820    5.8390    1.6350 ca        1 A80     -0.118000
     15 C15        -7.4120    6.0710    1.2950 ca        1 A80     -0.119500
     16 C16        -8.2990    5.0040    1.1220 ca        1 A80     -0.094600
     17 C17        -7.8370    3.6950    1.3080 ca        1 A80     -0.119500
     18 C18        -6.5080    3.4520    1.6410 ca        1 A80     -0.118000
     19 C19        -9.7510    5.2570    0.7340 c         1 A80      0.906200
     20 C20        -0.8250   -1.1910    0.4730 c3        1 A80     -0.084100
     21 C21        -0.5810    0.3780   -1.4340 c3        1 A80     -0.084100
     22 C22         2.1100    1.1010    3.5030 c3        1 A80     -0.083100
     23 C23         2.7800    2.2920    1.4330 c3        1 A80     -0.083100
     24 O24        -3.5720    5.0600    2.9260 o         1 A80     -0.607100
     25 O25       -10.5020    4.2530    0.5880 o         1 A80     -0.821800
     26 O26       -10.1160    6.4550    0.5780 o         1 A80     -0.821800
     27 H2          1.6000   -1.1230   -0.5060 hc        1 A80      0.039200
     28 H21         1.8480    0.6600   -0.6810 hc        1 A80      0.039200
     29 H3          1.5400   -0.8780    1.9860 hc        1 A80      0.038200
     30 H4          3.0950   -0.2960    1.2700 hc        1 A80      0.038200
     31 H6          0.6690    3.3350    3.3150 ha        1 A80      0.126000
     32 H7         -1.6070    4.2350    3.1580 ha        1 A80      0.175000
     33 H9         -2.5120    1.2520    0.1220 ha        1 A80      0.128000
     34 H11        -4.1270    2.7360    0.8440 hn        1 A80      0.320500
     35 H14        -5.3840    6.6760    1.7840 ha        1 A80      0.119500
     36 H15        -7.7950    7.0960    1.1560 ha        1 A80      0.159000
     37 H17        -8.5560    2.8690    1.1830 ha        1 A80      0.159000
     38 H18        -6.1710    2.4180    1.8030 ha        1 A80      0.119500
     39 H201       -0.4820   -1.4650    1.4990 hc        1 A80      0.035200
     40 H202       -1.9310   -1.0400    0.4990 hc        1 A80      0.035200
     41 H203       -0.5950   -2.0340   -0.2210 hc        1 A80      0.035200
     42 H211       -0.2690    1.4060   -1.7340 hc        1 A80      0.035200
     43 H212       -0.1170   -0.3580   -2.1340 hc        1 A80      0.035200
     44 H213       -1.6900    0.2980   -1.5310 hc        1 A80      0.035200
     45 H221        2.2040    2.0900    4.0110 hc        1 A80      0.033367
     46 H222        1.2980    0.5190    4.0010 hc        1 A80      0.033367
     47 H223        3.0740    0.5520    3.6260 hc        1 A80      0.033367
     48 H231        3.8300    1.9560    1.6090 hc        1 A80      0.033367
     49 H232        2.6360    3.2880    1.9190 hc        1 A80      0.033367
     50 H233        2.6190    2.4080    0.3360 hc        1 A80      0.033367
@<TRIPOS>BOND
     1    1    2 1   
     2    1   10 1   
     3    1   20 1   
     4    1   21 1   
     5    2    3 1   
     6    2   27 1   
     7    2   28 1   
     8    3    4 1   
     9    3   29 1   
    10    3   30 1   
    11    4    5 1   
    12    4   22 1   
    13    4   23 1   
    14    5    6 ar  
    15    5   10 ar  
    16    6    7 ar  
    17    6   31 1   
    18    7    8 ar  
    19    7   32 1   
    20    8    9 ar  
    21    8   11 1   
    22    9   10 ar  
    23    9   33 1   
    24   11   12 1   
    25   11   34 1   
    26   12   13 1   
    27   12   24 2   
    28   13   14 ar  
    29   13   18 ar  
    30   14   15 ar  
    31   14   35 1   
    32   15   16 ar  
    33   15   36 1   
    34   16   17 ar  
    35   16   19 1   
    36   17   18 ar  
    37   17   37 1   
    38   18   38 1   
    39   19   25 1   
    40   19   26 1   
    41   20   39 1   
    42   20   40 1   
    43   20   41 1   
    44   21   42 1   
    45   21   43 1   
    46   21   44 1   
    47   22   45 1   
    48   22   46 1   
    49   22   47 1   
    50   23   48 1   
    51   23   49 1   
    52   23   50 1   
@<TRIPOS>SUBSTRUCTURE
     1 A80         1 TEMP              0 ****  ****    0 ROOT
