@<TRIPOS>MOLECULE
A80
   50    48     1     0     0
SMALL
bcc


@<TRIPOS>ATOM
      1 C1          2.2570   -1.3440   -1.8780 c3        1 A80     -0.008000
      2 C2          3.6740   -1.3700   -1.8470 c3        1 A80     -0.146000
      3 C3          4.3000   -1.4310   -0.5450 c3        1 A80     -0.146000
      4 C4          3.9000   -0.4470    0.4060 c3        1 A80     -0.008000
      5 C5          2.3710   -0.0130    0.3730 c2        1 A80     -0.062500
      6 C6          1.8050    0.7730    1.3600 c1        1 A80     -0.152000
      7 C7          0.4260    1.0740    1.3180 c1        1 A80     -0.165000
      8 C8         -0.3900    0.5650    0.2520 c1        1 A80      0.101000
      9 C9          0.1840   -0.2370   -0.7570 c1        1 A80     -0.152000
     10 C10         1.5350   -0.5350   -0.7190 c2        1 A80     -0.062500
     11 N11        -1.7760    0.9180    0.1810 n         1 A80     -0.332000
     12 C12        -2.6250    0.7120    1.3140 c2        1 A80      0.368000
     13 C13        -4.1160    1.0240    1.2170 c2        1 A80     -0.166000
     14 C14        -4.9490    0.7660    2.2950 c2        1 A80     -0.102000
     15 C15        -6.3020    1.0630    2.2130 c1        1 A80     -0.120000
     16 C16        -6.8210    1.6170    1.0540 c1        1 A80     -0.074000
     17 C17        -5.9880    1.8750   -0.0250 c1        1 A80     -0.119000
     18 C18        -4.6360    1.5790    0.0570 c1        1 A80     -0.134000
     19 C19        -8.3140    1.8720    0.9380 c2        1 A80      0.355000
     20 C20         1.7630   -2.7720   -1.8270 c3        1 A80     -0.201500
     21 C21         1.8310   -0.7460   -3.1990 c3        1 A80     -0.201500
     22 C22         4.1840   -1.0060    1.7830 c3        1 A80     -0.201500
     23 C23         4.7280    0.7890    0.1540 c3        1 A80     -0.201500
     24 O24        -2.1680    0.2360    2.3380 o         1 A80     -0.368000
     25 O25        -9.0360    1.0900    0.2630 o         1 A80     -0.556500
     26 O26        -8.8370    2.8400    1.5530 o         1 A80     -0.556500
     27 H2          4.0000   -0.5630   -2.3000 hc        1 A80      0.078250
     28 H21         3.9720   -2.1490   -2.3610 hc        1 A80      0.078250
     29 H3          4.0920   -2.3090   -0.1620 hc        1 A80      0.078250
     30 H4          5.2680   -1.3330   -0.6800 hc        1 A80      0.078250
     31 H6          2.3590    1.1200    2.0850 ha        1 A80      0.127000
     32 H7          0.0260    1.6310    2.0170 ha        1 A80      0.175000
     33 H9         -0.3710   -0.5810   -1.4790 ha        1 A80      0.127000
     34 H11        -2.1160    1.2710   -0.5830 hn        1 A80      0.234000
     35 H14        -4.5840    0.3790    3.1110 ha        1 A80      0.129000
     36 H15        -6.8930    0.8620    2.9660 ha        1 A80      0.160000
     37 H17        -6.3500    2.2850   -0.8340 ha        1 A80      0.158000
     38 H18        -4.0440    1.7950   -0.6880 ha        1 A80      0.110000
     39 H201        2.3160   -3.3290   -2.4100 hc        1 A80      0.073750
     40 H202        0.8310   -2.8070   -2.1300 hc        1 A80      0.073750
     41 H203        1.8200   -3.1040   -0.9080 hc        1 A80      0.073750
     42 H211        2.3540   -1.1470   -3.9220 hc        1 A80      0.073750
     43 H212        0.8770   -0.9260   -3.3460 hc        1 A80      0.073750
     44 H213        1.9820    0.2200   -3.1830 hc        1 A80      0.073750
     45 H221        4.0440   -0.3070    2.4540 hc        1 A80      0.073750
     46 H222        3.5800   -1.7560    1.9620 hc        1 A80      0.073750
     47 H223        5.1130   -1.3180    1.8240 hc        1 A80      0.073750
     48 H231        4.4800    1.1790   -0.7130 hc        1 A80      0.073750
     49 H232        4.5640    1.4430    0.8640 hc        1 A80      0.073750
     50 H233        5.6780    0.5500    0.1440 hc        1 A80      0.073750
@<TRIPOS>BOND
     1    1    2 1   
     2    1   10 1   
     3    1   20 1   
     4    1   21 1   
     5    2    3 1   
     6    2   27 1   
     7    2   28 1   
     8    3    4 1   
     9    3   29 1   
    10    3   30 1   
    11    4    5 1   
    12    4   22 1   
    13    4   23 1   
    14    5    6 1   
    15    5   10 1   
    16    6   31 1   
    17    7    8 1   
    18    7   32 1   
    19    8   11 1   
    20    9   10 1   
    21    9   33 1   
    22   11   12 1   
    23   11   34 1   
    24   12   13 1   
    25   12   24 1   
    26   13   14 1   
    27   13   18 1   
    28   14   15 1   
    29   14   35 1   
    30   15   36 1   
    31   16   17 1   
    32   16   19 1   
    33   17   37 1   
    34   18   38 1   
    35   19   25 1   
    36   19   26 1   
    37   20   39 1   
    38   20   40 1   
    39   20   41 1   
    40   21   42 1   
    41   21   43 1   
    42   21   44 1   
    43   22   45 1   
    44   22   46 1   
    45   22   47 1   
    46   23   48 1   
    47   23   49 1   
    48   23   50 1   
@<TRIPOS>SUBSTRUCTURE
     1 A80         1 TEMP              0 ****  ****    0 ROOT
