@<TRIPOS>MOLECULE
A80
   50    52     1     0     0
SMALL
bcc


@<TRIPOS>ATOM
      1 C1         -0.1330    0.0780    0.0060 c3        1 A80     -0.004700
      2 C2          1.3820   -0.1330   -0.0250 c3        1 A80     -0.067400
      3 C3          1.9980   -0.0770    1.3490 c3        1 A80     -0.067400
      4 C4          1.8010    1.2850    2.0170 c3        1 A80      0.003300
      5 C5          0.3950    1.7850    1.8310 ca        1 A80     -0.108300
      6 C6         -0.0330    2.8740    2.6040 ca        1 A80     -0.105000
      7 C7         -1.3190    3.3860    2.5180 ca        1 A80     -0.166000
      8 C8         -2.2480    2.8050    1.6270 ca        1 A80      0.093600
      9 C9         -1.8100    1.7190    0.8330 ca        1 A80     -0.199000
     10 C10        -0.5060    1.2220    0.9150 ca        1 A80     -0.032300
     11 N11        -3.5680    3.2430    1.4930 ns        1 A80     -0.478100
     12 C12        -4.1900    4.3210    2.1310 c         1 A80      0.694700
     13 C13        -5.6210    4.5260    1.7880 ca        1 A80     -0.186600
     14 C14        -6.0830    5.8380    1.6200 ca        1 A80     -0.118000
     15 C15        -7.4140    6.0680    1.2800 ca        1 A80     -0.119500
     16 C16        -8.3000    4.9990    1.1150 ca        1 A80     -0.094600
     17 C17        -7.8380    3.6920    1.3090 ca        1 A80     -0.119500
     18 C18        -6.5080    3.4520    1.6410 ca        1 A80     -0.118000
     19 C19        -9.7540    5.2500    0.7280 c         1 A80      0.906200
     20 C20        -0.8240   -1.1940    0.4880 c3        1 A80     -0.084100
     21 C21        -0.5820    0.3660   -1.4260 c3        1 A80     -0.084100
     22 C22         2.1120    1.1140    3.5040 c3        1 A80     -0.083100
     23 C23         2.7800    2.2960    1.4290 c3        1 A80     -0.083100
     24 O24        -3.5710    5.0680    2.9120 o         1 A80     -0.607100
     25 O25       -10.5040    4.2440    0.5900 o         1 A80     -0.821800
     26 O26       -10.1190    6.4470    0.5640 o         1 A80     -0.821800
     27 H2          1.6010   -1.1290   -0.4930 hc        1 A80      0.039200
     28 H21         1.8470    0.6530   -0.6770 hc        1 A80      0.039200
     29 H3          1.5430   -0.8720    1.9980 hc        1 A80      0.038200
     30 H4          3.0960   -0.2930    1.2770 hc        1 A80      0.038200
     31 H6          0.6710    3.3460    3.3070 ha        1 A80      0.126000
     32 H7         -1.6060    4.2440    3.1480 ha        1 A80      0.175000
     33 H9         -2.5120    1.2470    0.1270 ha        1 A80      0.128000
     34 H11        -4.1280    2.7320    0.8450 hn        1 A80      0.320500
     35 H14        -5.3860    6.6770    1.7630 ha        1 A80      0.119500
     36 H15        -7.7980    7.0910    1.1360 ha        1 A80      0.159000
     37 H17        -8.5570    2.8640    1.1900 ha        1 A80      0.159000
     38 H18        -6.1710    2.4190    1.8090 ha        1 A80      0.119500
     39 H201       -0.5940   -2.0400   -0.2030 hc        1 A80      0.035200
     40 H202       -1.9300   -1.0430    0.5150 hc        1 A80      0.035200
     41 H203       -0.4790   -1.4630    1.5140 hc        1 A80      0.035200
     42 H211       -0.1180   -0.3730   -2.1240 hc        1 A80      0.035200
     43 H212       -0.2720    1.3930   -1.7310 hc        1 A80      0.035200
     44 H213       -1.6910    0.2850   -1.5220 hc        1 A80      0.035200
     45 H221        2.2060    2.1050    4.0080 hc        1 A80      0.033367
     46 H222        3.0780    0.5660    3.6280 hc        1 A80      0.033367
     47 H223        1.3020    0.5340    4.0060 hc        1 A80      0.033367
     48 H231        2.6360    3.2940    1.9090 hc        1 A80      0.033367
     49 H232        2.6180    2.4060    0.3310 hc        1 A80      0.033367
     50 H233        3.8310    1.9620    1.6050 hc        1 A80      0.033367
@<TRIPOS>BOND
     1    1    2 1   
     2    1   10 1   
     3    1   20 1   
     4    1   21 1   
     5    2    3 1   
     6    2   27 1   
     7    2   28 1   
     8    3    4 1   
     9    3   29 1   
    10    3   30 1   
    11    4    5 1   
    12    4   22 1   
    13    4   23 1   
    14    5    6 ar  
    15    5   10 ar  
    16    6    7 ar  
    17    6   31 1   
    18    7    8 ar  
    19    7   32 1   
    20    8    9 ar  
    21    8   11 1   
    22    9   10 ar  
    23    9   33 1   
    24   11   12 1   
    25   11   34 1   
    26   12   13 1   
    27   12   24 2   
    28   13   14 ar  
    29   13   18 ar  
    30   14   15 ar  
    31   14   35 1   
    32   15   16 ar  
    33   15   36 1   
    34   16   17 ar  
    35   16   19 1   
    36   17   18 ar  
    37   17   37 1   
    38   18   38 1   
    39   19   25 1   
    40   19   26 1   
    41   20   39 1   
    42   20   40 1   
    43   20   41 1   
    44   21   42 1   
    45   21   43 1   
    46   21   44 1   
    47   22   45 1   
    48   22   46 1   
    49   22   47 1   
    50   23   48 1   
    51   23   49 1   
    52   23   50 1   
@<TRIPOS>SUBSTRUCTURE
     1 A80         1 TEMP              0 ****  ****    0 ROOT
