@<TRIPOS>MOLECULE
A82
   53    56     1     0     0
SMALL
bcc


@<TRIPOS>ATOM
      1 C1          0.0160   -0.0840   -0.0780 cc        1 A82     -0.166300
      2 C2          1.3850   -0.0310   -0.0940 cd        1 A82     -0.030300
      3 N3          2.1380   -0.0260    1.0690 n         1 A82     -0.108200
      4 C4          1.5110   -0.0990    2.3380 cc        1 A82      0.158700
      5 N5          2.1890   -0.1970    3.4820 nd        1 A82     -0.373600
      6 C6          3.5810   -0.1130    3.4650 cd        1 A82      0.432600
      7 C7          4.2720    0.0440    2.2590 cc        1 A82     -0.389200
      8 C8          3.5750    0.0700    1.0030 c         1 A82      0.600500
      9 O9          4.1060    0.1420   -0.1250 o         1 A82     -0.666500
     10 N10         4.3200   -0.2760    4.6620 nh        1 A82     -0.618400
     11 C11         5.2530    0.8020    4.9750 c3        1 A82      0.158300
     12 C12         4.7630    1.7810    6.0550 c3        1 A82      0.081900
     13 O13         4.3430    1.0590    7.2100 os        1 A82     -0.420600
     14 C14         3.2350    0.2170    6.8890 c3        1 A82      0.081900
     15 C15         3.6620   -0.8200    5.8420 c3        1 A82      0.158300
     16 C16         0.0380   -0.0640    2.3580 cd        1 A82     -0.087300
     17 C17        -0.6570   -0.0700    1.1860 cc        1 A82     -0.070000
     18 C18        -0.7120    0.0690    3.6700 c3        1 A82      0.275800
     19 C19        -0.4730   -1.1540    4.5600 c3        1 A82     -0.120100
     20 C20        -0.7750   -0.1140   -1.3250 c3        1 A82     -0.033800
     21 N21        -0.4500    1.3660    4.2620 nu        1 A82     -0.735600
     22 C22        -1.1400    1.7520    5.4210 ca        1 A82      0.175600
     23 C23        -1.3470    3.2420    7.3320 ca        1 A82     -0.078000
     24 C24        -0.5930    2.7640    6.2630 ca        1 A82     -0.173600
     25 C25        -2.6150    2.7360    7.6200 ca        1 A82     -0.201000
     26 C26        -2.4230    1.2440    5.7310 ca        1 A82     -0.226000
     27 C27        -3.1440    1.7330    6.8160 ca        1 A82     -0.120000
     28 C28         0.7890    3.3650    6.0680 c         1 A82      0.917200
     29 O29         0.9780    4.5510    6.4520 o         1 A82     -0.839300
     30 O30         1.7110    2.6550    5.5560 o         1 A82     -0.839300
     31 H2          1.9750    0.0150   -1.0320 h4        1 A82      0.182000
     32 H17        -1.7590   -0.0350    1.1820 ha        1 A82      0.143000
     33 H201       -1.4030   -1.0400   -1.3610 hc        1 A82      0.040367
     34 H202       -0.1150   -0.1000   -2.2270 hc        1 A82      0.040367
     35 H203       -1.4560    0.7720   -1.3720 hc        1 A82      0.040367
     36 H7          5.3630    0.1380    2.2050 ha        1 A82      0.165000
     37 H111        6.1910    0.2950    5.3400 h1        1 A82      0.051950
     38 H112        5.5000    1.3880    4.0480 h1        1 A82      0.051950
     39 H151        2.7710   -1.4420    5.5620 h1        1 A82      0.051950
     40 H152        4.4320   -1.5030    6.3080 h1        1 A82      0.051950
     41 H121        5.6150    2.4150    6.4090 h1        1 A82      0.087700
     42 H122        3.9130    2.4220    5.6820 h1        1 A82      0.087700
     43 H141        2.9760   -0.2910    7.8530 h1        1 A82      0.087700
     44 H142        2.3750    0.8460    6.5200 h1        1 A82      0.087700
     45 H18        -1.8180    0.0570    3.4030 h1        1 A82      0.039700
     46 H191       -1.3190   -1.2520    5.2850 hc        1 A82      0.042033
     47 H192        0.4710   -1.0650    5.1480 hc        1 A82      0.042033
     48 H193       -0.4250   -2.0750    3.9350 hc        1 A82      0.042033
     49 H21         0.5310    1.6070    4.3040 hn        1 A82      0.460800
     50 H26        -2.8760    0.4530    5.1170 ha        1 A82      0.106000
     51 H23        -0.9110    4.0460    7.9490 ha        1 A82      0.148000
     52 H25        -3.1870    3.1270    8.4720 ha        1 A82      0.107000
     53 H27        -4.1400    1.3200    7.0320 ha        1 A82      0.100000
@<TRIPOS>BOND
     1    1    2 2   
     2    1   17 1   
     3    1   20 1   
     4    2    3 1   
     5    2   31 1   
     6    3    4 1   
     7    3    8 1   
     8    4    5 2   
     9    4   16 1   
    10    5    6 1   
    11    6    7 2   
    12    6   10 1   
    13    7    8 1   
    14    7   36 1   
    15    8    9 2   
    16   10   11 1   
    17   10   15 1   
    18   11   12 1   
    19   11   37 1   
    20   11   38 1   
    21   12   13 1   
    22   12   41 1   
    23   12   42 1   
    24   13   14 1   
    25   14   15 1   
    26   14   43 1   
    27   14   44 1   
    28   15   39 1   
    29   15   40 1   
    30   16   17 2   
    31   16   18 1   
    32   17   32 1   
    33   18   19 1   
    34   18   21 1   
    35   18   45 1   
    36   19   46 1   
    37   19   47 1   
    38   19   48 1   
    39   20   33 1   
    40   20   34 1   
    41   20   35 1   
    42   21   22 1   
    43   21   49 1   
    44   22   24 ar  
    45   22   26 ar  
    46   23   24 ar  
    47   23   25 ar  
    48   23   51 1   
    49   24   28 1   
    50   25   27 ar  
    51   25   52 1   
    52   26   27 ar  
    53   26   50 1   
    54   27   53 1   
    55   28   29 1   
    56   28   30 1   
@<TRIPOS>SUBSTRUCTURE
     1 A82         1 TEMP              0 ****  ****    0 ROOT
