@<TRIPOS>MOLECULE
A82
   53    56     1     0     0
SMALL
bcc


@<TRIPOS>ATOM
      1 C1          0.0290   -0.0890   -0.0810 cc        1 A82     -0.166300
      2 C2          1.3990   -0.0380   -0.0920 cd        1 A82     -0.030300
      3 N3          2.1480   -0.0320    1.0740 n         1 A82     -0.108200
      4 C4          1.5170   -0.1020    2.3410 cc        1 A82      0.158700
      5 N5          2.1900   -0.1990    3.4870 nd        1 A82     -0.373600
      6 C6          3.5820   -0.1170    3.4740 cd        1 A82      0.432600
      7 C7          4.2780    0.0390    2.2710 cc        1 A82     -0.389200
      8 C8          3.5850    0.0630    1.0120 c         1 A82      0.600500
      9 O9          4.1200    0.1330   -0.1140 o         1 A82     -0.666500
     10 N10         4.3160   -0.2790    4.6750 nh        1 A82     -0.618400
     11 C11         5.2500    0.7990    4.9890 c3        1 A82      0.158300
     12 C12         4.7570    1.7800    6.0660 c3        1 A82      0.081900
     13 O13         4.3320    1.0600    7.2210 os        1 A82     -0.420600
     14 C14         3.2250    0.2200    6.8970 c3        1 A82      0.081900
     15 C15         3.6550   -0.8200    5.8530 c3        1 A82      0.158300
     16 C16         0.0430   -0.0650    2.3550 cd        1 A82     -0.087300
     17 C17        -0.6480   -0.0730    1.1810 cc        1 A82     -0.070000
     18 C18        -0.7110    0.0710    3.6640 c3        1 A82      0.275800
     19 C19        -0.4770   -1.1510    4.5570 c3        1 A82     -0.120100
     20 C20        -0.7570   -0.1210   -1.3310 c3        1 A82     -0.033800
     21 N21        -0.4490    1.3680    4.2550 nh        1 A82     -0.735600
     22 C22        -1.1440    1.7570    5.4120 ca        1 A82      0.175600
     23 C23        -1.3550    3.2500    7.3200 ca        1 A82     -0.078000
     24 C24        -0.5990    2.7690    6.2540 ca        1 A82     -0.173600
     25 C25        -2.6260    2.7450    7.6040 ca        1 A82     -0.201000
     26 C26        -2.4290    1.2500    5.7170 ca        1 A82     -0.226000
     27 C27        -3.1530    1.7420    6.7990 ca        1 A82     -0.120000
     28 C28         0.7850    3.3690    6.0630 c         1 A82      0.917200
     29 O29         0.9740    4.5550    6.4450 o         1 A82     -0.839300
     30 O30         1.7080    2.6570    5.5550 o         1 A82     -0.839300
     31 H2          1.9920    0.0060   -1.0280 h4        1 A82      0.182000
     32 H17        -1.7490   -0.0370    1.1730 ha        1 A82      0.143000
     33 H201       -1.3860   -1.0460   -1.3680 hc        1 A82      0.040367
     34 H202       -0.0940   -0.1080   -2.2300 hc        1 A82      0.040367
     35 H203       -1.4380    0.7660   -1.3810 hc        1 A82      0.040367
     36 H7          5.3690    0.1310    2.2200 ha        1 A82      0.165000
     37 H111        5.5010    1.3830    4.0620 h1        1 A82      0.051950
     38 H112        6.1860    0.2910    5.3590 h1        1 A82      0.051950
     39 H151        2.7630   -1.4410    5.5710 h1        1 A82      0.051950
     40 H152        4.4220   -1.5030    6.3220 h1        1 A82      0.051950
     41 H121        5.6090    2.4140    6.4220 h1        1 A82      0.087700
     42 H122        3.9090    2.4220    5.6890 h1        1 A82      0.087700
     43 H141        2.9620   -0.2870    7.8600 h1        1 A82      0.087700
     44 H142        2.3660    0.8480    6.5240 h1        1 A82      0.087700
     45 H18        -1.8160    0.0600    3.3930 h1        1 A82      0.039700
     46 H191       -1.3250   -1.2470    5.2790 hc        1 A82      0.042033
     47 H192        0.4660   -1.0620    5.1480 hc        1 A82      0.042033
     48 H193       -0.4280   -2.0740    3.9330 hc        1 A82      0.042033
     49 H21         0.5310    1.6080    4.3000 hn        1 A82      0.460800
     50 H26        -2.8800    0.4590    5.1030 ha        1 A82      0.106000
     51 H23        -0.9210    4.0540    7.9370 ha        1 A82      0.148000
     52 H25        -3.2000    3.1380    8.4530 ha        1 A82      0.107000
     53 H27        -4.1490    1.3300    7.0120 ha        1 A82      0.100000
@<TRIPOS>BOND
     1    1    2 2   
     2    1   17 1   
     3    1   20 1   
     4    2    3 1   
     5    2   31 1   
     6    3    4 1   
     7    3    8 1   
     8    4    5 2   
     9    4   16 1   
    10    5    6 1   
    11    6    7 2   
    12    6   10 1   
    13    7    8 1   
    14    7   36 1   
    15    8    9 2   
    16   10   11 1   
    17   10   15 1   
    18   11   12 1   
    19   11   37 1   
    20   11   38 1   
    21   12   13 1   
    22   12   41 1   
    23   12   42 1   
    24   13   14 1   
    25   14   15 1   
    26   14   43 1   
    27   14   44 1   
    28   15   39 1   
    29   15   40 1   
    30   16   17 2   
    31   16   18 1   
    32   17   32 1   
    33   18   19 1   
    34   18   21 1   
    35   18   45 1   
    36   19   46 1   
    37   19   47 1   
    38   19   48 1   
    39   20   33 1   
    40   20   34 1   
    41   20   35 1   
    42   21   22 1   
    43   21   49 1   
    44   22   24 ar  
    45   22   26 ar  
    46   23   24 ar  
    47   23   25 ar  
    48   23   51 1   
    49   24   28 1   
    50   25   27 ar  
    51   25   52 1   
    52   26   27 ar  
    53   26   50 1   
    54   27   53 1   
    55   28   29 1   
    56   28   30 1   
@<TRIPOS>SUBSTRUCTURE
     1 A82         1 TEMP              0 ****  ****    0 ROOT
