@<TRIPOS>MOLECULE
A82
   53    56     1     0     0
SMALL
bcc


@<TRIPOS>ATOM
      1 C1          0.0230   -0.0920   -0.0780 cc        1 A82     -0.166300
      2 C2          1.3930   -0.0570   -0.0890 cd        1 A82     -0.030300
      3 N3          2.1410   -0.0550    1.0790 n         1 A82     -0.108200
      4 C4          1.5080   -0.1110    2.3450 cc        1 A82      0.158700
      5 N5          2.1790   -0.2100    3.4920 nd        1 A82     -0.373600
      6 C6          3.5720   -0.1460    3.4810 cd        1 A82      0.432600
      7 C7          4.2710   -0.0050    2.2770 cc        1 A82     -0.389200
      8 C8          3.5790    0.0220    1.0180 c         1 A82      0.600500
      9 O9          4.1170    0.0800   -0.1080 o         1 A82     -0.666500
     10 N10         4.3030   -0.3110    4.6820 nh        1 A82     -0.618400
     11 C11         5.2500    0.7570    4.9920 c3        1 A82      0.158300
     12 C12         4.7690    1.7490    6.0640 c3        1 A82      0.081900
     13 O13         4.3330    1.0410    7.2220 os        1 A82     -0.420600
     14 C14         3.2160    0.2120    6.9010 c3        1 A82      0.081900
     15 C15         3.6340   -0.8370    5.8630 c3        1 A82      0.158300
     16 C16         0.0350   -0.0550    2.3570 cd        1 A82     -0.087300
     17 C17        -0.6550   -0.0600    1.1830 cc        1 A82     -0.070000
     18 C18        -0.7190    0.0960    3.6650 c3        1 A82      0.275800
     19 C19        -0.5000   -1.1240    4.5650 c3        1 A82     -0.120100
     20 C20        -0.7630   -0.1200   -1.3290 c3        1 A82     -0.033800
     21 N21        -0.4410    1.3930    4.2500 nh        1 A82     -0.735600
     22 C22        -1.1310    1.7960    5.4040 ca        1 A82      0.175600
     23 C23        -1.3260    3.3010    7.3050 ca        1 A82     -0.078000
     24 C24        -0.5740    2.8060    6.2420 ca        1 A82     -0.173600
     25 C25        -2.6020    2.8130    7.5910 ca        1 A82     -0.201000
     26 C26        -2.4220    1.3060    5.7120 ca        1 A82     -0.226000
     27 C27        -3.1410    1.8130    6.7910 ca        1 A82     -0.120000
     28 C28         0.8160    3.3870    6.0480 c         1 A82      0.917200
     29 O29         1.0200    4.5730    6.4250 o         1 A82     -0.839300
     30 O30         1.7320    2.6620    5.5450 o         1 A82     -0.839300
     31 H2          1.9870   -0.0260   -1.0230 h4        1 A82      0.182000
     32 H17        -1.7560   -0.0110    1.1740 ha        1 A82      0.143000
     33 H201       -1.4040   -1.0360   -1.3610 hc        1 A82      0.040367
     34 H202       -1.4310    0.7760   -1.3840 hc        1 A82      0.040367
     35 H203       -0.0980   -0.1210   -2.2270 hc        1 A82      0.040367
     36 H7          5.3630    0.0740    2.2270 ha        1 A82      0.165000
     37 H111        6.1790    0.2390    5.3650 h1        1 A82      0.051950
     38 H112        5.5100    1.3330    4.0630 h1        1 A82      0.051950
     39 H151        2.7350   -1.4490    5.5830 h1        1 A82      0.051950
     40 H152        4.3920   -1.5280    6.3370 h1        1 A82      0.051950
     41 H121        5.6280    2.3740    6.4170 h1        1 A82      0.087700
     42 H122        3.9290    2.4000    5.6830 h1        1 A82      0.087700
     43 H141        2.3660    0.8500    6.5240 h1        1 A82      0.087700
     44 H142        2.9450   -0.2860    7.8670 h1        1 A82      0.087700
     45 H18        -1.8240    0.0970    3.3940 h1        1 A82      0.039700
     46 H191       -0.4610   -2.0500    3.9460 hc        1 A82      0.042033
     47 H192       -1.3500   -1.2060    5.2860 hc        1 A82      0.042033
     48 H193        0.4430   -1.0440    5.1560 hc        1 A82      0.042033
     49 H21         0.5420    1.6210    4.2940 hn        1 A82      0.460800
     50 H26        -2.8830    0.5180    5.1010 ha        1 A82      0.106000
     51 H23        -0.8820    4.1030    7.9180 ha        1 A82      0.148000
     52 H25        -3.1710    3.2170    8.4380 ha        1 A82      0.107000
     53 H27        -4.1430    1.4140    7.0050 ha        1 A82      0.100000
@<TRIPOS>BOND
     1    1    2 2   
     2    1   17 1   
     3    1   20 1   
     4    2    3 1   
     5    2   31 1   
     6    3    4 1   
     7    3    8 1   
     8    4    5 2   
     9    4   16 1   
    10    5    6 1   
    11    6    7 2   
    12    6   10 1   
    13    7    8 1   
    14    7   36 1   
    15    8    9 2   
    16   10   11 1   
    17   10   15 1   
    18   11   12 1   
    19   11   37 1   
    20   11   38 1   
    21   12   13 1   
    22   12   41 1   
    23   12   42 1   
    24   13   14 1   
    25   14   15 1   
    26   14   43 1   
    27   14   44 1   
    28   15   39 1   
    29   15   40 1   
    30   16   17 2   
    31   16   18 1   
    32   17   32 1   
    33   18   19 1   
    34   18   21 1   
    35   18   45 1   
    36   19   46 1   
    37   19   47 1   
    38   19   48 1   
    39   20   33 1   
    40   20   34 1   
    41   20   35 1   
    42   21   22 1   
    43   21   49 1   
    44   22   24 ar  
    45   22   26 ar  
    46   23   24 ar  
    47   23   25 ar  
    48   23   51 1   
    49   24   28 1   
    50   25   27 ar  
    51   25   52 1   
    52   26   27 ar  
    53   26   50 1   
    54   27   53 1   
    55   28   29 1   
    56   28   30 1   
@<TRIPOS>SUBSTRUCTURE
     1 A82         1 TEMP              0 ****  ****    0 ROOT
