@<TRIPOS>MOLECULE
A83
  102   104     1     0     0
SMALL
bcc


@<TRIPOS>ATOM
      1 C          -2.8530   -3.5530   -1.3530 c         1 A83      0.558700
      2 O          -2.8010   -4.7730   -1.3080 o         1 A83     -0.391100
      3 N          -2.7680   -2.8260   -0.0310 n4        1 A83     -0.672800
      4 C1         -1.8490   -3.5130    0.9460 c3        1 A83      0.135500
      5 C2         -1.9690   -2.9220    2.2890 cc        1 A83      0.108600
      6 C3         -1.9460   -3.5610    3.5490 cd        1 A83     -0.111600
      7 N1         -2.0060   -2.5090    4.4620 na        1 A83      0.067400
      8 N2         -2.0850   -1.3270    3.7900 nd        1 A83     -0.133800
      9 N3         -2.0540   -1.5280    2.5410 nc        1 A83     -0.361000
     10 C4         -2.0900   -2.6220    5.9280 c3        1 A83      0.030000
     11 C5         -1.0560   -1.7010    6.6450 c3        1 A83      0.107100
     12 C6         -1.5860   -1.3620    8.0590 c3        1 A83      0.129800
     13 N4         -0.6330   -0.7320    8.9690 n3        1 A83     -0.888200
     14 C7          0.2080   -1.6830    9.7050 c3        1 A83      0.124800
     15 C8         -0.3470   -2.1620   11.0520 c3        1 A83     -0.068700
     16 C9         -1.6150   -2.9740   10.9180 c3        1 A83     -0.104600
     17 C10         0.7310   -2.9810   11.7380 c3        1 A83     -0.104600
     18 S          -1.9140    1.0100   10.1870 s4        1 A83      1.686300
     19 O1         -1.8080    1.7470    9.0450 o         1 A83     -0.446400
     20 O2         -2.9580    0.1620   10.3870 o         1 A83     -0.446400
     21 C11        -1.0440    1.4110   11.3870 ca        1 A83     -0.684500
     22 C12         0.0030    2.3810   11.2580 ca        1 A83      0.065500
     23 C13         0.7460    2.8020   12.3260 ca        1 A83     -0.215000
     24 C14         0.4800    2.2690   13.6230 ca        1 A83      0.303100
     25 C15        -0.5470    1.3040   13.7880 ca        1 A83     -0.215000
     26 C16        -1.2740    0.8940   12.6980 ca        1 A83      0.065500
     27 O3          1.2540    2.7480   14.6110 os        1 A83     -0.265900
     28 C17         1.0270    2.2760   15.9510 c3        1 A83      0.097700
     29 C18        -1.9180   -4.0670    6.4180 c3        1 A83     -0.048100
     30 O4          0.1860   -2.3610    6.7950 oh        1 A83     -0.594800
     31 C19        -3.0520   -4.9700    6.0880 ca        1 A83     -0.128300
     32 C20        -2.7900   -6.2280    5.5280 ca        1 A83     -0.136500
     33 C21        -3.8330   -7.1190    5.2790 ca        1 A83     -0.115500
     34 C22        -5.1470   -6.7630    5.5840 ca        1 A83     -0.109000
     35 C23        -5.4130   -5.5140    6.1470 ca        1 A83     -0.115500
     36 C24        -4.3710   -4.6240    6.4030 ca        1 A83     -0.136500
     37 C25        -2.9780   -2.7250   -2.5650 ca        1 A83     -0.162600
     38 C26        -2.4440   -3.2570   -3.7510 ca        1 A83     -0.061500
     39 C27        -2.5530   -2.5420   -4.9440 ca        1 A83     -0.097000
     40 C28        -3.2040   -1.3040   -4.9640 ca        1 A83     -0.106300
     41 C29        -3.7480   -0.7820   -3.7830 ca        1 A83     -0.097000
     42 C30        -3.6330   -1.4870   -2.5850 ca        1 A83     -0.061500
     43 C31        -3.2550   -0.4980   -6.2250 c3        1 A83      0.153100
     44 N5         -4.2180   -1.0430   -7.2290 n4        1 A83     -0.660800
     45 C45        -4.3940   -0.0730   -8.3950 c         1 A83      0.641100
     46 O46        -4.6250    1.1030   -8.1660 o         1 A83     -0.425000
     47 O47        -4.2580   -0.7350   -9.5340 os        1 A83     -0.423900
     48 C48        -4.4550   -0.0010  -10.8500 c3        1 A83      0.214800
     49 C49        -3.4060    1.0790  -10.9530 c3        1 A83     -0.135433
     50 C50        -4.2270   -1.1350  -11.8320 c3        1 A83     -0.135433
     51 C51        -5.8670    0.5310  -10.8910 c3        1 A83     -0.135433
     52 HN         -2.4380   -1.8640   -0.1810 hn        1 A83      0.470800
     53 H11        -2.1170   -4.6110    0.9750 hx        1 A83      0.121700
     54 H12A       -0.7990   -3.3990    0.5450 hx        1 A83      0.121700
     55 H3         -1.9070   -4.6170    3.8370 h4        1 A83      0.231000
     56 H4         -3.1250   -2.2540    6.2090 h1        1 A83      0.098700
     57 H5         -0.9130   -0.7360    6.0790 h1        1 A83      0.075700
     58 H61        -2.4410   -0.6370    7.9190 h1        1 A83      0.083700
     59 H62        -1.9920   -2.2940    8.5420 h1        1 A83      0.083700
     60 H71         1.1960   -1.1720    9.9050 h1        1 A83      0.076700
     61 H72         0.4270   -2.5900    9.0690 h1        1 A83      0.076700
     62 H8         -0.5670   -1.2620   11.6950 hc        1 A83      0.021700
     63 H91        -1.8630   -3.4600   11.8950 hc        1 A83      0.051200
     64 H92        -2.4780   -2.3240   10.6290 hc        1 A83      0.051200
     65 H93        -1.4910   -3.7810   10.1560 hc        1 A83      0.051200
     66 H101        1.6630   -2.3800   11.8680 hc        1 A83      0.051200
     67 H102        0.3780   -3.3100   12.7450 hc        1 A83      0.051200
     68 H103        0.9750   -3.8900   11.1370 hc        1 A83      0.051200
     69 H12         0.2000    2.8090   10.2560 ha        1 A83      0.171500
     70 H13         1.5460    3.5550   12.2160 ha        1 A83      0.191000
     71 H15        -0.7620    0.8900   14.7870 ha        1 A83      0.191000
     72 H16        -2.0790    0.1440   12.8340 ha        1 A83      0.171500
     73 H171        1.2140    1.1770   16.0050 h1        1 A83      0.082700
     74 H172       -0.0070    2.5350   16.2790 h1        1 A83      0.082700
     75 H173        1.7940    2.8460   16.5390 h1        1 A83      0.082700
     76 H181       -0.9480   -4.4840    6.0330 hc        1 A83      0.081200
     77 H182       -1.8130   -4.0250    7.5400 hc        1 A83      0.081200
     78 HO4         0.6170   -2.3730    5.9310 ho        1 A83      0.423000
     79 H20        -1.7530   -6.5320    5.3160 ha        1 A83      0.131000
     80 H21        -3.6160   -8.1130    4.8570 ha        1 A83      0.152000
     81 H22        -5.9690   -7.4720    5.3980 ha        1 A83      0.156000
     82 H23        -6.4470   -5.2370    6.4070 ha        1 A83      0.152000
     83 H24        -4.5940   -3.6550    6.8750 ha        1 A83      0.131000
     84 H26        -1.9410   -4.2410   -3.7410 ha        1 A83      0.172000
     85 H27        -2.1060   -2.9590   -5.8620 ha        1 A83      0.172500
     86 H29        -4.2620    0.1950   -3.7870 ha        1 A83      0.172500
     87 H30        -4.0840   -1.0550   -1.6770 ha        1 A83      0.172000
     88 H311       -2.2330   -0.4750   -6.7080 hx        1 A83      0.133700
     89 H312       -3.5630    0.5710   -6.0040 hx        1 A83      0.133700
     90 HN5        -5.1390   -1.1760   -6.7950 hn        1 A83      0.467300
     91 H491       -2.3820    0.6540  -10.8210 hc        1 A83      0.078811
     92 H492       -3.4660    1.5440  -11.9700 hc        1 A83      0.078811
     93 H493       -3.5760    1.8800  -10.1920 hc        1 A83      0.078811
     94 H501       -3.1990   -1.5550  -11.7240 hc        1 A83      0.078811
     95 H502       -4.9730   -1.9510  -11.6780 hc        1 A83      0.078811
     96 H503       -4.3450   -0.7270  -12.8680 hc        1 A83      0.078811
     97 H511       -6.0160    1.3360  -10.1300 hc        1 A83      0.078811
     98 H512       -6.6060   -0.2870  -10.7160 hc        1 A83      0.078811
     99 H513       -6.0580    0.9680  -11.9050 hc        1 A83      0.078811
    100 HN3        -3.7090   -2.7770    0.3830 hn        1 A83      0.470800
    101 H41        -0.0200   -0.1480    8.4150 hn        1 A83      0.386800
    102 H52        -3.8910   -1.9480   -7.5880 hn        1 A83      0.467300
@<TRIPOS>BOND
     1    1    2 2   
     2    1    3 1   
     3    1   37 1   
     4    3    4 1   
     5    3   52 1   
     6    3  100 1   
     7    4    5 1   
     8    4   53 1   
     9    4   54 1   
    10    5    6 2   
    11    5    9 1   
    12    6    7 1   
    13    6   55 1   
    14    7    8 1   
    15    7   10 1   
    16    8    9 2   
    17   10   11 1   
    18   10   29 1   
    19   10   56 1   
    20   11   12 1   
    21   11   30 1   
    22   11   57 1   
    23   12   13 1   
    24   12   58 1   
    25   12   59 1   
    26   13   14 1   
    27   13  101 1   
    28   14   15 1   
    29   14   60 1   
    30   14   61 1   
    31   15   16 1   
    32   15   17 1   
    33   15   62 1   
    34   16   63 1   
    35   16   64 1   
    36   16   65 1   
    37   17   66 1   
    38   17   67 1   
    39   17   68 1   
    40   18   19 1   
    41   18   20 1   
    42   18   21 1   
    43   21   22 ar  
    44   21   26 ar  
    45   22   23 ar  
    46   22   69 1   
    47   23   24 ar  
    48   23   70 1   
    49   24   25 ar  
    50   24   27 1   
    51   25   26 ar  
    52   25   71 1   
    53   26   72 1   
    54   27   28 1   
    55   28   73 1   
    56   28   74 1   
    57   28   75 1   
    58   29   31 1   
    59   29   76 1   
    60   29   77 1   
    61   30   78 1   
    62   31   32 ar  
    63   31   36 ar  
    64   32   33 ar  
    65   32   79 1   
    66   33   34 ar  
    67   33   80 1   
    68   34   35 ar  
    69   34   81 1   
    70   35   36 ar  
    71   35   82 1   
    72   36   83 1   
    73   37   38 ar  
    74   37   42 ar  
    75   38   39 ar  
    76   38   84 1   
    77   39   40 ar  
    78   39   85 1   
    79   40   41 ar  
    80   40   43 1   
    81   41   42 ar  
    82   41   86 1   
    83   42   87 1   
    84   43   44 1   
    85   43   88 1   
    86   43   89 1   
    87   44   45 1   
    88   44   90 1   
    89   44  102 1   
    90   45   46 2   
    91   45   47 1   
    92   47   48 1   
    93   48   49 1   
    94   48   50 1   
    95   48   51 1   
    96   49   91 1   
    97   49   92 1   
    98   49   93 1   
    99   50   94 1   
   100   50   95 1   
   101   50   96 1   
   102   51   97 1   
   103   51   98 1   
   104   51   99 1   
@<TRIPOS>SUBSTRUCTURE
     1 A83         1 TEMP              0 ****  ****    0 ROOT
