@<TRIPOS>MOLECULE
A83
   99    92     1     0     0
SMALL
bcc


@<TRIPOS>ATOM
      1 C          -1.6690    2.7250   -5.3080 c1        1 A83      0.338000
      2 O          -2.4960    2.8900   -6.1180 o         1 A83     -0.363000
      3 N          -2.0160    2.6720   -3.9670 n2        1 A83     -0.356000
      4 C1         -3.1500    1.8910   -3.5500 c3        1 A83      0.052000
      5 C2         -2.8330    1.2050   -2.2020 c2        1 A83     -0.209000
      6 C3         -3.6740    0.4220   -1.5030 c1        1 A83     -0.099000
      7 N1         -2.9690   -0.1700   -0.5120 n2        1 A83     -0.164000
      8 N2         -1.6970    0.2490   -0.6040 n2        1 A83     -0.021000
      9 N3         -1.6100    1.0970   -1.6450 n2        1 A83     -0.093000
     10 C4         -3.5270   -0.9780    0.5610 c2        1 A83      0.015000
     11 C5         -2.4870   -1.1720    1.6580 c3        1 A83      0.006000
     12 C6         -3.1850   -1.7210    2.9470 c3        1 A83     -0.015000
     13 N4         -2.3410   -1.5020    4.0860 n3        1 A83     -0.821000
     14 C7         -1.1420   -2.2700    4.2420 c3        1 A83     -0.012000
     15 C8         -1.3430   -3.3480    5.4060 c3        1 A83     -0.121000
     16 C9         -1.1210   -4.7460    4.8450 c3        1 A83     -0.215500
     17 C10        -0.3180   -3.0750    6.5470 c3        1 A83     -0.215500
     18 S          -2.8470   -0.4210    5.3330 s4        1 A83      2.065800
     19 O1         -3.8840    0.4460    4.8770 o         1 A83     -0.544900
     20 O2         -3.5400   -1.1450    6.4340 o         1 A83     -0.544900
     21 C11        -1.4500    0.5140    5.9460 c1        1 A83     -0.872000
     22 C12        -0.2340   -0.1390    6.2480 c2        1 A83      0.023000
     23 C13         0.8360    0.5870    6.8000 c1        1 A83     -0.236000
     24 C14         0.6950    1.9630    7.0520 c1        1 A83      0.147000
     25 C15        -0.5110    2.6070    6.7520 c1        1 A83     -0.184000
     26 C16        -1.5890    1.8740    6.1950 c1        1 A83      0.013000
     27 O3          1.7260    2.6740    7.7920 os        1 A83     -0.201000
     28 C17         2.7300    3.2220    6.9860 c3        1 A83     -0.080000
     29 C18        -3.9330   -2.3040    0.0260 c3        1 A83     -0.129000
     30 O4         -1.5060   -2.0940    1.2220 oh        1 A83     -0.325000
     31 C19        -5.4790   -2.2410   -0.4830 c2        1 A83     -0.089000
     32 C20        -5.8620   -2.9310   -1.6800 c2        1 A83     -0.115000
     33 C21        -7.1840   -3.0500   -2.0090 c1        1 A83     -0.125000
     34 C22        -8.1660   -2.4990   -1.1770 c1        1 A83     -0.124500
     35 C23        -7.7930   -1.8170    0.0070 c1        1 A83     -0.124500
     36 C24        -6.4580   -1.6940    0.3430 c1        1 A83     -0.133000
     37 C25        -0.1580    2.5310   -5.7440 c2        1 A83     -0.114000
     38 C26         0.3130    1.2720   -6.0450 c2        1 A83     -0.083000
     39 C27         1.6620    1.0840   -6.3560 c1        1 A83     -0.128000
     40 C28         2.5260    2.1590   -6.3620 c1        1 A83     -0.107000
     41 C29         2.0500    3.4400   -6.0560 c1        1 A83     -0.123000
     42 C30         0.7160    3.6240   -5.7490 c1        1 A83     -0.101000
     43 C31         4.0350    1.9330   -6.6010 c3        1 A83     -0.001000
     44 N5          4.6050    1.1560   -5.4650 n         1 A83     -0.323000
     45 C45         5.9630    0.8910   -5.4350 c2        1 A83      0.387000
     46 O46         6.6400    1.0700   -6.4340 o         1 A83     -0.404000
     47 O47         6.5950    0.3410   -4.1900 os        1 A83     -0.288000
     48 C48         8.0030    0.7700   -3.9950 c3        1 A83      0.114000
     49 C49         8.1110    2.2950   -4.1970 c3        1 A83     -0.232000
     50 C50         8.4550    0.4100   -2.5900 c3        1 A83     -0.232000
     51 C51         8.8740    0.0740   -4.9850 c3        1 A83     -0.232000
     52 HN         -1.5130    3.2290   -3.2910 hn        1 A83      0.231000
     53 H11        -3.3490    1.1880   -4.2480 h1        1 A83      0.115500
     54 H12A       -3.9630    2.4980   -3.4430 h1        1 A83      0.115500
     55 H3         -4.6210    0.3040   -1.6800 DU        1 A83      0.202000
     56 H4         -4.2540   -0.5560    0.9060 ha        1 A83      0.123000
     57 H5         -2.0450   -0.2790    1.8660 h1        1 A83      0.091000
     58 H61        -4.0620   -1.2420    3.0840 h1        1 A83      0.114000
     59 H62        -3.3530   -2.6830    2.8460 h1        1 A83      0.114000
     60 H71        -0.3840   -1.6620    4.4800 h1        1 A83      0.095000
     61 H72        -0.9390   -2.7280    3.4060 h1        1 A83      0.095000
     62 H8         -2.2460   -3.2790    5.7580 hc        1 A83      0.092000
     63 H91        -2.0000   -5.0960    4.4240 hc        1 A83      0.079167
     64 H92        -0.4300   -4.7170    4.1680 hc        1 A83      0.079167
     65 H93        -0.8410   -5.3550    5.5770 hc        1 A83      0.079167
     66 H101       -0.0770   -3.9350    6.9870 hc        1 A83      0.079167
     67 H102       -0.7350   -2.4430    7.2420 hc        1 A83      0.079167
     68 H103        0.4830   -2.6660    6.1740 hc        1 A83      0.079167
     69 H12        -0.1320   -1.1270    6.0670 ha        1 A83      0.157000
     70 H13         1.7140    0.1170    7.0190 ha        1 A83      0.147000
     71 H15        -0.6080    3.5380    6.9220 ha        1 A83      0.160000
     72 H16        -2.4050    2.3120    5.9920 ha        1 A83      0.150000
     73 H171        3.1120    2.5220    6.4200 h1        1 A83      0.091000
     74 H172        3.3980    3.5850    7.5270 h1        1 A83      0.091000
     75 H173        2.3310    3.9570    6.3980 h1        1 A83      0.091000
     76 H181       -3.3230   -2.5550   -0.7630 hc        1 A83      0.113000
     77 H182       -3.8540   -2.9440    0.6970 hc        1 A83      0.113000
     78 HO4        -0.7190   -1.7150    1.2430 ho        1 A83      0.223000
     79 H20        -5.1550   -3.3300   -2.2840 ha        1 A83      0.137000
     80 H21        -7.4390   -3.5110   -2.8110 ha        1 A83      0.134000
     81 H22        -9.1200   -2.5850   -1.4160 ha        1 A83      0.134000
     82 H23        -8.4500   -1.4490    0.5640 ha        1 A83      0.134000
     83 H24        -6.1830   -1.1920    1.2170 ha        1 A83      0.128000
     84 H26        -0.2690    0.5430   -6.0420 ha        1 A83      0.156000
     85 H27         1.9840    0.2150   -6.5630 ha        1 A83      0.136000
     86 H29         2.6900    4.2370   -6.0610 ha        1 A83      0.159000
     87 H30         0.3900    4.4950   -5.5410 ha        1 A83      0.143000
     88 H311        4.1560    1.4630   -7.3860 h1        1 A83      0.117000
     89 H312        4.4740    2.7710   -6.6650 h1        1 A83      0.117000
     90 HN5         4.0670    0.7470   -4.9020 hn        1 A83      0.225000
     91 H491        8.1610    2.5100   -5.2250 hc        1 A83      0.091333
     92 H492        8.9220    2.6250   -3.7560 hc        1 A83      0.091333
     93 H493        7.3230    2.7360   -3.8060 hc        1 A83      0.091333
     94 H501        9.3880    0.7430   -2.4450 hc        1 A83      0.091333
     95 H502        8.4320   -0.6060   -2.4750 hc        1 A83      0.091333
     96 H503        7.8650    0.8230   -1.9430 hc        1 A83      0.091333
     97 H511        8.5130   -0.8440   -5.1590 hc        1 A83      0.091333
     98 H512        8.8910    0.5700   -5.8020 hc        1 A83      0.091333
     99 H513        9.8110    0.0030   -4.6180 hc        1 A83      0.091333
@<TRIPOS>BOND
     1    1    2 1   
     2    1   37 1   
     3    3    4 1   
     4    3   52 1   
     5    4    5 1   
     6    4   53 1   
     7    4   54 1   
     8    5    6 1   
     9    5    9 1   
    10    6    7 1   
    11    7    8 1   
    12    8    9 1   
    13   10   11 1   
    14   10   29 1   
    15   10   56 1   
    16   11   12 1   
    17   11   30 1   
    18   11   57 1   
    19   12   13 1   
    20   12   58 1   
    21   12   59 1   
    22   13   14 1   
    23   13   18 1   
    24   14   15 1   
    25   14   60 1   
    26   14   61 1   
    27   15   16 1   
    28   15   17 1   
    29   15   62 1   
    30   16   63 1   
    31   16   64 1   
    32   16   65 1   
    33   17   66 1   
    34   17   67 1   
    35   17   68 1   
    36   18   19 1   
    37   18   20 1   
    38   21   22 1   
    39   21   26 1   
    40   22   23 1   
    41   22   69 1   
    42   23   70 1   
    43   24   25 1   
    44   24   27 1   
    45   25   71 1   
    46   26   72 1   
    47   27   28 1   
    48   28   73 1   
    49   28   74 1   
    50   28   75 1   
    51   29   31 1   
    52   29   76 1   
    53   29   77 1   
    54   30   78 1   
    55   31   32 1   
    56   31   36 1   
    57   32   33 1   
    58   32   79 1   
    59   33   80 1   
    60   34   35 1   
    61   34   81 1   
    62   35   82 1   
    63   36   83 1   
    64   37   38 1   
    65   37   42 1   
    66   38   39 1   
    67   38   84 1   
    68   39   85 1   
    69   40   41 1   
    70   40   43 1   
    71   41   86 1   
    72   42   87 1   
    73   43   44 1   
    74   43   88 1   
    75   43   89 1   
    76   44   45 1   
    77   44   90 1   
    78   45   46 1   
    79   45   47 1   
    80   47   48 1   
    81   48   49 1   
    82   48   50 1   
    83   48   51 1   
    84   49   91 1   
    85   49   92 1   
    86   49   93 1   
    87   50   94 1   
    88   50   95 1   
    89   50   96 1   
    90   51   97 1   
    91   51   98 1   
    92   51   99 1   
@<TRIPOS>SUBSTRUCTURE
     1 A83         1 TEMP              0 ****  ****    0 ROOT
