@<TRIPOS>MOLECULE
A83
  102   104     1     0     0
SMALL
bcc


@<TRIPOS>ATOM
      1 C          -1.7330   -3.0900   -1.2380 c         1 A83      0.557700
      2 O          -0.9990   -4.0590   -1.1030 o         1 A83     -0.393100
      3 N          -2.2150   -2.4240    0.0260 ny        1 A83     -0.673800
      4 C1         -1.1950   -2.4760    1.1370 c3        1 A83      0.138500
      5 C2         -1.7800   -2.0000    2.4000 cc        1 A83      0.105600
      6 C3         -1.6090   -2.4850    3.7150 cd        1 A83     -0.099600
      7 N1         -2.3510   -1.5990    4.4970 na        1 A83      0.074400
      8 N2         -2.9360   -0.6600    3.7040 nd        1 A83     -0.112800
      9 N3         -2.6200   -0.8570    2.4950 nc        1 A83     -0.368000
     10 C4         -2.5590   -1.7070    5.9460 c3        1 A83      0.069000
     11 C5         -1.2450   -1.3930    6.7200 c3        1 A83      0.102100
     12 C6         -1.5260   -1.3840    8.2380 c3        1 A83      0.096800
     13 N4         -0.5180   -0.7460    9.0770 n7        1 A83     -0.899200
     14 C7          0.5510   -1.6410    9.5230 c3        1 A83      0.127800
     15 C8          0.3140   -2.3190   10.8810 c3        1 A83     -0.068700
     16 C9         -0.8740   -3.2540   10.8700 c3        1 A83     -0.105600
     17 C10         1.5760   -3.0720   11.2580 c3        1 A83     -0.105600
     18 S          -1.8190    0.6740   10.7740 s4        1 A83      1.690300
     19 O1         -1.7690    1.6130    9.7890 o         1 A83     -0.441400
     20 O2         -2.7880   -0.2780   10.7990 o         1 A83     -0.441400
     21 C11        -0.9530    0.8820   12.0180 ca        1 A83     -0.693500
     22 C12        -0.0110    1.9600   12.1010 ca        1 A83      0.066000
     23 C13         0.7170    2.2110   13.2300 ca        1 A83     -0.214500
     24 C14         0.5460    1.3790   14.3790 ca        1 A83      0.307100
     25 C15        -0.3680    0.2940   14.3290 ca        1 A83     -0.214500
     26 C16        -1.0820    0.0610   13.1810 ca        1 A83      0.066000
     27 O3          1.2930    1.7100   15.4440 os        1 A83     -0.261900
     28 C17         1.1550    0.9350   16.6490 c3        1 A83      0.096700
     29 C18        -3.1120   -3.0810    6.3550 c3        1 A83     -0.048100
     30 O4         -0.3150   -2.4110    6.3860 oh        1 A83     -0.604800
     31 C19        -4.3450   -3.4780    5.6250 ca        1 A83     -0.117300
     32 C20        -4.4030   -4.7200    4.9810 ca        1 A83     -0.125000
     33 C21        -5.5770   -5.1300    4.3520 ca        1 A83     -0.122500
     34 C22        -6.7010   -4.3040    4.3590 ca        1 A83     -0.115000
     35 C23        -6.6490   -3.0650    4.9980 ca        1 A83     -0.122500
     36 C24        -5.4780   -2.6550    5.6320 ca        1 A83     -0.125000
     37 C25        -2.1790   -2.5020   -2.5140 ca        1 A83     -0.163600
     38 C26        -1.3180   -2.6470   -3.6140 ca        1 A83     -0.060000
     39 C27        -1.6880   -2.1340   -4.8580 ca        1 A83     -0.099500
     40 C28        -2.9210   -1.4920   -5.0150 ca        1 A83     -0.104300
     41 C29        -3.7850   -1.3630   -3.9200 ca        1 A83     -0.099500
     42 C30        -3.4150   -1.8610   -2.6710 ca        1 A83     -0.060000
     43 C31        -3.2810   -0.8700   -6.3280 c3        1 A83      0.152100
     44 N5         -3.5670   -1.8790   -7.3930 ny        1 A83     -0.659800
     45 C45        -3.5570   -1.2340   -8.7760 c         1 A83      0.640100
     46 O46        -2.6310   -0.5040   -9.0920 o         1 A83     -0.424000
     47 O47        -4.6370   -1.6160   -9.4410 os        1 A83     -0.423900
     48 C48        -4.8260   -1.1600  -10.8780 c3        1 A83      0.214800
     49 C49        -3.6740   -1.6850  -11.7010 c3        1 A83     -0.135433
     50 C50        -6.1410   -1.8410  -11.2110 c3        1 A83     -0.135433
     51 C51        -4.9310    0.3460  -10.8900 c3        1 A83     -0.135433
     52 HN         -2.4490   -1.4410   -0.1650 hn        1 A83      0.471800
     53 H11        -0.3290   -1.8240    0.8180 hx        1 A83      0.119700
     54 H12A       -0.8370   -3.5420    1.2430 hx        1 A83      0.119700
     55 H3         -1.0370   -3.3140    4.1420 h4        1 A83      0.227000
     56 H4         -3.3120   -0.9100    6.2340 h1        1 A83      0.108700
     57 H5         -0.8550   -0.3870    6.3910 h1        1 A83      0.061700
     58 H61        -2.4930   -0.8280    8.4100 h1        1 A83      0.089700
     59 H62        -1.6670   -2.4510    8.5770 h1        1 A83      0.089700
     60 H71         1.5000   -1.0340    9.6060 h1        1 A83      0.062700
     61 H72         0.7370   -2.4550    8.7630 h1        1 A83      0.062700
     62 H8          0.1360   -1.5200   11.6570 hc        1 A83      0.025700
     63 H91        -1.8310   -2.6870   10.7580 hc        1 A83      0.052033
     64 H92        -0.9190   -3.8250   11.8310 hc        1 A83      0.052033
     65 H93        -0.7890   -3.9930   10.0360 hc        1 A83      0.052033
     66 H101        2.4540   -2.3840   11.2970 hc        1 A83      0.052033
     67 H102        1.7880   -3.8800   10.5170 hc        1 A83      0.052033
     68 H103        1.4510   -3.5450   12.2630 hc        1 A83      0.052033
     69 H12         0.1120    2.6180   11.2180 ha        1 A83      0.173000
     70 H13         1.4340    3.0490   13.2860 ha        1 A83      0.193000
     71 H15        -0.5050   -0.3540   15.2110 ha        1 A83      0.193000
     72 H16        -1.7960   -0.7860   13.1470 ha        1 A83      0.173000
     73 H171        1.4600   -0.1220   16.4600 h1        1 A83      0.084033
     74 H172        1.8720    1.4460   17.3450 h1        1 A83      0.084033
     75 H173        0.1080    1.0020   17.0300 h1        1 A83      0.084033
     76 H181       -3.3570   -3.0260    7.4530 hc        1 A83      0.077700
     77 H182       -2.3080   -3.8550    6.2280 hc        1 A83      0.077700
     78 HO4         0.5600   -2.1060    6.6590 ho        1 A83      0.421000
     79 H20        -3.5290   -5.3880    4.9940 ha        1 A83      0.131500
     80 H21        -5.6230   -6.1190    3.8690 ha        1 A83      0.147500
     81 H22        -7.6340   -4.6360    3.8760 ha        1 A83      0.150000
     82 H23        -7.5390   -2.4170    5.0170 ha        1 A83      0.147500
     83 H24        -5.4530   -1.6850    6.1520 ha        1 A83      0.131500
     84 H26        -0.3490   -3.1650   -3.4960 ha        1 A83      0.172500
     85 H27        -0.9870   -2.2260   -5.7050 ha        1 A83      0.172000
     86 H29        -4.7590   -0.8570   -4.0310 ha        1 A83      0.172000
     87 H30        -4.1240   -1.7550   -1.8330 ha        1 A83      0.172500
     88 H311       -4.1930   -0.2120   -6.2270 hx        1 A83      0.134200
     89 H312       -2.4190   -0.2250   -6.6890 hx        1 A83      0.134200
     90 HN5        -2.8440   -2.6080   -7.3850 hn        1 A83      0.467800
     91 H491       -3.8680   -1.4570  -12.7800 hc        1 A83      0.078700
     92 H492       -2.7130   -1.1940  -11.4070 hc        1 A83      0.078700
     93 H493       -3.5750   -2.7910  -11.5870 hc        1 A83      0.078700
     94 H501       -6.0490   -2.9500  -11.1190 hc        1 A83      0.078700
     95 H502       -6.9550   -1.4860  -10.5350 hc        1 A83      0.078700
     96 H503       -6.4080   -1.5850  -12.2670 hc        1 A83      0.078700
     97 H511       -5.1920    0.6810  -11.9250 hc        1 A83      0.078700
     98 H512       -3.9590    0.8190  -10.6030 hc        1 A83      0.078700
     99 H513       -5.7320    0.6940  -10.1940 hc        1 A83      0.078700
    100 HN3        -3.0710   -2.8970    0.3470 hn        1 A83      0.471800
    101 H41        -0.1040    0.0180    8.5620 hn        1 A83      0.380800
    102 H52        -4.4800   -2.3220   -7.2360 hn        1 A83      0.467800
@<TRIPOS>BOND
     1    1    2 2   
     2    1    3 1   
     3    1   37 1   
     4    3    4 1   
     5    3   52 1   
     6    3  100 1   
     7    4    5 1   
     8    4   53 1   
     9    4   54 1   
    10    5    6 2   
    11    5    9 1   
    12    6    7 1   
    13    6   55 1   
    14    7    8 1   
    15    7   10 1   
    16    8    9 2   
    17   10   11 1   
    18   10   29 1   
    19   10   56 1   
    20   11   12 1   
    21   11   30 1   
    22   11   57 1   
    23   12   13 1   
    24   12   58 1   
    25   12   59 1   
    26   13   14 1   
    27   13  101 1   
    28   14   15 1   
    29   14   60 1   
    30   14   61 1   
    31   15   16 1   
    32   15   17 1   
    33   15   62 1   
    34   16   63 1   
    35   16   64 1   
    36   16   65 1   
    37   17   66 1   
    38   17   67 1   
    39   17   68 1   
    40   18   19 1   
    41   18   20 1   
    42   18   21 1   
    43   21   22 ar  
    44   21   26 ar  
    45   22   23 ar  
    46   22   69 1   
    47   23   24 ar  
    48   23   70 1   
    49   24   25 ar  
    50   24   27 1   
    51   25   26 ar  
    52   25   71 1   
    53   26   72 1   
    54   27   28 1   
    55   28   73 1   
    56   28   74 1   
    57   28   75 1   
    58   29   31 1   
    59   29   76 1   
    60   29   77 1   
    61   30   78 1   
    62   31   32 ar  
    63   31   36 ar  
    64   32   33 ar  
    65   32   79 1   
    66   33   34 ar  
    67   33   80 1   
    68   34   35 ar  
    69   34   81 1   
    70   35   36 ar  
    71   35   82 1   
    72   36   83 1   
    73   37   38 ar  
    74   37   42 ar  
    75   38   39 ar  
    76   38   84 1   
    77   39   40 ar  
    78   39   85 1   
    79   40   41 ar  
    80   40   43 1   
    81   41   42 ar  
    82   41   86 1   
    83   42   87 1   
    84   43   44 1   
    85   43   88 1   
    86   43   89 1   
    87   44   45 1   
    88   44   90 1   
    89   44  102 1   
    90   45   46 2   
    91   45   47 1   
    92   47   48 1   
    93   48   49 1   
    94   48   50 1   
    95   48   51 1   
    96   49   91 1   
    97   49   92 1   
    98   49   93 1   
    99   50   94 1   
   100   50   95 1   
   101   50   96 1   
   102   51   97 1   
   103   51   98 1   
   104   51   99 1   
@<TRIPOS>SUBSTRUCTURE
     1 A83         1 TEMP              0 ****  ****    0 ROOT
