@<TRIPOS>MOLECULE
A83
   99   102     1     0     0
SMALL
bcc


@<TRIPOS>ATOM
      1 C          -3.1880   -2.2170    2.1640 c         1 A83      0.662700
      2 O          -2.9850   -1.6180    3.2400 o         1 A83     -0.604100
      3 N          -2.1610   -2.8640    1.4920 n         1 A83     -0.541900
      4 C1         -0.7830   -2.6210    1.8210 c3        1 A83      0.073700
      5 C2         -0.1010   -1.6350    0.9400 cc        1 A83      0.206600
      6 C3          0.7190   -0.5510    1.2980 cd        1 A83     -0.189600
      7 N1          1.0950    0.0120    0.0690 na        1 A83      0.048400
      8 N2          0.5220   -0.6860   -0.9460 nd        1 A83     -0.157800
      9 N3         -0.1670   -1.6410   -0.4770 nc        1 A83     -0.364000
     10 C4          1.9130    1.2080   -0.0940 c3        1 A83      0.036000
     11 C5          3.2640    1.0650    0.6640 c3        1 A83      0.098100
     12 C6          4.2510    2.1530    0.1760 c3        1 A83      0.192800
     13 N4          5.6360    1.7990    0.2810 n3        1 A83     -0.800500
     14 C7          6.1890    1.6970    1.6080 c3        1 A83      0.218800
     15 C8          6.9540    2.9350    2.1100 c3        1 A83     -0.096700
     16 C9          6.0440    4.1310    2.2750 c3        1 A83     -0.087600
     17 C10         7.6140    2.5870    3.4290 c3        1 A83     -0.087600
     18 S           6.5670    1.5180   -1.0410 sy        1 A83      1.510200
     19 O1          5.8750    1.9770   -2.1880 o         1 A83     -0.653800
     20 O2          7.8610    2.0410   -0.8320 o         1 A83     -0.653800
     21 C11         6.6690   -0.1550   -1.0980 ca        1 A83     -0.432500
     22 C12         5.7380   -0.9060   -1.8340 ca        1 A83      0.018000
     23 C13         5.8240   -2.2860   -1.9160 ca        1 A83     -0.209500
     24 C14         6.8760   -2.9470   -1.2470 ca        1 A83      0.193100
     25 C15         7.8250   -2.2170   -0.5140 ca        1 A83     -0.209500
     26 C16         7.7100   -0.8340   -0.4520 ca        1 A83      0.018000
     27 O3          6.8790   -4.3140   -1.3800 os        1 A83     -0.316900
     28 C17         7.9390   -5.0160   -0.7350 c3        1 A83      0.109700
     29 C18         1.1810    2.4860    0.3550 c3        1 A83     -0.052100
     30 O4          3.0790    1.1190    2.0650 oh        1 A83     -0.593800
     31 C19         0.0620    2.8500   -0.5540 ca        1 A83     -0.094300
     32 C20        -1.2650    2.7540   -0.1210 ca        1 A83     -0.118000
     33 C21        -2.3080    3.1150   -0.9730 ca        1 A83     -0.125000
     34 C22        -2.0350    3.5740   -2.2600 ca        1 A83     -0.122000
     35 C23        -0.7130    3.6730   -2.6960 ca        1 A83     -0.125000
     36 C24         0.3320    3.3140   -1.8480 ca        1 A83     -0.118000
     37 C25        -4.5620   -2.3490    1.5980 ca        1 A83     -0.133600
     38 C26        -5.6250   -2.5760    2.4810 ca        1 A83     -0.092000
     39 C27        -6.9230   -2.6920    1.9900 ca        1 A83     -0.124500
     40 C28        -7.1710   -2.5720    0.6180 ca        1 A83     -0.110300
     41 C29        -6.1100   -2.3280   -0.2590 ca        1 A83     -0.124500
     42 C30        -4.8070   -2.2210    0.2280 ca        1 A83     -0.092000
     43 C31        -8.5710   -2.7210    0.0920 c3        1 A83      0.117300
     44 N5         -9.4870   -1.6820    0.4950 n         1 A83     -0.509900
     45 C45        -9.7150   -0.6160   -0.3730 c         1 A83      0.732100
     46 O46        -9.5580   -0.6090   -1.6050 o         1 A83     -0.587000
     47 O47       -10.2220    0.4770    0.2870 os        1 A83     -0.450900
     48 C48       -10.7660    1.5840   -0.4780 c3        1 A83      0.185800
     49 C49       -11.8980    1.1170   -1.3770 c3        1 A83     -0.114100
     50 C50       -11.2990    2.5140    0.6110 c3        1 A83     -0.114100
     51 C51        -9.6680    2.2730   -1.2720 c3        1 A83     -0.114100
     52 HN         -2.3400   -3.1790    0.5650 hn        1 A83      0.315500
     53 H11        -0.2370   -3.6080    1.7420 h1        1 A83      0.075700
     54 H12A       -0.7170   -2.2570    2.8880 h1        1 A83      0.075700
     55 H3          1.0750   -0.1670    2.2550 h4        1 A83      0.207000
     56 H4          2.1480    1.3080   -1.1990 h1        1 A83      0.101700
     57 H5          3.6880    0.0340    0.4890 h1        1 A83      0.101700
     58 H61         4.0650    3.0890    0.7830 h1        1 A83      0.069700
     59 H62         4.0240    2.3930   -0.9050 h1        1 A83      0.069700
     60 H71         5.3640    1.4600    2.3420 h1        1 A83      0.054700
     61 H72         6.9070    0.8230    1.6120 h1        1 A83      0.054700
     62 H8          7.7590    3.1910    1.3610 hc        1 A83      0.081700
     63 H91         5.1530    3.8680    2.8950 hc        1 A83      0.034867
     64 H92         6.5910    4.9640    2.7800 hc        1 A83      0.034867
     65 H93         5.6920    4.5000    1.2810 hc        1 A83      0.034867
     66 H101        8.3120    1.7240    3.3030 hc        1 A83      0.034867
     67 H102        8.1980    3.4600    3.8060 hc        1 A83      0.034867
     68 H103        6.8480    2.3160    4.1940 hc        1 A83      0.034867
     69 H12         4.9300   -0.3800   -2.3740 ha        1 A83      0.154500
     70 H13         5.0950   -2.8740   -2.4920 ha        1 A83      0.155000
     71 H15         8.6540   -2.7220    0.0000 ha        1 A83      0.155000
     72 H16         8.4660   -0.2520    0.1060 ha        1 A83      0.154500
     73 H171        8.9280   -4.6970   -1.1440 h1        1 A83      0.051700
     74 H172        7.8990   -4.8580    0.3700 h1        1 A83      0.051700
     75 H173        7.7300   -6.0860   -0.9910 h1        1 A83      0.051700
     76 H181        0.8040    2.3590    1.4050 hc        1 A83      0.059200
     77 H182        1.9330    3.3210    0.3610 hc        1 A83      0.059200
     78 HO4         2.8460    2.0260    2.3010 ho        1 A83      0.403000
     79 H20        -1.4880    2.3890    0.8930 ha        1 A83      0.132500
     80 H21        -3.3490    3.0330   -0.6260 ha        1 A83      0.135500
     81 H22        -2.8590    3.8550   -2.9320 ha        1 A83      0.134000
     82 H23        -0.4940    4.0340   -3.7120 ha        1 A83      0.135500
     83 H24         1.3730    3.3940   -2.1950 ha        1 A83      0.132500
     84 H26        -5.4220   -2.6520    3.5610 ha        1 A83      0.150500
     85 H27        -7.7550   -2.8810    2.6840 ha        1 A83      0.142000
     86 H29        -6.3020   -2.2170   -1.3370 ha        1 A83      0.142000
     87 H30        -3.9850   -2.0160   -0.4760 ha        1 A83      0.150500
     88 H311       -8.5550   -2.7730   -1.0360 h1        1 A83      0.078700
     89 H312       -8.9960   -3.6920    0.4840 h1        1 A83      0.078700
     90 HN5        -9.4820   -1.4500    1.4650 hn        1 A83      0.309500
     91 H491      -12.6390    0.5290   -0.7850 hc        1 A83      0.052033
     92 H492      -12.4080    2.0040   -1.8220 hc        1 A83      0.052033
     93 H493      -11.5020    0.4740   -2.2010 hc        1 A83      0.052033
     94 H501      -10.4720    2.8210    1.2940 hc        1 A83      0.052033
     95 H502      -11.7380    3.4210    0.1310 hc        1 A83      0.052033
     96 H503      -12.0850    1.9960    1.2090 hc        1 A83      0.052033
     97 H511       -9.3080    1.6120   -2.0960 hc        1 A83      0.052033
     98 H512      -10.0660    3.2190   -1.7110 hc        1 A83      0.052033
     99 H513       -8.8080    2.5170   -0.6040 hc        1 A83      0.052033
@<TRIPOS>BOND
     1    1    2 2   
     2    1    3 1   
     3    1   37 1   
     4    3    4 1   
     5    3   52 1   
     6    4    5 1   
     7    4   53 1   
     8    4   54 1   
     9    5    6 2   
    10    5    9 1   
    11    6    7 1   
    12    6   55 1   
    13    7    8 1   
    14    7   10 1   
    15    8    9 2   
    16   10   11 1   
    17   10   29 1   
    18   10   56 1   
    19   11   12 1   
    20   11   30 1   
    21   11   57 1   
    22   12   13 1   
    23   12   58 1   
    24   12   59 1   
    25   13   14 1   
    26   13   18 1   
    27   14   15 1   
    28   14   60 1   
    29   14   61 1   
    30   15   16 1   
    31   15   17 1   
    32   15   62 1   
    33   16   63 1   
    34   16   64 1   
    35   16   65 1   
    36   17   66 1   
    37   17   67 1   
    38   17   68 1   
    39   18   19 2   
    40   18   20 2   
    41   18   21 1   
    42   21   22 ar  
    43   21   26 ar  
    44   22   23 ar  
    45   22   69 1   
    46   23   24 ar  
    47   23   70 1   
    48   24   25 ar  
    49   24   27 1   
    50   25   26 ar  
    51   25   71 1   
    52   26   72 1   
    53   27   28 1   
    54   28   73 1   
    55   28   74 1   
    56   28   75 1   
    57   29   31 1   
    58   29   76 1   
    59   29   77 1   
    60   30   78 1   
    61   31   32 ar  
    62   31   36 ar  
    63   32   33 ar  
    64   32   79 1   
    65   33   34 ar  
    66   33   80 1   
    67   34   35 ar  
    68   34   81 1   
    69   35   36 ar  
    70   35   82 1   
    71   36   83 1   
    72   37   38 ar  
    73   37   42 ar  
    74   38   39 ar  
    75   38   84 1   
    76   39   40 ar  
    77   39   85 1   
    78   40   41 ar  
    79   40   43 1   
    80   41   42 ar  
    81   41   86 1   
    82   42   87 1   
    83   43   44 1   
    84   43   88 1   
    85   43   89 1   
    86   44   45 1   
    87   44   90 1   
    88   45   46 2   
    89   45   47 1   
    90   47   48 1   
    91   48   49 1   
    92   48   50 1   
    93   48   51 1   
    94   49   91 1   
    95   49   92 1   
    96   49   93 1   
    97   50   94 1   
    98   50   95 1   
    99   50   96 1   
   100   51   97 1   
   101   51   98 1   
   102   51   99 1   
@<TRIPOS>SUBSTRUCTURE
     1 A83         1 TEMP              0 ****  ****    0 ROOT
