@<TRIPOS>MOLECULE
A83
  102   104     1     0     0
SMALL
bcc


@<TRIPOS>ATOM
      1 C          -2.7550   -3.5810   -1.2750 c         1 A83      0.558700
      2 O          -2.6160   -4.7940   -1.2030 o         1 A83     -0.391100
      3 N          -2.8000   -2.8290    0.0330 n4        1 A83     -0.673800
      4 C1         -1.8760   -3.4190    1.0690 c3        1 A83      0.135500
      5 C2         -2.1140   -2.8160    2.3900 cc        1 A83      0.105600
      6 C3         -2.1470   -3.4330    3.6620 cd        1 A83     -0.105600
      7 N1         -2.3320   -2.3720    4.5450 na        1 A83      0.067400
      8 N2         -2.4160   -1.2040    3.8470 nd        1 A83     -0.134800
      9 N3         -2.2870   -1.4240    2.6080 nc        1 A83     -0.360000
     10 C4         -2.4820   -2.4500    6.0080 c3        1 A83      0.035000
     11 C5         -1.3350   -1.6790    6.7290 c3        1 A83      0.107100
     12 C6         -1.6090   -1.6310    8.2490 c3        1 A83      0.128800
     13 N4         -0.8440   -0.6480    9.0070 n3        1 A83     -0.894200
     14 C7          0.5360   -1.0500    9.2990 c3        1 A83      0.121800
     15 C8          0.7480   -1.7660   10.6400 c3        1 A83     -0.067700
     16 C9          0.0560   -3.1080   10.7070 c3        1 A83     -0.105100
     17 C10         2.2410   -1.9330   10.8510 c3        1 A83     -0.105100
     18 S          -2.3940    0.0780   10.8450 s4        1 A83      1.687300
     19 O1         -2.9600    0.8670    9.8900 o         1 A83     -0.444900
     20 O2         -2.8020   -1.2050   11.0340 o         1 A83     -0.444900
     21 C11        -1.5390    0.7510   11.9260 ca        1 A83     -0.686500
     22 C12        -1.1840    2.1370   11.8410 ca        1 A83      0.066500
     23 C13        -0.4840    2.7750   12.8270 ca        1 A83     -0.215000
     24 C14        -0.0860    2.0500   13.9910 ca        1 A83      0.304100
     25 C15        -0.4130    0.6740   14.1050 ca        1 A83     -0.215000
     26 C16        -1.1110    0.0560   13.0980 ca        1 A83      0.066500
     27 O3          0.5870    2.7610   14.9090 os        1 A83     -0.264900
     28 C17         0.9990    2.1040   16.1220 c3        1 A83      0.096700
     29 C18        -2.5630   -3.8920    6.5240 c3        1 A83     -0.053100
     30 O4         -0.0980   -2.3450    6.5670 oh        1 A83     -0.589800
     31 C19        -3.6660   -4.7040    5.9460 ca        1 A83     -0.127300
     32 C20        -3.4000   -6.0000    5.4840 ca        1 A83     -0.135000
     33 C21        -4.4360   -6.8080    5.0180 ca        1 A83     -0.118000
     34 C22        -5.7460   -6.3290    5.0070 ca        1 A83     -0.112000
     35 C23        -6.0180   -5.0410    5.4680 ca        1 A83     -0.118000
     36 C24        -4.9840   -4.2330    5.9400 ca        1 A83     -0.135000
     37 C25        -2.8680   -2.7840   -2.5090 ca        1 A83     -0.164600
     38 C26        -2.2070   -3.2800   -3.6460 ca        1 A83     -0.060000
     39 C27        -2.2960   -2.5930   -4.8560 ca        1 A83     -0.100000
     40 C28        -3.0570   -1.4210   -4.9440 ca        1 A83     -0.103300
     41 C29        -3.7270   -0.9380   -3.8140 ca        1 A83     -0.100000
     42 C30        -3.6300   -1.6130   -2.5970 ca        1 A83     -0.060000
     43 C31        -3.0880   -0.6420   -6.2230 c3        1 A83      0.152100
     44 N5         -3.8360   -1.3370   -7.3130 n4        1 A83     -0.660800
     45 C45        -3.5300   -0.7160   -8.6730 c         1 A83      0.640100
     46 O46        -2.3700   -0.4940   -8.9840 o         1 A83     -0.424000
     47 O47        -4.6650   -0.5180   -9.3260 os        1 A83     -0.423900
     48 C48        -4.6240    0.0310  -10.7420 c3        1 A83      0.214800
     49 C49        -3.8560   -0.9390  -11.6070 c3        1 A83     -0.135433
     50 C50        -6.1060    0.0610  -11.0680 c3        1 A83     -0.135433
     51 C51        -4.0080    1.4090  -10.7000 c3        1 A83     -0.135433
     52 HN         -2.5460   -1.8450   -0.1190 hn        1 A83      0.470800
     53 H11        -0.8200   -3.2230    0.7170 hx        1 A83      0.121700
     54 H12A       -2.0530   -4.5350    1.1090 hx        1 A83      0.121700
     55 H3         -2.0700   -4.4790    3.9740 h4        1 A83      0.231000
     56 H4         -3.4530   -1.9190    6.2550 h1        1 A83      0.098700
     57 H5         -1.2800   -0.6310    6.3150 h1        1 A83      0.067700
     58 H61        -1.4010   -2.6530    8.6800 h1        1 A83      0.088700
     59 H62        -2.7000   -1.3850    8.3950 h1        1 A83      0.088700
     60 H71         0.9350   -1.7180    8.4790 h1        1 A83      0.075200
     61 H72         1.1680   -0.1140    9.3090 h1        1 A83      0.075200
     62 H8          0.3470   -1.1130   11.4680 hc        1 A83      0.020700
     63 H91         0.3930   -3.6670   11.6150 hc        1 A83      0.051200
     64 H92        -1.0540   -2.9860   10.7700 hc        1 A83      0.051200
     65 H93         0.3050   -3.7270    9.8110 hc        1 A83      0.051200
     66 H101        2.4350   -2.4160   11.8390 hc        1 A83      0.051200
     67 H102        2.6800   -2.5790   10.0530 hc        1 A83      0.051200
     68 H103        2.7580   -0.9430   10.8320 hc        1 A83      0.051200
     69 H12        -1.5060    2.7070   10.9470 ha        1 A83      0.172500
     70 H13        -0.2220    3.8450   12.7550 ha        1 A83      0.191500
     71 H15        -0.1110    0.1060   15.0020 ha        1 A83      0.191500
     72 H16        -1.3680   -1.0180   13.1940 ha        1 A83      0.172500
     73 H171        1.5100    2.9320   16.6810 h1        1 A83      0.082700
     74 H172        1.7100    1.2770   15.8850 h1        1 A83      0.082700
     75 H173        0.1050    1.7340   16.6780 h1        1 A83      0.082700
     76 H181       -2.7340   -3.8310    7.6360 hc        1 A83      0.083200
     77 H182       -1.5690   -4.3950    6.3720 hc        1 A83      0.083200
     78 HO4         0.2490   -2.1200    5.6950 ho        1 A83      0.419000
     79 H20        -2.3730   -6.3980    5.5210 ha        1 A83      0.133000
     80 H21        -4.2210   -7.8330    4.6770 ha        1 A83      0.151000
     81 H22        -6.5660   -6.9730    4.6530 ha        1 A83      0.154000
     82 H23        -7.0540   -4.6670    5.4790 ha        1 A83      0.151000
     83 H24        -5.2160   -3.2300    6.3270 ha        1 A83      0.133000
     84 H26        -1.6170   -4.2130   -3.5820 ha        1 A83      0.172000
     85 H27        -1.7440   -2.9750   -5.7310 ha        1 A83      0.172500
     86 H29        -4.3280   -0.0140   -3.8710 ha        1 A83      0.172500
     87 H30        -4.1800   -1.2140   -1.7290 ha        1 A83      0.172000
     88 H311       -2.0260   -0.4740   -6.5880 hx        1 A83      0.134700
     89 H312       -3.5700    0.3680   -6.0680 hx        1 A83      0.134700
     90 HN5        -3.5570   -2.3250   -7.3530 hn        1 A83      0.467800
     91 H491       -4.2890   -1.9660  -11.5340 hc        1 A83      0.078811
     92 H492       -3.9250   -0.6040  -12.6740 hc        1 A83      0.078811
     93 H493       -2.7770   -0.9690  -11.3190 hc        1 A83      0.078811
     94 H501       -6.5450   -0.9640  -11.0160 hc        1 A83      0.078811
     95 H502       -6.2250    0.4560  -12.1080 hc        1 A83      0.078811
     96 H503       -6.6550    0.7290  -10.3610 hc        1 A83      0.078811
     97 H511       -4.5490    2.0650   -9.9760 hc        1 A83      0.078811
     98 H512       -4.0850    1.8690  -11.7180 hc        1 A83      0.078811
     99 H513       -2.9270    1.3590  -10.4190 hc        1 A83      0.078811
    100 HN3        -3.7610   -2.8550    0.4000 hn        1 A83      0.470800
    101 H41        -0.8140    0.2100    8.4730 hn        1 A83      0.381800
    102 H52        -4.8490   -1.2920   -7.1440 hn        1 A83      0.467800
@<TRIPOS>BOND
     1    1    2 2   
     2    1    3 1   
     3    1   37 1   
     4    3    4 1   
     5    3   52 1   
     6    3  100 1   
     7    4    5 1   
     8    4   53 1   
     9    4   54 1   
    10    5    6 2   
    11    5    9 1   
    12    6    7 1   
    13    6   55 1   
    14    7    8 1   
    15    7   10 1   
    16    8    9 2   
    17   10   11 1   
    18   10   29 1   
    19   10   56 1   
    20   11   12 1   
    21   11   30 1   
    22   11   57 1   
    23   12   13 1   
    24   12   58 1   
    25   12   59 1   
    26   13   14 1   
    27   13  101 1   
    28   14   15 1   
    29   14   60 1   
    30   14   61 1   
    31   15   16 1   
    32   15   17 1   
    33   15   62 1   
    34   16   63 1   
    35   16   64 1   
    36   16   65 1   
    37   17   66 1   
    38   17   67 1   
    39   17   68 1   
    40   18   19 1   
    41   18   20 1   
    42   18   21 1   
    43   21   22 ar  
    44   21   26 ar  
    45   22   23 ar  
    46   22   69 1   
    47   23   24 ar  
    48   23   70 1   
    49   24   25 ar  
    50   24   27 1   
    51   25   26 ar  
    52   25   71 1   
    53   26   72 1   
    54   27   28 1   
    55   28   73 1   
    56   28   74 1   
    57   28   75 1   
    58   29   31 1   
    59   29   76 1   
    60   29   77 1   
    61   30   78 1   
    62   31   32 ar  
    63   31   36 ar  
    64   32   33 ar  
    65   32   79 1   
    66   33   34 ar  
    67   33   80 1   
    68   34   35 ar  
    69   34   81 1   
    70   35   36 ar  
    71   35   82 1   
    72   36   83 1   
    73   37   38 ar  
    74   37   42 ar  
    75   38   39 ar  
    76   38   84 1   
    77   39   40 ar  
    78   39   85 1   
    79   40   41 ar  
    80   40   43 1   
    81   41   42 ar  
    82   41   86 1   
    83   42   87 1   
    84   43   44 1   
    85   43   88 1   
    86   43   89 1   
    87   44   45 1   
    88   44   90 1   
    89   44  102 1   
    90   45   46 2   
    91   45   47 1   
    92   47   48 1   
    93   48   49 1   
    94   48   50 1   
    95   48   51 1   
    96   49   91 1   
    97   49   92 1   
    98   49   93 1   
    99   50   94 1   
   100   50   95 1   
   101   50   96 1   
   102   51   97 1   
   103   51   98 1   
   104   51   99 1   
@<TRIPOS>SUBSTRUCTURE
     1 A83         1 TEMP              0 ****  ****    0 ROOT
