@<TRIPOS>MOLECULE
A84
   54    56     1     0     0
SMALL
bcc


@<TRIPOS>ATOM
      1 C1         -5.9400    1.6730   -0.9670 c3        1 A84     -0.074400
      2 C2         -5.2620    1.9330    0.3610 c3        1 A84     -0.019100
      3 C3         -3.9700    1.2080    0.5030 ca        1 A84     -0.122300
      4 C4         -3.6400    0.0990   -0.2940 ca        1 A84     -0.014300
      5 C5         -4.5680   -0.3770   -1.3600 c3        1 A84     -0.056100
      6 C6         -5.9670    0.1890   -1.2580 c3        1 A84     -0.071400
      7 C7         -3.0750    1.6360    1.4860 ca        1 A84     -0.120000
      8 C8         -1.8530    1.0050    1.6700 ca        1 A84     -0.208000
      9 C9         -1.4930   -0.0850    0.8490 ca        1 A84      0.179600
     10 C10        -2.4120   -0.5570   -0.1230 ca        1 A84     -0.145600
     11 C11        -2.0610   -1.7830   -0.9570 c         1 A84      0.912200
     12 O12        -0.9310   -1.8040   -1.5360 o         1 A84     -0.828800
     13 O13        -2.8770   -2.7410   -1.0140 o         1 A84     -0.828800
     14 N14        -0.2360   -0.7060    0.9940 nh        1 A84     -0.770500
     15 S15         1.0980   -0.1160    1.6580 sy        1 A84      1.500200
     16 O16         0.8630    0.5200    2.9060 o         1 A84     -0.669300
     17 O17         2.0860   -1.1310    1.7240 o         1 A84     -0.669300
     18 C18         1.6260    1.1030    0.5810 ca        1 A84     -0.364500
     19 C19         2.0330    0.8560   -0.7410 ca        1 A84      0.118200
     20 C20         2.4960    1.9050   -1.5470 ca        1 A84     -0.199000
     21 C21         2.5420    3.2110   -1.0380 ca        1 A84      0.169900
     22 C22         2.1270    3.4730    0.2820 ca        1 A84     -0.210000
     23 C23         1.6770    2.4190    1.0620 ca        1 A84     -0.005000
     24 F24         2.9890    4.2260   -1.8170 f         1 A84     -0.149900
     25 C25         1.9430   -0.4790   -1.3300 ce        1 A84     -0.197200
     26 C26         2.9750   -1.2820   -1.6050 c2        1 A84     -0.118200
     27 C27         4.4110   -0.9350   -1.3710 c3        1 A84      0.193000
     28 N28         5.1740   -1.9960   -0.7200 n3        1 A84     -0.732600
     29 C29         6.5780   -1.6630   -0.6300 c3        1 A84      0.153600
     30 C30         4.6170   -2.4010    0.5540 c3        1 A84      0.153600
     31 H11        -6.9840    2.0820   -0.9430 hc        1 A84      0.028700
     32 H12        -5.3880    2.2050   -1.7850 hc        1 A84      0.028700
     33 H21        -5.9450    1.6120    1.1950 hc        1 A84      0.031700
     34 H22A       -5.0920    3.0370    0.4820 hc        1 A84      0.031700
     35 H51        -4.6170   -1.5030   -1.3260 hc        1 A84      0.081700
     36 H52        -4.1220   -0.1000   -2.3550 hc        1 A84      0.081700
     37 H61        -6.5290   -0.3390   -0.4430 hc        1 A84      0.030700
     38 H62        -6.5140   -0.0010   -2.2180 hc        1 A84      0.030700
     39 H7         -3.3410    2.4900    2.1280 ha        1 A84      0.112000
     40 H8         -1.1820    1.3640    2.4670 ha        1 A84      0.145000
     41 H14        -0.1630   -1.5300    0.4090 hn        1 A84      0.502800
     42 H20         2.8100    1.7070   -2.5810 ha        1 A84      0.152000
     43 H22         2.1590    4.4980    0.6740 ha        1 A84      0.143000
     44 H23         1.3470    2.6200    2.1000 ha        1 A84      0.164000
     45 H25         0.9010   -0.8020   -1.5770 ha        1 A84      0.226000
     46 H26         2.7890   -2.2780   -2.0440 ha        1 A84      0.148000
     47 H271        4.4770    0.0340   -0.7910 h1        1 A84      0.030200
     48 H272        4.8850   -0.7550   -2.3810 h1        1 A84      0.030200
     49 H291        7.1260   -2.5340   -0.1840 h1        1 A84      0.032533
     50 H292        6.9790   -1.4740   -1.6600 h1        1 A84      0.032533
     51 H293        6.7850   -0.7550    0.0020 h1        1 A84      0.032533
     52 H301        3.5190   -2.6090    0.4360 h1        1 A84      0.032533
     53 H302        5.1360   -3.3370    0.8860 h1        1 A84      0.032533
     54 H303        4.7280   -1.6210    1.3560 h1        1 A84      0.032533
@<TRIPOS>BOND
     1    1    2 1   
     2    1    6 1   
     3    1   31 1   
     4    1   32 1   
     5    2    3 1   
     6    2   33 1   
     7    2   34 1   
     8    3    4 ar  
     9    3    7 ar  
    10    4    5 1   
    11    4   10 ar  
    12    5    6 1   
    13    5   35 1   
    14    5   36 1   
    15    6   37 1   
    16    6   38 1   
    17    7    8 ar  
    18    7   39 1   
    19    8    9 ar  
    20    8   40 1   
    21    9   10 ar  
    22    9   14 1   
    23   10   11 1   
    24   11   12 1   
    25   11   13 1   
    26   14   15 1   
    27   14   41 1   
    28   15   16 2   
    29   15   17 2   
    30   15   18 1   
    31   18   19 ar  
    32   18   23 ar  
    33   19   20 ar  
    34   19   25 1   
    35   20   21 ar  
    36   20   42 1   
    37   21   22 ar  
    38   21   24 1   
    39   22   23 ar  
    40   22   43 1   
    41   23   44 1   
    42   25   26 2   
    43   25   45 1   
    44   26   27 1   
    45   26   46 1   
    46   27   28 1   
    47   27   47 1   
    48   27   48 1   
    49   28   29 1   
    50   28   30 1   
    51   29   49 1   
    52   29   50 1   
    53   29   51 1   
    54   30   52 1   
    55   30   53 1   
    56   30   54 1   
@<TRIPOS>SUBSTRUCTURE
     1 A84         1 TEMP              0 ****  ****    0 ROOT
