@<TRIPOS>MOLECULE
A84
   55    57     1     0     0
SMALL
bcc


@<TRIPOS>ATOM
      1 C1         -0.6480    1.0440    2.4510 c3        1 A84     -0.076400
      2 C2          0.5940    1.3320    1.6340 c3        1 A84     -0.032100
      3 C3          1.7930    0.5850    2.1070 ca        1 A84     -0.075300
      4 C4          1.8490    0.0030    3.3840 ca        1 A84     -0.026300
      5 C5          0.6860    0.0620    4.3150 c3        1 A84     -0.050100
      6 C6         -0.3390    1.1070    3.9300 c3        1 A84     -0.074400
      7 C7          2.9010    0.4990    1.2570 ca        1 A84     -0.127000
      8 C8          4.0540   -0.1720    1.6430 ca        1 A84     -0.128000
      9 C9          4.1170   -0.7730    2.9140 ca        1 A84      0.123600
     10 C10         3.0100   -0.6660    3.7910 ca        1 A84     -0.111600
     11 C11         3.1460   -1.2550    5.1620 c         1 A84      0.908200
     12 O12         3.0850   -0.5340    6.2050 o         1 A84     -0.858300
     13 O13         3.4560   -2.4890    5.3020 o         1 A84     -0.858300
     14 N14         5.2580   -1.5150    3.3100 nh        1 A84     -0.793500
     15 S15         6.6600   -0.8430    3.6950 sy        1 A84      1.518200
     16 O16         7.0680    0.1320    2.7640 o         1 A84     -0.674800
     17 O17         6.6940   -0.4180    5.0470 o         1 A84     -0.674800
     18 C18         7.7750   -2.1510    3.6200 ca        1 A84     -0.343500
     19 C19         7.6450   -3.4120    4.2210 ca        1 A84      0.072200
     20 C20         8.7160   -4.3160    4.2160 ca        1 A84     -0.196000
     21 C21         9.9250   -3.9750    3.5890 ca        1 A84      0.183900
     22 C22        10.0550   -2.7310    2.9440 ca        1 A84     -0.186000
     23 C23         8.9850   -1.8500    2.9690 ca        1 A84     -0.015000
     24 F24        10.9580   -4.8470    3.5960 f         1 A84     -0.129900
     25 C25         6.3910   -3.9280    4.7710 ce        1 A84     -0.145200
     26 C26         5.7940   -3.6880    5.9390 c2        1 A84     -0.135200
     27 C27         6.2550   -2.7310    6.9880 c3        1 A84      0.138000
     28 N28         5.1060   -2.0130    7.6330 n4        1 A84     -0.694400
     29 C29         4.6490   -2.7200    8.8480 c3        1 A84      0.094100
     30 C30         5.4440   -0.6020    7.9350 c3        1 A84      0.094100
     31 H11        -1.0430    0.0270    2.1940 hc        1 A84      0.039700
     32 H12        -1.4440    1.7900    2.1930 hc        1 A84      0.039700
     33 H21         0.3970    1.0840    0.5570 hc        1 A84      0.047200
     34 H22A        0.8250    2.4320    1.6830 hc        1 A84      0.047200
     35 H51         1.0600    0.2660    5.3580 hc        1 A84      0.072200
     36 H52         0.2000   -0.9520    4.3290 hc        1 A84      0.072200
     37 H61         0.0470    2.1280    4.1890 hc        1 A84      0.040700
     38 H62        -1.2760    0.9420    4.5230 hc        1 A84      0.040700
     39 H7          2.8580    0.9700    0.2630 ha        1 A84      0.130000
     40 H8          4.9170   -0.2180    0.9610 ha        1 A84      0.145000
     41 H14         4.9840   -2.4250    3.6310 hn        1 A84      0.485800
     42 H20         8.6120   -5.3020    4.6930 ha        1 A84      0.155000
     43 H22        10.9920   -2.4720    2.4310 ha        1 A84      0.160000
     44 H23         9.0910   -0.8710    2.4590 ha        1 A84      0.178000
     45 H25         5.9200   -4.6690    4.0910 ha        1 A84      0.159000
     46 H26         4.8310   -4.1990    6.1480 ha        1 A84      0.171000
     47 H271        6.8260   -3.2900    7.7830 hx        1 A84      0.103700
     48 H272        6.9450   -1.9540    6.5370 hx        1 A84      0.103700
     49 H291        4.3940   -3.7790    8.5810 hx        1 A84      0.091200
     50 H292        5.4500   -2.7080    9.6310 hx        1 A84      0.091200
     51 H293        3.7310   -2.2060    9.2410 hx        1 A84      0.091200
     52 H301        5.7770   -0.0940    6.9830 hx        1 A84      0.091200
     53 H302        6.2510   -0.5580    8.7070 hx        1 A84      0.091200
     54 H303        4.5110   -0.0880    8.2930 hx        1 A84      0.091200
     55 H281        4.2860   -2.0010    6.9460 hn        1 A84      0.540800
@<TRIPOS>BOND
     1    1    2 1   
     2    1    6 1   
     3    1   31 1   
     4    1   32 1   
     5    2    3 1   
     6    2   33 1   
     7    2   34 1   
     8    3    4 ar  
     9    3    7 ar  
    10    4    5 1   
    11    4   10 ar  
    12    5    6 1   
    13    5   35 1   
    14    5   36 1   
    15    6   37 1   
    16    6   38 1   
    17    7    8 ar  
    18    7   39 1   
    19    8    9 ar  
    20    8   40 1   
    21    9   10 ar  
    22    9   14 1   
    23   10   11 1   
    24   11   12 1   
    25   11   13 1   
    26   14   15 1   
    27   14   41 1   
    28   15   16 2   
    29   15   17 2   
    30   15   18 1   
    31   18   19 ar  
    32   18   23 ar  
    33   19   20 ar  
    34   19   25 1   
    35   20   21 ar  
    36   20   42 1   
    37   21   22 ar  
    38   21   24 1   
    39   22   23 ar  
    40   22   43 1   
    41   23   44 1   
    42   25   26 2   
    43   25   45 1   
    44   26   27 1   
    45   26   46 1   
    46   27   28 1   
    47   27   47 1   
    48   27   48 1   
    49   28   29 1   
    50   28   30 1   
    51   28   55 1   
    52   29   49 1   
    53   29   50 1   
    54   29   51 1   
    55   30   52 1   
    56   30   53 1   
    57   30   54 1   
@<TRIPOS>SUBSTRUCTURE
     1 A84         1 TEMP              0 ****  ****    0 ROOT
