@<TRIPOS>MOLECULE
A84
   55    57     1     0     0
SMALL
bcc


@<TRIPOS>ATOM
      1 C1         -0.6630    1.0840    2.5370 c3        1 A84     -0.076400
      2 C2          0.5590    1.3270    1.6780 c3        1 A84     -0.032100
      3 C3          1.7580    0.5710    2.1360 ca        1 A84     -0.075300
      4 C4          1.8400    0.0220    3.4260 ca        1 A84     -0.026300
      5 C5          0.7070    0.1270    4.3880 c3        1 A84     -0.050100
      6 C6         -0.3100    1.1810    4.0050 c3        1 A84     -0.074400
      7 C7          2.8390    0.4420    1.2580 ca        1 A84     -0.127000
      8 C8          3.9910   -0.2410    1.6280 ca        1 A84     -0.128000
      9 C9          4.0800   -0.8080    2.9130 ca        1 A84      0.123600
     10 C10         3.0010   -0.6570    3.8190 ca        1 A84     -0.111600
     11 C11         3.1660   -1.2120    5.2000 c         1 A84      0.908200
     12 O12         3.1480   -0.4630    6.2250 o         1 A84     -0.858300
     13 O13         3.4580   -2.4480    5.3640 o         1 A84     -0.858300
     14 N14         5.2190   -1.5600    3.2970 nu        1 A84     -0.793500
     15 S15         6.6430   -0.9030    3.6240 sy        1 A84      1.518200
     16 O16         7.0410    0.0390    2.6550 o         1 A84     -0.674800
     17 O17         6.7230   -0.4450    4.9630 o         1 A84     -0.674800
     18 C18         7.7330   -2.2330    3.5520 ca        1 A84     -0.343500
     19 C19         7.5970   -3.4760    4.1900 ca        1 A84      0.072200
     20 C20         8.6530   -4.3990    4.1800 ca        1 A84     -0.196000
     21 C21         9.8480   -4.0970    3.5100 ca        1 A84      0.183900
     22 C22         9.9810   -2.8720    2.8280 ca        1 A84     -0.186000
     23 C23         8.9280   -1.9710    2.8600 ca        1 A84     -0.015000
     24 F24        10.8660   -4.9860    3.5110 f         1 A84     -0.129900
     25 C25         6.3510   -3.9540    4.7900 ce        1 A84     -0.145200
     26 C26         5.7920   -3.6720    5.9680 c2        1 A84     -0.135200
     27 C27         6.3000   -2.6960    6.9760 c3        1 A84      0.138000
     28 N28         5.1820   -1.9410    7.6340 nx        1 A84     -0.694400
     29 C29         4.7480   -2.6070    8.8800 c3        1 A84      0.093600
     30 C30         5.5530   -0.5280    7.8880 c3        1 A84      0.093600
     31 H11        -1.0830    0.0680    2.3190 hc        1 A84      0.039700
     32 H12        -1.4530    1.8370    2.2820 hc        1 A84      0.039700
     33 H21         0.8110    2.4240    1.6900 hc        1 A84      0.047200
     34 H22A        0.3270    1.0540    0.6130 hc        1 A84      0.047200
     35 H51         1.1130    0.3510    5.4140 hc        1 A84      0.072200
     36 H52         0.2030   -0.8770    4.4430 hc        1 A84      0.072200
     37 H61         0.1010    2.2010    4.2240 hc        1 A84      0.040700
     38 H62        -1.2320    1.0490    4.6280 hc        1 A84      0.040700
     39 H7          2.7760    0.8860    0.2530 ha        1 A84      0.130000
     40 H8          4.8330   -0.3210    0.9240 ha        1 A84      0.144000
     41 H14         4.9380   -2.4560    3.6500 hn        1 A84      0.485800
     42 H20         8.5450   -5.3700    4.6860 ha        1 A84      0.155000
     43 H22        10.9080   -2.6440    2.2820 ha        1 A84      0.160000
     44 H23         9.0360   -1.0080    2.3210 ha        1 A84      0.178000
     45 H25         5.8470   -4.7040    4.1430 ha        1 A84      0.159000
     46 H26         4.8270   -4.1600    6.2170 ha        1 A84      0.171000
     47 H271        6.9900   -1.9440    6.4850 hx        1 A84      0.104200
     48 H272        6.8840   -3.2440    7.7700 hx        1 A84      0.104200
     49 H291        3.8510   -2.0660    9.2850 hx        1 A84      0.091200
     50 H292        5.5720   -2.5900    9.6390 hx        1 A84      0.091200
     51 H293        4.4660   -3.6680    8.6490 hx        1 A84      0.091200
     52 H301        5.8680   -0.0520    6.9150 hx        1 A84      0.091200
     53 H302        4.6400    0.0110    8.2590 hx        1 A84      0.091200
     54 H303        6.3830   -0.4790    8.6370 hx        1 A84      0.091200
     55 H281        4.3430   -1.9320    6.9710 hn        1 A84      0.540800
@<TRIPOS>BOND
     1    1    2 1   
     2    1    6 1   
     3    1   31 1   
     4    1   32 1   
     5    2    3 1   
     6    2   33 1   
     7    2   34 1   
     8    3    4 ar  
     9    3    7 ar  
    10    4    5 1   
    11    4   10 ar  
    12    5    6 1   
    13    5   35 1   
    14    5   36 1   
    15    6   37 1   
    16    6   38 1   
    17    7    8 ar  
    18    7   39 1   
    19    8    9 ar  
    20    8   40 1   
    21    9   10 ar  
    22    9   14 1   
    23   10   11 1   
    24   11   12 1   
    25   11   13 1   
    26   14   15 1   
    27   14   41 1   
    28   15   16 2   
    29   15   17 2   
    30   15   18 1   
    31   18   19 ar  
    32   18   23 ar  
    33   19   20 ar  
    34   19   25 1   
    35   20   21 ar  
    36   20   42 1   
    37   21   22 ar  
    38   21   24 1   
    39   22   23 ar  
    40   22   43 1   
    41   23   44 1   
    42   25   26 2   
    43   25   45 1   
    44   26   27 1   
    45   26   46 1   
    46   27   28 1   
    47   27   47 1   
    48   27   48 1   
    49   28   29 1   
    50   28   30 1   
    51   28   55 1   
    52   29   49 1   
    53   29   50 1   
    54   29   51 1   
    55   30   52 1   
    56   30   53 1   
    57   30   54 1   
@<TRIPOS>SUBSTRUCTURE
     1 A84         1 TEMP              0 ****  ****    0 ROOT
