@<TRIPOS>MOLECULE
A84
   56    58     1     0     0
SMALL
bcc


@<TRIPOS>ATOM
      1 C1          0.2310    0.4990    0.3360 c3        1 A84     -0.080400
      2 C2          1.5460    1.2420    0.4380 c3        1 A84     -0.039100
      3 C3          2.3510    0.8630    1.6330 ca        1 A84     -0.082300
      4 C4          1.7900    0.2060    2.7390 ca        1 A84     -0.005300
      5 C5          0.3750   -0.2640    2.7010 c3        1 A84     -0.056100
      6 C6         -0.4690    0.4640    1.6760 c3        1 A84     -0.077400
      7 C7          3.7080    1.2080    1.6560 ca        1 A84     -0.068000
      8 C8          4.5210    0.8910    2.7350 ca        1 A84     -0.187000
      9 C9          3.9810    0.2140    3.8490 ca        1 A84      0.202600
     10 C10         2.5920   -0.0760    3.8570 ca        1 A84     -0.223600
     11 C11         2.0100   -0.6820    5.0720 c         1 A84      0.659700
     12 O12         2.3580   -1.7350    5.6180 o         1 A84     -0.540000
     13 O13         1.0400   -0.0200    5.7640 oh        1 A84     -0.567100
     14 N14         4.7930   -0.1590    4.9340 nh        1 A84     -0.771500
     15 S15         6.3930   -0.4310    4.9520 sy        1 A84      1.531200
     16 O16         7.1190    0.5520    4.2620 o         1 A84     -0.669800
     17 O17         6.7620   -0.6230    6.3160 o         1 A84     -0.669800
     18 C18         6.5850   -1.9110    4.1670 ca        1 A84     -0.410500
     19 C19         6.0230   -3.1230    4.6100 ca        1 A84      0.062200
     20 C20         6.2560   -4.3130    3.9190 ca        1 A84     -0.194000
     21 C21         7.0620   -4.3070    2.7640 ca        1 A84      0.213900
     22 C22         7.6280   -3.1020    2.3050 ca        1 A84     -0.183000
     23 C23         7.3770   -1.9320    3.0070 ca        1 A84      0.005000
     24 F24         7.2880   -5.4580    2.1000 f         1 A84     -0.107900
     25 C25         5.1190   -3.1920    5.7620 ce        1 A84     -0.089200
     26 C26         5.4650   -3.3090    7.0480 c2        1 A84     -0.204200
     27 C27         6.8780   -3.3490    7.5210 c3        1 A84      0.151000
     28 N28         7.0520   -2.8040    8.9120 n4        1 A84     -0.671400
     29 C29         8.3980   -3.1500    9.4360 c3        1 A84      0.088100
     30 C30         6.8340   -1.3330    8.9550 c3        1 A84      0.088100
     31 H11        -0.4220    1.0040   -0.4220 hc        1 A84      0.055200
     32 H12         0.4120   -0.5490   -0.0210 hc        1 A84      0.055200
     33 H21         2.1480    1.0600   -0.4930 hc        1 A84      0.062200
     34 H22A        1.3460    2.3480    0.4920 hc        1 A84      0.062200
     35 H51        -0.1110   -0.1670    3.7080 hc        1 A84      0.063700
     36 H52         0.3920   -1.3630    2.4520 hc        1 A84      0.063700
     37 H61        -0.6730    1.5110    2.0230 hc        1 A84      0.054700
     38 H62        -1.4570   -0.0570    1.5770 hc        1 A84      0.054700
     39 H7          4.1430    1.7430    0.7950 ha        1 A84      0.154000
     40 H8          5.5850    1.1880    2.7100 ha        1 A84      0.173000
     41 H14         4.2690   -0.3880    5.7560 hn        1 A84      0.462800
     42 H20         5.8010   -5.2580    4.2560 ha        1 A84      0.168000
     43 H22         8.2530   -3.0980    1.3990 ha        1 A84      0.176000
     44 H23         7.8210   -0.9840    2.6410 ha        1 A84      0.179000
     45 H25         4.0400   -3.1840    5.4830 ha        1 A84      0.205000
     46 H26         4.6740   -3.4050    7.8130 ha        1 A84      0.152000
     47 H271        7.5380   -2.7340    6.8370 hx        1 A84      0.113700
     48 H272        7.2420   -4.4180    7.5310 hx        1 A84      0.113700
     49 H291        9.1830   -2.7140    8.7620 hx        1 A84      0.106700
     50 H292        8.5120   -4.2660    9.4750 hx        1 A84      0.106700
     51 H293        8.5130   -2.7220   10.4670 hx        1 A84      0.106700
     52 H301        5.8450   -1.0970    8.4760 hx        1 A84      0.106700
     53 H302        6.8510   -0.9920   10.0230 hx        1 A84      0.106700
     54 H303        7.6370   -0.8130    8.3620 hx        1 A84      0.106700
     55 H142        0.8230    0.8150    5.3220 ho        1 A84      0.445000
     56 H281        6.3450   -3.2480    9.5140 hn        1 A84      0.439800
@<TRIPOS>BOND
     1    1    2 1   
     2    1    6 1   
     3    1   31 1   
     4    1   32 1   
     5    2    3 1   
     6    2   33 1   
     7    2   34 1   
     8    3    4 ar  
     9    3    7 ar  
    10    4    5 1   
    11    4   10 ar  
    12    5    6 1   
    13    5   35 1   
    14    5   36 1   
    15    6   37 1   
    16    6   38 1   
    17    7    8 ar  
    18    7   39 1   
    19    8    9 ar  
    20    8   40 1   
    21    9   10 ar  
    22    9   14 1   
    23   10   11 1   
    24   11   12 2   
    25   11   13 1   
    26   13   55 1   
    27   14   15 1   
    28   14   41 1   
    29   15   16 2   
    30   15   17 2   
    31   15   18 1   
    32   18   19 ar  
    33   18   23 ar  
    34   19   20 ar  
    35   19   25 1   
    36   20   21 ar  
    37   20   42 1   
    38   21   22 ar  
    39   21   24 1   
    40   22   23 ar  
    41   22   43 1   
    42   23   44 1   
    43   25   26 2   
    44   25   45 1   
    45   26   27 1   
    46   26   46 1   
    47   27   28 1   
    48   27   47 1   
    49   27   48 1   
    50   28   29 1   
    51   28   30 1   
    52   28   56 1   
    53   29   49 1   
    54   29   50 1   
    55   29   51 1   
    56   30   52 1   
    57   30   53 1   
    58   30   54 1   
@<TRIPOS>SUBSTRUCTURE
     1 A84         1 TEMP              0 ****  ****    0 ROOT
