@<TRIPOS>MOLECULE
A84
   54    50     1     0     0
SMALL
bcc


@<TRIPOS>ATOM
      1 C1         -6.8640    2.4730   -1.0780 c3        1 A84     -0.153000
      2 C2         -5.9480    2.3480   -2.1850 c3        1 A84     -0.104000
      3 C3         -4.4940    1.8020   -1.8500 c2        1 A84     -0.115000
      4 C4         -4.1360    1.6170   -0.4200 c1        1 A84     -0.008000
      5 C5         -5.1780    2.1720    0.6830 c2        1 A84     -0.142000
      6 C6         -6.3150    2.9080    0.1850 c3        1 A84     -0.150000
      7 C7         -3.6380    1.3120   -2.8640 c2        1 A84     -0.121000
      8 C8         -2.4360    0.6430   -2.5210 c1        1 A84     -0.208000
      9 C9         -2.0800    0.4590   -1.1390 c1        1 A84      0.099000
     10 C10        -2.9610    0.9630   -0.0850 c2        1 A84     -0.125000
     11 C11        -2.6180    0.7080    1.3860 c2        1 A84      0.361000
     12 O12        -2.8560   -0.4420    1.9090 o         1 A84     -0.563500
     13 O13        -2.0130    1.5510    2.0230 o         1 A84     -0.563500
     14 N14        -0.8960   -0.2810   -0.7950 n3        1 A84     -0.820000
     15 S15         0.4030    0.5000   -0.2420 s4        1 A84      2.057800
     16 O16         0.2890    1.8710   -0.4570 o         1 A84     -0.557900
     17 O17         0.4700    0.4460    1.1340 o         1 A84     -0.557900
     18 C18         1.8860   -0.1490   -0.9800 c1        1 A84     -0.812000
     19 C19         2.5290   -1.2710   -0.4010 c2        1 A84      0.131000
     20 C20         3.6060   -1.8530   -1.0290 c1        1 A84     -0.197000
     21 C21         4.0710   -1.3380   -2.2440 c1        1 A84      0.134000
     22 C22         3.4360   -0.2270   -2.8190 c1        1 A84     -0.211000
     23 C23         2.3420    0.3630   -2.1790 c1        1 A84     -0.004000
     24 F24         4.9820   -2.0340   -2.9600 f         1 A84     -0.115000
     25 C25         2.0510   -1.8170    0.9350 c2        1 A84     -0.226000
     26 C26         2.9660   -2.0130    1.9810 c1        1 A84     -0.104000
     27 C27         4.4250   -1.6790    1.7820 c2        1 A84     -0.066000
     28 N28         5.1360   -2.0150    2.9300 n3        1 A84     -0.258000
     29 C29         5.3690   -3.4270    2.9580 c3        1 A84     -0.116500
     30 C30         6.4030   -1.3030    2.9410 c3        1 A84     -0.116500
     31 H11        -7.2680    1.6090   -0.9360 hc        1 A84      0.068000
     32 H12        -7.5570    3.1480   -1.3450 hc        1 A84      0.068000
     33 H21        -6.3410    1.7460   -2.8110 hc        1 A84      0.071000
     34 H22A       -5.8480    3.1880   -2.5590 hc        1 A84      0.071000
     35 H51        -5.5190    1.4010    1.1970 ha        1 A84      0.120000
     36 H52        -4.6750    2.7700    1.3180 ha        1 A84      0.120000
     37 H61        -6.0290    3.8750    0.0730 hc        1 A84      0.070000
     38 H62        -7.0640    2.8260    0.8910 hc        1 A84      0.070000
     39 H7         -3.8700    1.4300   -3.7760 ha        1 A84      0.111000
     40 H8         -1.8160    0.2880   -3.2620 ha        1 A84      0.147000
     41 H14        -0.9030   -1.2250   -0.8310 hn        1 A84      0.299000
     42 H20         3.9890   -2.6870   -0.6690 ha        1 A84      0.152000
     43 H22         3.7500    0.1250   -3.6450 ha        1 A84      0.142000
     44 H23         1.9780    1.1590   -2.5150 ha        1 A84      0.163000
     45 H25         1.0480   -2.0450    1.0740 ha        1 A84      0.224000
     46 H26         2.6620   -2.3610    2.8330 ha        1 A84      0.152000
     47 H271        4.5240   -0.6820    1.6080 h4        1 A84      0.096500
     48 H272        4.7690   -2.1710    1.0340 h4        1 A84      0.096500
     49 H291        4.4810   -3.9150    3.0230 h1        1 A84      0.065333
     50 H292        5.8040   -3.6830    2.1830 h1        1 A84      0.065333
     51 H293        5.9010   -3.6410    3.7040 h1        1 A84      0.065333
     52 H301        6.8970   -1.5030    2.1210 h1        1 A84      0.065333
     53 H302        6.2340   -0.3620    2.9900 h1        1 A84      0.065333
     54 H303        6.9210   -1.5770    3.7010 h1        1 A84      0.065333
@<TRIPOS>BOND
     1    1    2 1   
     2    1    6 1   
     3    1   31 1   
     4    1   32 1   
     5    2    3 1   
     6    2   33 1   
     7    2   34 1   
     8    3    4 1   
     9    3    7 1   
    10    4   10 1   
    11    5    6 1   
    12    5   35 1   
    13    5   36 1   
    14    6   37 1   
    15    6   38 1   
    16    7    8 1   
    17    7   39 1   
    18    8   40 1   
    19    9   10 1   
    20    9   14 1   
    21   10   11 1   
    22   11   12 1   
    23   11   13 1   
    24   14   15 1   
    25   14   41 1   
    26   15   16 1   
    27   15   17 1   
    28   18   19 1   
    29   18   23 1   
    30   19   20 1   
    31   19   25 1   
    32   20   42 1   
    33   21   22 1   
    34   21   24 1   
    35   22   43 1   
    36   23   44 1   
    37   25   26 1   
    38   25   45 1   
    39   26   46 1   
    40   27   28 1   
    41   27   47 1   
    42   27   48 1   
    43   28   29 1   
    44   28   30 1   
    45   29   49 1   
    46   29   50 1   
    47   29   51 1   
    48   30   52 1   
    49   30   53 1   
    50   30   54 1   
@<TRIPOS>SUBSTRUCTURE
     1 A84         1 TEMP              0 ****  ****    0 ROOT
