@<TRIPOS>MOLECULE
A88
   80    84     1     0     0
SMALL
bcc


@<TRIPOS>ATOM
      1 N1         -0.1190    1.0810    0.8230 n3        1 A88     -0.482600
      2 N2          1.2500    0.9610    0.6960 n         1 A88     -0.293200
      3 C3          1.7600   -0.0360   -0.2200 c         1 A88      0.815500
      4 O3          2.9820    0.0520   -0.5000 o         1 A88     -0.679500
      5 N4          0.9960   -1.0420   -0.8190 n         1 A88     -0.465800
      6 C5         -0.3030   -1.5160   -0.3680 c3        1 A88      0.138700
      7 C6         -0.4680   -1.3670    1.1670 c3        1 A88      0.131100
      8 O6         -1.5160   -2.2490    1.5380 oh        1 A88     -0.580800
      9 C7         -0.8010    0.0570    1.6330 c3        1 A88      0.083800
     10 C8         -0.5430    2.4360    1.2520 c3        1 A88      0.212100
     11 C9         -1.9710    2.7190    0.8920 ca        1 A88     -0.094300
     12 C10        -2.8610    3.1590    1.8770 ca        1 A88     -0.117000
     13 C11        -4.1740    3.4850    1.5380 ca        1 A88     -0.132000
     14 C12        -4.6060    3.3680    0.2170 ca        1 A88     -0.125000
     15 C13        -3.7210    2.9250   -0.7660 ca        1 A88     -0.132000
     16 C14        -2.4060    2.6020   -0.4330 ca        1 A88     -0.117000
     17 C15        -1.5000   -0.9570   -1.1650 c3        1 A88     -0.058100
     18 C16        -2.5460   -1.9880   -1.4120 ca        1 A88     -0.064300
     19 C17        -3.8410   -1.8140   -0.9100 ca        1 A88     -0.126000
     20 C18        -4.8340   -2.7570   -1.1740 ca        1 A88     -0.127500
     21 C19        -4.5430   -3.8840   -1.9420 ca        1 A88     -0.133000
     22 C20        -3.2550   -4.0650   -2.4450 ca        1 A88     -0.127500
     23 C21        -2.2630   -3.1230   -2.1830 ca        1 A88     -0.126000
     24 C22         1.4800   -1.5710   -2.0830 c3        1 A88      0.150300
     25 C23         1.2620   -0.7010   -3.2900 ca        1 A88     -0.124300
     26 C24         2.0790    0.4190   -3.4830 ca        1 A88     -0.142000
     27 C25         1.9160    1.2030   -4.6240 ca        1 A88      0.039100
     28 C26         0.9330    0.8670   -5.5850 ca        1 A88      0.115100
     29 C27         0.1230   -0.2560   -5.3850 ca        1 A88     -0.144000
     30 C28         0.2920   -1.0300   -4.2390 ca        1 A88     -0.118000
     31 O29         0.7270    1.5980   -6.7300 oh        1 A88     -0.497100
     32 O30         2.6630    2.3310   -4.9270 os        1 A88     -0.351900
     33 C31         3.6290    2.7140   -3.9540 c3        1 A88      0.120700
     34 C32         2.1400    1.2220    1.8380 c3        1 A88      0.088300
     35 C33         2.1400    0.2240    2.9560 ca        1 A88     -0.136300
     36 C34         2.7330   -1.0290    2.7690 ca        1 A88     -0.111000
     37 C35         2.7890   -1.9550    3.8080 ca        1 A88     -0.140000
     38 C36         2.2510   -1.6230    5.0580 ca        1 A88      0.119100
     39 C37         1.6510   -0.3570    5.2480 ca        1 A88      0.030100
     40 C38         1.5950    0.5610    4.1990 ca        1 A88     -0.148000
     41 O39         2.3200   -2.5700    6.0480 oh        1 A88     -0.491100
     42 O40         1.1090   -0.1450    6.5070 os        1 A88     -0.347900
     43 C41         0.9640    1.2190    6.8890 c3        1 A88      0.119700
     44 H5         -0.2890   -2.6420   -0.5440 h1        1 A88      0.071700
     45 H6          0.4870   -1.7020    1.6730 h1        1 A88      0.047700
     46 HO6        -1.5730   -2.2140    2.5010 ho        1 A88      0.405000
     47 H71        -1.9070    0.2400    1.5120 h1        1 A88      0.058700
     48 H72        -0.5550    0.1380    2.7320 h1        1 A88      0.058700
     49 H81        -0.4020    2.5750    2.3650 h1        1 A88      0.051700
     50 H82         0.1000    3.2000    0.7250 h1        1 A88      0.051700
     51 H10        -2.5280    3.2540    2.9210 ha        1 A88      0.139500
     52 H11        -4.8700    3.8340    2.3160 ha        1 A88      0.134500
     53 H12        -5.6420    3.6240   -0.0480 ha        1 A88      0.133000
     54 H13        -4.0590    2.8310   -1.8090 ha        1 A88      0.134500
     55 H14        -1.7080    2.2530   -1.2100 ha        1 A88      0.139500
     56 H151       -1.9510   -0.0790   -0.6340 hc        1 A88      0.070200
     57 H152       -1.1410   -0.5820   -2.1650 hc        1 A88      0.070200
     58 H17        -4.0740   -0.9310   -0.2960 ha        1 A88      0.127500
     59 H18        -5.8470   -2.6110   -0.7740 ha        1 A88      0.128000
     60 H19        -5.3260   -4.6270   -2.1500 ha        1 A88      0.129000
     61 H20        -3.0220   -4.9540   -3.0500 ha        1 A88      0.128000
     62 H21        -1.2490   -3.2710   -2.5840 ha        1 A88      0.127500
     63 H221        0.9810   -2.5690   -2.2560 h1        1 A88      0.067700
     64 H222        2.5920   -1.7480   -1.9750 h1        1 A88      0.067700
     65 H24         2.8410    0.6660   -2.7250 ha        1 A88      0.169000
     66 H27        -0.6370   -0.5110   -6.1360 ha        1 A88      0.152000
     67 H28        -0.3530   -1.9110   -4.0870 ha        1 A88      0.135000
     68 HO9         1.3550    2.3380   -6.7320 ho        1 A88      0.436000
     69 H311        4.0810    3.6410   -4.3900 h1        1 A88      0.048033
     70 H312        3.1370    2.9340   -2.9760 h1        1 A88      0.048033
     71 H313        4.4010    1.9160   -3.8340 h1        1 A88      0.048033
     72 H321        3.1860    1.2880    1.4130 h1        1 A88      0.080700
     73 H322        1.8690    2.2400    2.2420 h1        1 A88      0.080700
     74 H34         3.1680   -1.2780    1.7860 ha        1 A88      0.158000
     75 H35         3.2570   -2.9400    3.6680 ha        1 A88      0.158000
     76 H38         1.1310    1.5470    4.3490 ha        1 A88      0.137000
     77 HO3         1.9720   -2.1780    6.8650 ho        1 A88      0.438000
     78 H411        0.7320    1.1630    7.9830 h1        1 A88      0.045700
     79 H412        1.9060    1.7900    6.7100 h1        1 A88      0.045700
     80 H413        0.1130    1.6830    6.3320 h1        1 A88      0.045700
@<TRIPOS>BOND
     1    1    2 1   
     2    1    9 1   
     3    1   10 1   
     4    2    3 1   
     5    2   34 1   
     6    3    4 2   
     7    3    5 1   
     8    5    6 1   
     9    5   24 1   
    10    6    7 1   
    11    6   17 1   
    12    6   44 1   
    13    7    8 1   
    14    7    9 1   
    15    7   45 1   
    16    8   46 1   
    17    9   47 1   
    18    9   48 1   
    19   10   11 1   
    20   10   49 1   
    21   10   50 1   
    22   11   12 ar  
    23   11   16 ar  
    24   12   13 ar  
    25   12   51 1   
    26   13   14 ar  
    27   13   52 1   
    28   14   15 ar  
    29   14   53 1   
    30   15   16 ar  
    31   15   54 1   
    32   16   55 1   
    33   17   18 1   
    34   17   56 1   
    35   17   57 1   
    36   18   19 ar  
    37   18   23 ar  
    38   19   20 ar  
    39   19   58 1   
    40   20   21 ar  
    41   20   59 1   
    42   21   22 ar  
    43   21   60 1   
    44   22   23 ar  
    45   22   61 1   
    46   23   62 1   
    47   24   25 1   
    48   24   63 1   
    49   24   64 1   
    50   25   26 ar  
    51   25   30 ar  
    52   26   27 ar  
    53   26   65 1   
    54   27   28 ar  
    55   27   32 1   
    56   28   29 ar  
    57   28   31 1   
    58   29   30 ar  
    59   29   66 1   
    60   30   67 1   
    61   31   68 1   
    62   32   33 1   
    63   33   69 1   
    64   33   70 1   
    65   33   71 1   
    66   34   35 1   
    67   34   72 1   
    68   34   73 1   
    69   35   36 ar  
    70   35   40 ar  
    71   36   37 ar  
    72   36   74 1   
    73   37   38 ar  
    74   37   75 1   
    75   38   39 ar  
    76   38   41 1   
    77   39   40 ar  
    78   39   42 1   
    79   40   76 1   
    80   41   77 1   
    81   42   43 1   
    82   43   78 1   
    83   43   79 1   
    84   43   80 1   
@<TRIPOS>SUBSTRUCTURE
     1 A88         1 TEMP              0 ****  ****    0 ROOT
