@<TRIPOS>MOLECULE
A88
   80    84     1     0     0
SMALL
bcc


@<TRIPOS>ATOM
      1 N1          0.2660   -0.1190   -0.3790 n3        1 A88     -0.490600
      2 N2          1.6390   -0.1980   -0.2680 n         1 A88     -0.291200
      3 C3          2.2160   -0.0860    1.0530 c         1 A88      0.815500
      4 O3          3.4110   -0.4590    1.1620 o         1 A88     -0.676500
      5 N4          1.5430    0.3740    2.1890 n         1 A88     -0.460800
      6 C5          0.2880    1.1020    2.2040 c3        1 A88      0.102700
      7 C6          0.1010    1.9930    0.9480 c3        1 A88      0.132100
      8 O6         -0.8170    3.0340    1.2100 oh        1 A88     -0.584800
      9 C7         -0.3340    1.2240   -0.3070 c3        1 A88      0.091800
     10 C8         -0.2590   -0.8460   -1.5620 c3        1 A88      0.212100
     11 C9         -1.6960   -1.2380   -1.3830 ca        1 A88     -0.094300
     12 C10        -2.6460   -0.8570   -2.3370 ca        1 A88     -0.118500
     13 C11        -3.9710   -1.2700   -2.2070 ca        1 A88     -0.133000
     14 C12        -4.3560   -2.0590   -1.1230 ca        1 A88     -0.126000
     15 C13        -3.4110   -2.4360   -0.1680 ca        1 A88     -0.133000
     16 C14        -2.0840   -2.0290   -0.2960 ca        1 A88     -0.118500
     17 C15        -0.9480    0.2300    2.5140 c3        1 A88     -0.078100
     18 C16        -1.9860    0.9690    3.2850 ca        1 A88     -0.085300
     19 C17        -3.2560    1.1850    2.7360 ca        1 A88     -0.135000
     20 C18        -4.2410    1.8400    3.4730 ca        1 A88     -0.123000
     21 C19        -3.9680    2.2880    4.7650 ca        1 A88     -0.130000
     22 C20        -2.7060    2.0750    5.3200 ca        1 A88     -0.123000
     23 C21        -1.7210    1.4170    4.5860 ca        1 A88     -0.135000
     24 C22         2.0760   -0.0270    3.4810 c3        1 A88      0.148300
     25 C23         1.7340   -1.4200    3.9320 ca        1 A88     -0.123300
     26 C24         2.3640   -2.5130    3.3240 ca        1 A88     -0.142000
     27 C25         2.0870   -3.8040    3.7710 ca        1 A88      0.041100
     28 C26         1.1780   -4.0100    4.8360 ca        1 A88      0.115100
     29 C27         0.5560   -2.9110    5.4400 ca        1 A88     -0.143000
     30 C28         0.8360   -1.6250    4.9820 ca        1 A88     -0.121000
     31 O29         0.8650   -5.2570    5.3210 oh        1 A88     -0.496100
     32 O30         2.6420   -4.9610    3.2490 os        1 A88     -0.351900
     33 C31         3.5780   -4.7780    2.1920 c3        1 A88      0.120700
     34 C32         2.5170    0.3070   -1.3350 c3        1 A88      0.089300
     35 C33         2.6450    1.7940   -1.4820 ca        1 A88     -0.136300
     36 C34         3.3840    2.5220   -0.5450 ca        1 A88     -0.114000
     37 C35         3.5670    3.8940   -0.6910 ca        1 A88     -0.137000
     38 C36         3.0050    4.5520   -1.7920 ca        1 A88      0.123100
     39 C37         2.2590    3.8160   -2.7430 ca        1 A88      0.038100
     40 C38         2.0780    2.4430   -2.5840 ca        1 A88     -0.151000
     41 O39         3.2240    5.9030   -1.9000 oh        1 A88     -0.491100
     42 O40         1.7740    4.5630   -3.8060 os        1 A88     -0.346900
     43 C41         0.7980    3.9230   -4.6190 c3        1 A88      0.121700
     44 H5          0.3810    1.8450    3.0640 h1        1 A88      0.065700
     45 H6          1.0680    2.5420    0.7330 h1        1 A88      0.091700
     46 HO6        -1.6490    2.6300    1.4970 ho        1 A88      0.410000
     47 H71        -0.0900    1.8600   -1.2070 h1        1 A88      0.057200
     48 H72        -1.4500    1.0710   -0.2880 h1        1 A88      0.057200
     49 H81        -0.1520   -0.2280   -2.5020 h1        1 A88      0.052200
     50 H82         0.3390   -1.7940   -1.7030 h1        1 A88      0.052200
     51 H10        -2.3490   -0.2350   -3.1940 ha        1 A88      0.139500
     52 H11        -4.7130   -0.9730   -2.9620 ha        1 A88      0.135000
     53 H12        -5.4010   -2.3850   -1.0230 ha        1 A88      0.133000
     54 H13        -3.7120   -3.0590    0.6870 ha        1 A88      0.135000
     55 H14        -1.3370   -2.3280    0.4560 ha        1 A88      0.139500
     56 H151       -0.6270   -0.6570    3.1320 hc        1 A88      0.076200
     57 H152       -1.3920   -0.1820    1.5700 hc        1 A88      0.076200
     58 H17        -3.4800    0.8270    1.7190 ha        1 A88      0.131500
     59 H18        -5.2360    2.0030    3.0330 ha        1 A88      0.133000
     60 H19        -4.7450    2.8060    5.3450 ha        1 A88      0.133000
     61 H20        -2.4870    2.4240    6.3400 ha        1 A88      0.133000
     62 H21        -0.7290    1.2430    5.0300 ha        1 A88      0.131500
     63 H221        3.2030    0.0560    3.4270 h1        1 A88      0.068700
     64 H222        1.7080    0.7090    4.2530 h1        1 A88      0.068700
     65 H24         3.0720   -2.3330    2.4980 ha        1 A88      0.169000
     66 H27        -0.1470   -3.0790    6.2670 ha        1 A88      0.152000
     67 H28         0.3410   -0.7650    5.4600 ha        1 A88      0.132000
     68 HO9         1.3780   -5.9110    4.8210 ho        1 A88      0.437000
     69 H311        4.4510   -4.1740    2.5400 h1        1 A88      0.048700
     70 H312        3.0890   -4.2900    1.3150 h1        1 A88      0.048700
     71 H313        3.8920   -5.8230    1.9410 h1        1 A88      0.048700
     72 H321        2.1500   -0.1360   -2.3050 h1        1 A88      0.079700
     73 H322        3.5410   -0.1230   -1.1240 h1        1 A88      0.079700
     74 H34         3.8320    1.9960    0.3160 ha        1 A88      0.155000
     75 H35         4.1470    4.4730    0.0420 ha        1 A88      0.157000
     76 H38         1.5000    1.8680   -3.3220 ha        1 A88      0.135000
     77 HO3         2.7400    6.2270   -2.6750 ho        1 A88      0.438000
     78 H411        1.2630    3.0850   -5.1940 h1        1 A88      0.045033
     79 H412        0.4610    4.7360   -5.3110 h1        1 A88      0.045033
     80 H413       -0.0530    3.5490   -4.0010 h1        1 A88      0.045033
@<TRIPOS>BOND
     1    1    2 1   
     2    1    9 1   
     3    1   10 1   
     4    2    3 1   
     5    2   34 1   
     6    3    4 2   
     7    3    5 1   
     8    5    6 1   
     9    5   24 1   
    10    6    7 1   
    11    6   17 1   
    12    6   44 1   
    13    7    8 1   
    14    7    9 1   
    15    7   45 1   
    16    8   46 1   
    17    9   47 1   
    18    9   48 1   
    19   10   11 1   
    20   10   49 1   
    21   10   50 1   
    22   11   12 ar  
    23   11   16 ar  
    24   12   13 ar  
    25   12   51 1   
    26   13   14 ar  
    27   13   52 1   
    28   14   15 ar  
    29   14   53 1   
    30   15   16 ar  
    31   15   54 1   
    32   16   55 1   
    33   17   18 1   
    34   17   56 1   
    35   17   57 1   
    36   18   19 ar  
    37   18   23 ar  
    38   19   20 ar  
    39   19   58 1   
    40   20   21 ar  
    41   20   59 1   
    42   21   22 ar  
    43   21   60 1   
    44   22   23 ar  
    45   22   61 1   
    46   23   62 1   
    47   24   25 1   
    48   24   63 1   
    49   24   64 1   
    50   25   26 ar  
    51   25   30 ar  
    52   26   27 ar  
    53   26   65 1   
    54   27   28 ar  
    55   27   32 1   
    56   28   29 ar  
    57   28   31 1   
    58   29   30 ar  
    59   29   66 1   
    60   30   67 1   
    61   31   68 1   
    62   32   33 1   
    63   33   69 1   
    64   33   70 1   
    65   33   71 1   
    66   34   35 1   
    67   34   72 1   
    68   34   73 1   
    69   35   36 ar  
    70   35   40 ar  
    71   36   37 ar  
    72   36   74 1   
    73   37   38 ar  
    74   37   75 1   
    75   38   39 ar  
    76   38   41 1   
    77   39   40 ar  
    78   39   42 1   
    79   40   76 1   
    80   41   77 1   
    81   42   43 1   
    82   43   78 1   
    83   43   79 1   
    84   43   80 1   
@<TRIPOS>SUBSTRUCTURE
     1 A88         1 TEMP              0 ****  ****    0 ROOT
