@<TRIPOS>MOLECULE
A88
   80    84     1     0     0
SMALL
bcc


@<TRIPOS>ATOM
      1 N1          0.2670   -0.1220   -0.3790 n3        1 A88     -0.490600
      2 N2          1.6390   -0.2010   -0.2660 n         1 A88     -0.291200
      3 C3          2.2160   -0.0860    1.0550 c         1 A88      0.815500
      4 O3          3.4110   -0.4590    1.1650 o         1 A88     -0.676500
      5 N4          1.5420    0.3760    2.1900 n         1 A88     -0.460800
      6 C5          0.2870    1.1040    2.2030 c3        1 A88      0.102700
      7 C6          0.1020    1.9930    0.9450 c3        1 A88      0.132100
      8 O6         -0.8160    3.0350    1.2040 oh        1 A88     -0.584800
      9 C7         -0.3330    1.2220   -0.3090 c3        1 A88      0.091800
     10 C8         -0.2580   -0.8500   -1.5600 c3        1 A88      0.212100
     11 C9         -1.6950   -1.2410   -1.3810 ca        1 A88     -0.094300
     12 C10        -2.6440   -0.8620   -2.3370 ca        1 A88     -0.118500
     13 C11        -3.9700   -1.2740   -2.2080 ca        1 A88     -0.133000
     14 C12        -4.3550   -2.0610   -1.1220 ca        1 A88     -0.126000
     15 C13        -3.4120   -2.4370   -0.1660 ca        1 A88     -0.133000
     16 C14        -2.0840   -2.0300   -0.2930 ca        1 A88     -0.118500
     17 C15        -0.9490    0.2330    2.5130 c3        1 A88     -0.078100
     18 C16        -1.9870    0.9740    3.2830 ca        1 A88     -0.085300
     19 C17        -3.2570    1.1900    2.7320 ca        1 A88     -0.135000
     20 C18        -4.2420    1.8470    3.4680 ca        1 A88     -0.123000
     21 C19        -3.9690    2.2960    4.7590 ca        1 A88     -0.130000
     22 C20        -2.7080    2.0830    5.3150 ca        1 A88     -0.123000
     23 C21        -1.7230    1.4240    4.5830 ca        1 A88     -0.135000
     24 C22         2.0740   -0.0230    3.4830 c3        1 A88      0.148300
     25 C23         1.7310   -1.4150    3.9360 ca        1 A88     -0.123300
     26 C24         2.3610   -2.5090    3.3310 ca        1 A88     -0.142000
     27 C25         2.0830   -3.7990    3.7790 ca        1 A88      0.041100
     28 C26         1.1740   -4.0030    4.8450 ca        1 A88      0.115100
     29 C27         0.5510   -2.9030    5.4460 ca        1 A88     -0.143000
     30 C28         0.8320   -1.6180    4.9860 ca        1 A88     -0.121000
     31 O29         0.8610   -5.2490    5.3310 oh        1 A88     -0.496100
     32 O30         2.6380   -4.9580    3.2600 os        1 A88     -0.351900
     33 C31         3.5750   -4.7770    2.2030 c3        1 A88      0.120700
     34 C32         2.5180    0.3020   -1.3340 c3        1 A88      0.089300
     35 C33         2.6470    1.7880   -1.4830 ca        1 A88     -0.136300
     36 C34         3.3850    2.5180   -0.5460 ca        1 A88     -0.114000
     37 C35         3.5690    3.8910   -0.6950 ca        1 A88     -0.137000
     38 C36         3.0080    4.5470   -1.7980 ca        1 A88      0.123100
     39 C37         2.2620    3.8090   -2.7480 ca        1 A88      0.038100
     40 C38         2.0810    2.4360   -2.5870 ca        1 A88     -0.151000
     41 O39         3.2270    5.8970   -1.9080 oh        1 A88     -0.491100
     42 O40         1.7790    4.5540   -3.8130 os        1 A88     -0.346900
     43 C41         0.8050    3.9120   -4.6270 c3        1 A88      0.121700
     44 H5          0.3800    1.8490    3.0610 h1        1 A88      0.065700
     45 H6          1.0690    2.5410    0.7290 h1        1 A88      0.091700
     46 HO6        -1.6480    2.6320    1.4910 ho        1 A88      0.410000
     47 H71        -1.4490    1.0690   -0.2910 h1        1 A88      0.057200
     48 H72        -0.0880    1.8570   -1.2100 h1        1 A88      0.057200
     49 H81         0.3400   -1.7980   -1.6990 h1        1 A88      0.052200
     50 H82        -0.1490   -0.2340   -2.5010 h1        1 A88      0.052200
     51 H10        -2.3460   -0.2420   -3.1950 ha        1 A88      0.139500
     52 H11        -4.7110   -0.9770   -2.9640 ha        1 A88      0.135000
     53 H12        -5.4010   -2.3860   -1.0220 ha        1 A88      0.133000
     54 H13        -3.7140   -3.0580    0.6910 ha        1 A88      0.135000
     55 H14        -1.3390   -2.3280    0.4600 ha        1 A88      0.139500
     56 H151       -0.6290   -0.6530    3.1330 hc        1 A88      0.076200
     57 H152       -1.3930   -0.1800    1.5700 hc        1 A88      0.076200
     58 H17        -3.4810    0.8310    1.7160 ha        1 A88      0.131500
     59 H18        -5.2370    2.0090    3.0270 ha        1 A88      0.133000
     60 H19        -4.7470    2.8160    5.3380 ha        1 A88      0.133000
     61 H20        -2.4900    2.4350    6.3350 ha        1 A88      0.133000
     62 H21        -0.7310    1.2500    5.0270 ha        1 A88      0.131500
     63 H221        1.7060    0.7150    4.2530 h1        1 A88      0.068700
     64 H222        3.2010    0.0590    3.4300 h1        1 A88      0.068700
     65 H24         3.0700   -2.3310    2.5050 ha        1 A88      0.169000
     66 H27        -0.1520   -3.0700    6.2730 ha        1 A88      0.152000
     67 H28         0.3370   -0.7570    5.4620 ha        1 A88      0.132000
     68 HO9         1.3730   -5.9040    4.8320 ho        1 A88      0.437000
     69 H311        4.4480   -4.1730    2.5510 h1        1 A88      0.048700
     70 H312        3.0870   -4.2900    1.3240 h1        1 A88      0.048700
     71 H313        3.8890   -5.8220    1.9540 h1        1 A88      0.048700
     72 H321        3.5420   -0.1280   -1.1210 h1        1 A88      0.079700
     73 H322        2.1520   -0.1430   -2.3030 h1        1 A88      0.079700
     74 H34         3.8320    1.9940    0.3160 ha        1 A88      0.155000
     75 H35         4.1490    4.4710    0.0370 ha        1 A88      0.157000
     76 H38         1.5030    1.8590   -3.3240 ha        1 A88      0.135000
     77 HO3         2.7430    6.2200   -2.6850 ho        1 A88      0.438000
     78 H411       -0.0480    3.5380   -4.0100 h1        1 A88      0.045033
     79 H412        1.2710    3.0730   -5.2000 h1        1 A88      0.045033
     80 H413        0.4680    4.7230   -5.3210 h1        1 A88      0.045033
@<TRIPOS>BOND
     1    1    2 1   
     2    1    9 1   
     3    1   10 1   
     4    2    3 1   
     5    2   34 1   
     6    3    4 2   
     7    3    5 1   
     8    5    6 1   
     9    5   24 1   
    10    6    7 1   
    11    6   17 1   
    12    6   44 1   
    13    7    8 1   
    14    7    9 1   
    15    7   45 1   
    16    8   46 1   
    17    9   47 1   
    18    9   48 1   
    19   10   11 1   
    20   10   49 1   
    21   10   50 1   
    22   11   12 ar  
    23   11   16 ar  
    24   12   13 ar  
    25   12   51 1   
    26   13   14 ar  
    27   13   52 1   
    28   14   15 ar  
    29   14   53 1   
    30   15   16 ar  
    31   15   54 1   
    32   16   55 1   
    33   17   18 1   
    34   17   56 1   
    35   17   57 1   
    36   18   19 ar  
    37   18   23 ar  
    38   19   20 ar  
    39   19   58 1   
    40   20   21 ar  
    41   20   59 1   
    42   21   22 ar  
    43   21   60 1   
    44   22   23 ar  
    45   22   61 1   
    46   23   62 1   
    47   24   25 1   
    48   24   63 1   
    49   24   64 1   
    50   25   26 ar  
    51   25   30 ar  
    52   26   27 ar  
    53   26   65 1   
    54   27   28 ar  
    55   27   32 1   
    56   28   29 ar  
    57   28   31 1   
    58   29   30 ar  
    59   29   66 1   
    60   30   67 1   
    61   31   68 1   
    62   32   33 1   
    63   33   69 1   
    64   33   70 1   
    65   33   71 1   
    66   34   35 1   
    67   34   72 1   
    68   34   73 1   
    69   35   36 ar  
    70   35   40 ar  
    71   36   37 ar  
    72   36   74 1   
    73   37   38 ar  
    74   37   75 1   
    75   38   39 ar  
    76   38   41 1   
    77   39   40 ar  
    78   39   42 1   
    79   40   76 1   
    80   41   77 1   
    81   42   43 1   
    82   43   78 1   
    83   43   79 1   
    84   43   80 1   
@<TRIPOS>SUBSTRUCTURE
     1 A88         1 TEMP              0 ****  ****    0 ROOT
