@<TRIPOS>MOLECULE
A88
   80    76     1     0     0
SMALL
bcc


@<TRIPOS>ATOM
      1 N1         -2.0710   -0.4330   -0.8540 n3        1 A88     -0.159000
      2 N2         -0.6210   -0.5670   -0.8390 n         1 A88     -0.186000
      3 C3         -0.2540   -0.5590    0.1890 c2        1 A88      0.386000
      4 O3         -0.6610   -1.3730    0.9850 o         1 A88     -0.330000
      5 N4         -0.0240    0.6240    0.5310 n         1 A88     -0.338000
      6 C5         -0.3020    0.7810    1.6730 c3        1 A88      0.023000
      7 C6         -1.7450    0.5190    1.8750 c3        1 A88      0.015000
      8 O6         -1.9060   -0.7220    2.3250 oh        1 A88     -0.318000
      9 C7         -2.6280    0.7100    0.3820 c3        1 A88     -0.147000
     10 C8         -2.5080    0.0180   -2.1710 c3        1 A88     -0.023000
     11 C9         -3.7340   -0.8430   -2.6400 c2        1 A88     -0.065000
     12 C10        -3.5390   -1.9030   -3.5290 c2        1 A88     -0.125000
     13 C11        -4.5960   -2.7420   -3.8520 c1        1 A88     -0.133000
     14 C12        -5.8580   -2.5260   -3.2880 c1        1 A88     -0.128000
     15 C13        -6.0540   -1.4720   -2.4040 c1        1 A88     -0.128000
     16 C14        -4.9950   -0.6300   -2.0780 c1        1 A88     -0.099000
     17 C15         0.5760   -0.2820    2.6020 c3        1 A88     -0.139000
     18 C16         0.5180    0.1640    4.1140 c2        1 A88     -0.075000
     19 C17         1.3540    1.1370    4.5660 c2        1 A88     -0.119000
     20 C18         1.3920    1.4470    5.9280 c1        1 A88     -0.128000
     21 C19         0.5800    0.7640    6.8170 c1        1 A88     -0.128000
     22 C20        -0.2650   -0.2210    6.3590 c1        1 A88     -0.128000
     23 C21        -0.3030   -0.5270    5.0150 c1        1 A88     -0.142000
     24 C22         0.7090    1.5640   -0.2620 c3        1 A88      0.026000
     25 C23         1.7830    2.2930    0.6370 c2        1 A88     -0.128000
     26 C24         1.8230    3.6920    0.6770 c2        1 A88     -0.096000
     27 C25         2.8080    4.3480    1.4290 c1        1 A88      0.027000
     28 C26         3.7510    3.6070    2.1390 c1        1 A88      0.053000
     29 C27         3.7130    2.1990    2.1010 c1        1 A88     -0.206000
     30 C28         2.7250    1.5470    1.3460 c1        1 A88     -0.085000
     31 O29         4.7440    4.2680    2.8860 oh        1 A88     -0.250000
     32 O30         2.9250    5.7540    1.3560 os        1 A88     -0.213000
     33 C31         2.5040    6.4180    2.5120 c3        1 A88     -0.079000
     34 C32         0.2440   -0.4470   -2.0430 c3        1 A88     -0.042000
     35 C33         0.6310   -1.8660   -2.5600 c2        1 A88     -0.087000
     36 C34        -0.2360   -2.9260   -2.3770 c2        1 A88     -0.078000
     37 C35         0.0270   -4.1640   -2.9930 c1        1 A88     -0.188000
     38 C36         1.1720   -4.3210   -3.7950 c1        1 A88      0.032000
     39 C37         2.0500   -3.2470   -3.9810 c1        1 A88      0.047000
     40 C38         1.7900   -2.0280   -3.3730 c1        1 A88     -0.114000
     41 O39         1.4790   -5.5540   -4.3130 oh        1 A88     -0.258000
     42 O40         3.2990   -3.4470   -4.6880 os        1 A88     -0.215000
     43 C41         3.1440   -3.6180   -6.0970 c3        1 A88     -0.067000
     44 H5         -0.0980    1.6820    1.9360 h1        1 A88      0.118000
     45 H6         -2.0960    1.1520    2.5390 h1        1 A88      0.125000
     46 HO6        -2.5920   -0.7460    2.9070 ho        1 A88      0.204000
     47 H71        -3.5730    0.5530    0.5530 h1        1 A88      0.090500
     48 H72        -2.5070    1.6360    0.0490 h1        1 A88      0.090500
     49 H81        -2.7680    0.9530   -2.1250 h1        1 A88      0.085000
     50 H82        -1.7840   -0.0840   -2.8030 h1        1 A88      0.085000
     51 H10        -2.6190   -2.0610   -3.9410 ha        1 A88      0.129000
     52 H11        -4.4540   -3.5080   -4.4950 ha        1 A88      0.130000
     53 H12        -6.5990   -3.1150   -3.5150 ha        1 A88      0.131750
     54 H13        -6.9670   -1.3180   -1.9970 ha        1 A88      0.131750
     55 H14        -5.1360    0.1220   -1.4470 ha        1 A88      0.138000
     56 H151        0.1960   -1.1860    2.5140 hc        1 A88      0.102500
     57 H152        1.5330   -0.2890    2.2900 hc        1 A88      0.102500
     58 H17         1.9230    1.6160    3.9420 ha        1 A88      0.135000
     59 H18         1.9810    2.1330    6.2470 ha        1 A88      0.132000
     60 H19         0.6070    0.9850    7.7900 ha        1 A88      0.131750
     61 H20        -0.8560   -0.7190    7.0060 ha        1 A88      0.131750
     62 H21        -0.9020   -1.2250    4.6910 ha        1 A88      0.133000
     63 H221        1.1580    1.0940   -0.9890 h1        1 A88      0.106000
     64 H222        0.0930    2.2260   -0.6320 h1        1 A88      0.106000
     65 H24         1.1540    4.2200    0.1740 ha        1 A88      0.147000
     66 H27         4.3750    1.6770    2.5990 ha        1 A88      0.135000
     67 H28         2.6970    0.6010    1.3190 ha        1 A88      0.167000
     68 HO9         4.6460    4.0670    3.7620 ho        1 A88      0.217000
     69 H311        2.6140    5.8370    3.2750 h1        1 A88      0.083667
     70 H312        1.5740    6.6590    2.4240 h1        1 A88      0.083667
     71 H313        3.0310    7.2130    2.6350 h1        1 A88      0.083667
     72 H321        1.0580    0.0480   -1.8120 h1        1 A88      0.087000
     73 H322       -0.2320    0.0250   -2.7320 h1        1 A88      0.087000
     74 H34        -1.0220   -2.8180   -1.8260 ha        1 A88      0.154000
     75 H35        -0.6000   -4.9300   -2.8620 ha        1 A88      0.134000
     76 H38         2.4090   -1.2720   -3.5030 ha        1 A88      0.147000
     77 HO3         0.9640   -5.7160   -5.0040 ho        1 A88      0.218000
     78 H411        3.5190   -4.4870   -6.3660 h1        1 A88      0.085333
     79 H412        3.6320   -2.8750   -6.5850 h1        1 A88      0.085333
     80 H413        2.2000   -3.5880   -6.3240 h1        1 A88      0.085333
@<TRIPOS>BOND
     1    1    2 1   
     2    1    9 1   
     3    1   10 1   
     4    2    3 1   
     5    2   34 1   
     6    3    4 1   
     7    3    5 1   
     8    5    6 1   
     9    5   24 1   
    10    6    7 1   
    11    6   17 1   
    12    6   44 1   
    13    7    8 1   
    14    7    9 1   
    15    7   45 1   
    16    8   46 1   
    17    9   47 1   
    18    9   48 1   
    19   10   11 1   
    20   10   49 1   
    21   10   50 1   
    22   11   12 1   
    23   11   16 1   
    24   12   13 1   
    25   12   51 1   
    26   13   52 1   
    27   14   15 1   
    28   14   53 1   
    29   15   54 1   
    30   16   55 1   
    31   17   18 1   
    32   17   56 1   
    33   17   57 1   
    34   18   19 1   
    35   18   23 1   
    36   19   20 1   
    37   19   58 1   
    38   20   59 1   
    39   21   22 1   
    40   21   60 1   
    41   22   61 1   
    42   23   62 1   
    43   24   25 1   
    44   24   63 1   
    45   24   64 1   
    46   25   26 1   
    47   25   30 1   
    48   26   27 1   
    49   26   65 1   
    50   27   32 1   
    51   28   29 1   
    52   28   31 1   
    53   29   66 1   
    54   30   67 1   
    55   31   68 1   
    56   32   33 1   
    57   33   69 1   
    58   33   70 1   
    59   33   71 1   
    60   34   35 1   
    61   34   72 1   
    62   34   73 1   
    63   35   36 1   
    64   35   40 1   
    65   36   37 1   
    66   36   74 1   
    67   37   75 1   
    68   38   39 1   
    69   38   41 1   
    70   39   42 1   
    71   40   76 1   
    72   41   77 1   
    73   42   43 1   
    74   43   78 1   
    75   43   79 1   
    76   43   80 1   
@<TRIPOS>SUBSTRUCTURE
     1 A88         1 TEMP              0 ****  ****    0 ROOT
