@<TRIPOS>MOLECULE
A88
   80    84     1     0     0
SMALL
bcc


@<TRIPOS>ATOM
      1 N1          0.2150   -0.0830   -0.3120 n3        1 A88     -0.482600
      2 N2          1.5870   -0.1590   -0.1830 n         1 A88     -0.293200
      3 C3          2.1500   -0.0320    1.1430 c         1 A88      0.815500
      4 O3          3.3580   -0.3570    1.2590 o         1 A88     -0.679500
      5 N4          1.4470    0.3870    2.2770 n         1 A88     -0.465800
      6 C5          0.1910    1.1190    2.2850 c3        1 A88      0.138700
      7 C6          0.0400    2.0150    1.0280 c3        1 A88      0.131100
      8 O6         -0.9390    2.9900    1.3540 oh        1 A88     -0.580800
      9 C7         -0.3820    1.2610   -0.2400 c3        1 A88      0.083800
     10 C8         -0.2930   -0.8030   -1.5050 c3        1 A88      0.212100
     11 C9         -1.7430   -1.1630   -1.3690 ca        1 A88     -0.094300
     12 C10        -2.6460   -0.8000   -2.3750 ca        1 A88     -0.117000
     13 C11        -3.9820   -1.1860   -2.2860 ca        1 A88     -0.132000
     14 C12        -4.4260   -1.9290   -1.1930 ca        1 A88     -0.125000
     15 C13        -3.5290   -2.2890   -0.1870 ca        1 A88     -0.132000
     16 C14        -2.1900   -1.9090   -0.2730 ca        1 A88     -0.117000
     17 C15        -1.0530    0.2530    2.5670 c3        1 A88     -0.058100
     18 C16        -2.0310    0.9380    3.4580 ca        1 A88     -0.064300
     19 C17        -3.3270    1.2140    3.0040 ca        1 A88     -0.126000
     20 C18        -4.2560    1.8180    3.8490 ca        1 A88     -0.127500
     21 C19        -3.9030    2.1530    5.1560 ca        1 A88     -0.133000
     22 C20        -2.6140    1.8830    5.6150 ca        1 A88     -0.127500
     23 C21        -1.6840    1.2780    4.7720 ca        1 A88     -0.126000
     24 C22         1.9460   -0.0650    3.5660 c3        1 A88      0.150300
     25 C23         1.6510   -1.4950    3.9240 ca        1 A88     -0.124300
     26 C24         2.3860   -2.5200    3.3160 ca        1 A88     -0.142000
     27 C25         2.1510   -3.8450    3.6780 ca        1 A88      0.039100
     28 C26         1.1790   -4.1540    4.6590 ca        1 A88      0.115100
     29 C27         0.4520   -3.1230    5.2640 ca        1 A88     -0.144000
     30 C28         0.6910   -1.8020    4.8900 ca        1 A88     -0.118000
     31 O29         0.9060   -5.4400    5.0600 oh        1 A88     -0.497100
     32 O30         2.8140   -4.9420    3.1510 os        1 A88     -0.351900
     33 C31         3.7670   -4.6600    2.1310 c3        1 A88      0.120700
     34 C32         2.4750    0.3300   -1.2490 c3        1 A88      0.088300
     35 C33         2.5610    1.8130   -1.4490 ca        1 A88     -0.136300
     36 C34         3.2360    2.6030   -0.5130 ca        1 A88     -0.111000
     37 C35         3.3720    3.9760   -0.7020 ca        1 A88     -0.140000
     38 C36         2.8300    4.5710   -1.8490 ca        1 A88      0.119100
     39 C37         2.1480    3.7740   -2.7960 ca        1 A88      0.030100
     40 C38         2.0140    2.4000   -2.5950 ca        1 A88     -0.149000
     41 O39         2.9800    5.9280   -1.9880 oh        1 A88     -0.491100
     42 O40         1.6120    4.4660   -3.8720 os        1 A88     -0.347900
     43 C41         1.3770    3.6910   -5.0430 c3        1 A88      0.119700
     44 H5          0.2790    1.8570    3.1500 h1        1 A88      0.071700
     45 H6          1.0240    2.5390    0.8310 h1        1 A88      0.047700
     46 HO6        -0.9830    3.5940    0.6020 ho        1 A88      0.405000
     47 H71        -1.4990    1.1130   -0.2310 h1        1 A88      0.058700
     48 H72        -0.1250    1.9000   -1.1350 h1        1 A88      0.058700
     49 H81        -0.1440   -0.1930   -2.4450 h1        1 A88      0.051700
     50 H82         0.2880   -1.7640   -1.6220 h1        1 A88      0.051700
     51 H10        -2.3020   -0.2140   -3.2400 ha        1 A88      0.139500
     52 H11        -4.6880   -0.9010   -3.0810 ha        1 A88      0.134500
     53 H12        -5.4810   -2.2320   -1.1240 ha        1 A88      0.133000
     54 H13        -3.8760   -2.8750    0.6770 ha        1 A88      0.134500
     55 H14        -1.4820   -2.1930    0.5210 ha        1 A88      0.139500
     56 H151       -1.5540   -0.0390    1.6080 hc        1 A88      0.070200
     57 H152       -0.7370   -0.7040    3.0710 hc        1 A88      0.070200
     58 H17        -3.6090    0.9590    1.9720 ha        1 A88      0.127500
     59 H18        -5.2710    2.0310    3.4830 ha        1 A88      0.128000
     60 H19        -4.6360    2.6300    5.8220 ha        1 A88      0.129000
     61 H20        -2.3300    2.1470    6.6440 ha        1 A88      0.128000
     62 H21        -0.6690    1.0660    5.1400 ha        1 A88      0.127500
     63 H221        3.0700    0.0710    3.5620 h1        1 A88      0.067700
     64 H222        1.5150    0.6090    4.3610 h1        1 A88      0.067700
     65 H24         3.1410   -2.2610    2.5550 ha        1 A88      0.169000
     66 H27        -0.3010   -3.3710    6.0250 ha        1 A88      0.152000
     67 H28         0.1110   -0.9970    5.3680 ha        1 A88      0.135000
     68 HO9         1.4810   -6.0400    4.5600 ho        1 A88      0.436000
     69 H311        3.2760   -4.1590    1.2610 h1        1 A88      0.048033
     70 H312        4.5930   -4.0250    2.5330 h1        1 A88      0.048033
     71 H313        4.1470   -5.6730    1.8450 h1        1 A88      0.048033
     72 H321        3.5080   -0.0610   -1.0030 h1        1 A88      0.080700
     73 H322        2.1420   -0.1610   -2.2080 h1        1 A88      0.080700
     74 H34         3.6720    2.1250    0.3810 ha        1 A88      0.158000
     75 H35         3.9040    4.6020    0.0290 ha        1 A88      0.158000
     76 H38         1.4850    1.7800   -3.3330 ha        1 A88      0.137000
     77 HO3         2.6190    6.1840   -2.8510 ho        1 A88      0.438000
     78 H411        0.4870    3.0310   -4.8920 h1        1 A88      0.045700
     79 H412        2.2740    3.0820   -5.3100 h1        1 A88      0.045700
     80 H413        1.1660    4.4590   -5.8290 h1        1 A88      0.045700
@<TRIPOS>BOND
     1    1    2 1   
     2    1    9 1   
     3    1   10 1   
     4    2    3 1   
     5    2   34 1   
     6    3    4 2   
     7    3    5 1   
     8    5    6 1   
     9    5   24 1   
    10    6    7 1   
    11    6   17 1   
    12    6   44 1   
    13    7    8 1   
    14    7    9 1   
    15    7   45 1   
    16    8   46 1   
    17    9   47 1   
    18    9   48 1   
    19   10   11 1   
    20   10   49 1   
    21   10   50 1   
    22   11   12 ar  
    23   11   16 ar  
    24   12   13 ar  
    25   12   51 1   
    26   13   14 ar  
    27   13   52 1   
    28   14   15 ar  
    29   14   53 1   
    30   15   16 ar  
    31   15   54 1   
    32   16   55 1   
    33   17   18 1   
    34   17   56 1   
    35   17   57 1   
    36   18   19 ar  
    37   18   23 ar  
    38   19   20 ar  
    39   19   58 1   
    40   20   21 ar  
    41   20   59 1   
    42   21   22 ar  
    43   21   60 1   
    44   22   23 ar  
    45   22   61 1   
    46   23   62 1   
    47   24   25 1   
    48   24   63 1   
    49   24   64 1   
    50   25   26 ar  
    51   25   30 ar  
    52   26   27 ar  
    53   26   65 1   
    54   27   28 ar  
    55   27   32 1   
    56   28   29 ar  
    57   28   31 1   
    58   29   30 ar  
    59   29   66 1   
    60   30   67 1   
    61   31   68 1   
    62   32   33 1   
    63   33   69 1   
    64   33   70 1   
    65   33   71 1   
    66   34   35 1   
    67   34   72 1   
    68   34   73 1   
    69   35   36 ar  
    70   35   40 ar  
    71   36   37 ar  
    72   36   74 1   
    73   37   38 ar  
    74   37   75 1   
    75   38   39 ar  
    76   38   41 1   
    77   39   40 ar  
    78   39   42 1   
    79   40   76 1   
    80   41   77 1   
    81   42   43 1   
    82   43   78 1   
    83   43   79 1   
    84   43   80 1   
@<TRIPOS>SUBSTRUCTURE
     1 A88         1 TEMP              0 ****  ****    0 ROOT
