@<TRIPOS>MOLECULE
A89
   75    64     1     0     0
SMALL
bcc


@<TRIPOS>ATOM
      1 C23         3.6780   -0.8780   -0.2070 c1        1 A89      0.343000
      2 C24         5.1640   -0.4500   -0.2620 c1        1 A89     -0.116000
      3 C25         5.8870   -0.2880    0.9180 c1        1 A89     -0.094000
      4 C26         7.2330    0.0670    0.8660 c1        1 A89     -0.111500
      5 C27         7.8530    0.2580   -0.3590 c1        1 A89     -0.111500
      6 C28         7.1310    0.0970   -1.5370 c1        1 A89     -0.094000
      7 C29         5.7840   -0.2580   -1.4860 c1        1 A89     -0.093000
      8 C30         8.0100    0.3050    2.1590 c2        1 A89     -0.175000
      9 O7          3.1280   -1.0220    0.8660 o         1 A89     -0.448000
     10 BR          9.7050    0.7300   -0.4300 br        1 A89      0.038000
     11 N1          2.9270   -1.0460   -1.4330 n3        1 A89     -0.310000
     12 C9          1.4980   -1.0910   -1.3970 c3        1 A89     -0.011000
     13 C10         0.9770    0.0580   -0.5600 c1        1 A89      0.305000
     14 O4          1.6870    0.5630    0.2850 o         1 A89     -0.392000
     15 C8          1.0470   -2.4060   -0.7890 c3        1 A89     -0.064000
     16 C5          0.8190   -3.4480   -1.9180 c2        1 A89     -0.397000
     17 C6          0.0590   -3.1090   -3.0310 c2        1 A89     -0.052000
     18 C4          1.2900   -4.7480   -1.7680 c1        1 A89     -0.054000
     19 C7         -0.2300   -4.0700   -3.9950 c1        1 A89     -0.253000
     20 C3          1.0000   -5.7100   -2.7330 c1        1 A89     -0.277000
     21 C2          0.2410   -5.3710   -3.8460 c1        1 A89      0.023000
     22 C1          0.0510   -6.3840   -4.9770 c3        1 A89     -0.032000
     23 F1          0.0580   -5.7430   -6.1550 f         1 A89     -0.130500
     24 F2          1.0470   -7.2770   -4.9490 f         1 A89     -0.130500
     25 P1         -1.5390   -7.2430   -4.7630 p5        1 A89      1.437500
     26 O2         -1.3310   -8.4880   -3.9330 o         1 A89     -0.816167
     27 O1         -2.5150   -6.3300   -4.0640 o         1 A89     -0.816167
     28 O3         -2.0910   -7.6270   -6.1160 o         1 A89     -0.816167
     29 N2         -0.3350    0.6040   -0.8210 n2        1 A89     -0.351000
     30 N4         -4.0440    4.4620    1.3690 n3        1 A89     -0.348000
     31 C11        -0.9290    1.5180    0.1110 c3        1 A89      0.007000
     32 C12        -1.1920    0.8100    1.4050 c1        1 A89      0.284000
     33 C13        -2.2410    2.0410   -0.4560 c3        1 A89     -0.156000
     34 C14        -2.3720    3.5440   -0.1460 c3        1 A89     -0.178000
     35 C15        -3.8560    3.9010    0.0520 c3        1 A89     -0.034000
     36 C16        -5.3750    4.6560    1.8880 c1        1 A89      0.334000
     37 C17        -5.6470    4.4800    3.3860 c1        1 A89     -0.120000
     38 C18        -4.6150    4.1230    4.2390 c1        1 A89     -0.112000
     39 C19        -4.8540    3.9900    5.6000 c1        1 A89     -0.112000
     40 C20        -6.1270    4.2140    6.1060 c1        1 A89     -0.086000
     41 C21        -7.1590    4.5710    5.2530 c1        1 A89     -0.280000
     42 C22        -6.9200    4.7040    3.8920 c2        1 A89     -0.051000
     43 O5         -1.4050   -0.3850    1.4110 o         1 A89     -0.460000
     44 O6         -6.2790    4.9690    1.1390 o         1 A89     -0.392000
     45 I          -9.0940    4.8970    6.0190 i         1 A89      0.122000
     46 N3         -1.1990    1.5360    2.6180 n2        1 A89     -0.377000
     47 H24         5.4650   -0.4790    1.7790 ha        1 A89      0.162000
     48 H25         7.5670    0.2320   -2.3990 ha        1 A89      0.162000
     49 H26         5.2810   -0.3710   -2.3090 ha        1 A89      0.200000
     50 H27         8.8470    0.7860    1.9560 ha        1 A89      0.081333
     51 H28         7.4650    0.8400    2.7740 ha        1 A89      0.081333
     52 H29         8.2210   -0.5570    2.5760 ha        1 A89      0.081333
     53 H1          3.3650   -1.0990   -2.2320 hn        1 A89      0.260000
     54 H12         1.1470   -1.0160   -2.3060 h1        1 A89      0.130000
     55 H10         0.2110   -2.2690   -0.2980 hc        1 A89      0.063500
     56 H11         1.7330   -2.7340   -0.1770 hc        1 A89      0.063500
     57 H8         -0.3300   -2.2180   -3.1010 ha        1 A89      0.077000
     58 H7          1.8010   -4.9930   -0.9730 ha        1 A89      0.076000
     59 H9         -0.7640   -3.8310   -4.7770 ha        1 A89      0.116000
     60 H6          1.3310   -6.6240   -2.6280 ha        1 A89      0.115000
     61 H2         -0.7790    0.3810   -1.5880 hn        1 A89      0.241000
     62 H5         -3.3210    4.6620    1.8860 hn        1 A89      0.251000
     63 H13        -0.3210    2.2650    0.2660 h1        1 A89      0.140000
     64 H14        -2.2550    1.9060   -1.4260 hc        1 A89      0.097500
     65 H15        -2.9890    1.5580   -0.0490 hc        1 A89      0.097500
     66 H16        -2.0070    4.0650   -0.8930 hc        1 A89      0.092000
     67 H17        -1.8750    3.7520    0.6690 hc        1 A89      0.092000
     68 H18        -4.4000    3.0940   -0.0390 h1        1 A89      0.095500
     69 H19        -4.1290    4.5590   -0.6260 h1        1 A89      0.095500
     70 H20        -3.7230    3.9660    3.8840 ha        1 A89      0.162000
     71 H21        -4.1170    3.7960    6.2060 ha        1 A89      0.162000
     72 H22        -6.2950    4.1200    7.0660 ha        1 A89      0.137000
     73 H23        -7.6500    4.9400    3.2890 ha        1 A89      0.163000
     74 H3         -0.7290    2.3190    2.6860 hn        1 A89      0.230500
     75 H4         -1.6740    1.2250    3.3330 hn        1 A89      0.230500
@<TRIPOS>BOND
     1    1    9 1   
     2    1   11 1   
     3    2    7 1   
     4    3    4 1   
     5    3   47 1   
     6    4    5 1   
     7    5    6 1   
     8    6   48 1   
     9    7   49 1   
    10    8   50 1   
    11    8   51 1   
    12    8   52 1   
    13   11   12 1   
    14   11   53 1   
    15   12   13 1   
    16   12   15 1   
    17   12   54 1   
    18   13   14 1   
    19   15   16 1   
    20   15   55 1   
    21   15   56 1   
    22   16   17 1   
    23   16   18 1   
    24   17   19 1   
    25   17   57 1   
    26   18   58 1   
    27   19   59 1   
    28   20   21 1   
    29   20   60 1   
    30   21   22 1   
    31   22   23 1   
    32   22   24 1   
    33   22   25 1   
    34   25   26 1   
    35   25   27 1   
    36   25   28 1   
    37   29   31 1   
    38   29   61 1   
    39   30   35 1   
    40   30   36 1   
    41   30   62 1   
    42   31   32 1   
    43   31   33 1   
    44   31   63 1   
    45   32   43 1   
    46   33   34 1   
    47   33   64 1   
    48   33   65 1   
    49   34   35 1   
    50   34   66 1   
    51   34   67 1   
    52   35   68 1   
    53   35   69 1   
    54   36   44 1   
    55   37   42 1   
    56   38   39 1   
    57   38   70 1   
    58   39   71 1   
    59   40   41 1   
    60   40   72 1   
    61   41   42 1   
    62   42   73 1   
    63   46   74 1   
    64   46   75 1   
@<TRIPOS>SUBSTRUCTURE
     1 A89         1 TEMP              0 ****  ****    0 ROOT
