@<TRIPOS>MOLECULE
A89
   75    76     1     0     0
SMALL
bcc


@<TRIPOS>ATOM
      1 C23        -2.0990    1.4510   -1.3500 c2        1 A89      0.343000
      2 C24        -3.3020    0.6630   -1.7410 ca        1 A89     -0.128000
      3 C25        -3.6440    0.6450   -3.0990 ca        1 A89     -0.111000
      4 C26        -4.7650   -0.0570   -3.5430 ca        1 A89     -0.085000
      5 C27        -5.5580   -0.7380   -2.6020 ca        1 A89     -0.146000
      6 C28        -5.2330   -0.7110   -1.2430 ca        1 A89     -0.083000
      7 C29        -4.0970   -0.0120   -0.8140 ca        1 A89     -0.089000
      8 C30        -5.0880   -0.0590   -4.9900 c3        1 A89     -0.171000
      9 O7         -1.7840    2.5020   -1.9670 o         1 A89     -0.454000
     10 BR         -7.0760   -1.6950   -3.1610 br        1 A89      0.034000
     11 N1         -1.2770    0.9470   -0.3640 n         1 A89     -0.341000
     12 C9         -0.3370    1.7900    0.3390 c3        1 A89      0.002000
     13 C10         0.9440    2.1620   -0.4350 c2        1 A89      0.300000
     14 O4          1.8420    2.8180    0.1340 o         1 A89     -0.397000
     15 C8          0.1000    1.1870    1.7090 c3        1 A89     -0.042000
     16 C5         -1.0180    0.4850    2.3580 ca        1 A89     -0.383000
     17 C6         -2.1090    1.2010    2.8970 ca        1 A89     -0.050000
     18 C4         -1.1060   -0.9230    2.3180 ca        1 A89     -0.050000
     19 C7         -3.2810    0.5760    3.2290 ca        1 A89     -0.268500
     20 C3         -2.2620   -1.5790    2.6460 ca        1 A89     -0.268500
     21 C2         -3.4430   -0.8390    3.0110 ca        1 A89      0.034000
     22 C1         -4.6610   -1.4480    3.1210 c2        1 A89     -0.057000
     23 F1         -5.8750   -0.8850    3.3460 f         1 A89     -0.137500
     24 F2         -4.9910   -2.7350    2.8500 f         1 A89     -0.137500
     25 P1         -7.5610   -2.6140    2.2920 p3        1 A89      2.417000
     26 O2         -7.0850   -2.0770    0.9980 o         1 A89     -1.140333
     27 O1         -7.4000   -4.0480    2.5990 o         1 A89     -1.140333
     28 O3         -8.4650   -1.8090    3.1350 o         1 A89     -1.140333
     29 N2          1.1010    1.7700   -1.7560 n         1 A89     -0.372000
     30 N4          4.7000   -1.9920   -3.0370 n         1 A89     -0.369000
     31 C11         2.1530    2.2860   -2.5860 c3        1 A89      0.013000
     32 C12         1.7710    3.4900   -3.4830 c2        1 A89      0.274000
     33 C13         2.7520    1.2180   -3.5190 c3        1 A89     -0.159000
     34 C14         3.4500    0.1290   -2.7350 c3        1 A89     -0.177000
     35 C15         4.0930   -0.8680   -3.7000 c3        1 A89     -0.028000
     36 C16         5.8910   -2.5420   -3.4460 c2        1 A89      0.342000
     37 C17         6.4260   -3.6880   -2.6490 ca        1 A89     -0.118000
     38 C18         6.9840   -4.7690   -3.3410 ca        1 A89     -0.067000
     39 C19         7.5050   -5.8490   -2.6330 ca        1 A89     -0.147000
     40 C20         7.4820   -5.8510   -1.2380 ca        1 A89     -0.085000
     41 C21         6.9390   -4.7660   -0.5470 ca        1 A89     -0.272000
     42 C22         6.4070   -3.6840   -1.2510 ca        1 A89     -0.069000
     43 O5          2.6690    4.0530   -4.1540 o         1 A89     -0.425000
     44 O6          6.4950   -2.1320   -4.4610 o         1 A89     -0.379000
     45 I           6.9210   -4.7640    1.4720 i         1 A89      0.152000
     46 N3          0.4820    3.9270   -3.5670 n         1 A89     -0.417000
     47 H24        -3.0210    1.2040   -3.8150 ha        1 A89      0.131000
     48 H25        -5.8700   -1.2360   -0.4830 ha        1 A89      0.268000
     49 H26        -3.8660   -0.0050    0.2690 ha        1 A89      0.186000
     50 H27        -5.0860   -1.1040   -5.3900 hc        1 A89      0.076333
     51 H28        -6.1020    0.3820   -5.1650 hc        1 A89      0.076333
     52 H29        -4.3430    0.5390   -5.5700 hc        1 A89      0.076333
     53 H1         -1.6170    0.1650    0.1710 hn        1 A89      0.272000
     54 H12        -0.8290    2.7930    0.5390 h1        1 A89      0.112000
     55 H10         0.9620    0.4920    1.5340 hc        1 A89      0.071500
     56 H11         0.4730    2.0480    2.3220 hc        1 A89      0.071500
     57 H8         -2.0100    2.2900    3.0260 ha        1 A89      0.079500
     58 H7         -0.2230   -1.4980    1.9980 ha        1 A89      0.079500
     59 H9         -4.1320    1.1310    3.6430 ha        1 A89      0.114000
     60 H6         -2.3330   -2.6730    2.6160 ha        1 A89      0.114000
     61 H2          0.3310    1.3590   -2.2310 hn        1 A89      0.236000
     62 H5          4.2510   -2.3430   -2.2250 hn        1 A89      0.232000
     63 H13         2.9750    2.6770   -1.9070 h1        1 A89      0.150000
     64 H14         1.9490    0.7730   -4.1620 hc        1 A89      0.097500
     65 H15         3.4860    1.7340   -4.1960 hc        1 A89      0.097500
     66 H16         4.2320    0.5830   -2.0720 hc        1 A89      0.097000
     67 H17         2.7120   -0.3960   -2.0730 hc        1 A89      0.097000
     68 H18         4.8760   -0.3430   -4.3200 h1        1 A89      0.095500
     69 H19         3.3000   -1.2550   -4.4060 h1        1 A89      0.095500
     70 H20         7.0120   -4.7470   -4.4420 ha        1 A89      0.155000
     71 H21         7.9370   -6.7040   -3.1750 ha        1 A89      0.135000
     72 H22         7.8950   -6.7120   -0.6900 ha        1 A89      0.141000
     73 H23         5.9860   -2.8240   -0.7050 ha        1 A89      0.155000
     74 H3         -0.2460    3.5640   -2.9980 hn        1 A89      0.238500
     75 H4          0.2880    4.7340   -4.1060 hn        1 A89      0.238500
@<TRIPOS>BOND
     1    1    2 1   
     2    1    9 1   
     3    1   11 1   
     4    2    3 1   
     5    2    7 1   
     6    3    4 1   
     7    3   47 1   
     8    4    5 1   
     9    4    8 1   
    10    5    6 1   
    11    5   10 1   
    12    6    7 1   
    13    6   48 1   
    14    7   49 1   
    15    8   50 1   
    16    8   51 1   
    17    8   52 1   
    18   11   12 1   
    19   11   53 1   
    20   12   13 1   
    21   12   15 1   
    22   12   54 1   
    23   13   14 1   
    24   13   29 1   
    25   15   16 1   
    26   15   55 1   
    27   15   56 1   
    28   16   17 1   
    29   16   18 1   
    30   17   19 1   
    31   17   57 1   
    32   18   20 1   
    33   18   58 1   
    34   19   21 1   
    35   19   59 1   
    36   20   21 1   
    37   20   60 1   
    38   21   22 1   
    39   22   23 1   
    40   22   24 1   
    41   25   26 1   
    42   25   27 1   
    43   25   28 1   
    44   29   31 1   
    45   29   61 1   
    46   30   35 1   
    47   30   36 1   
    48   30   62 1   
    49   31   32 1   
    50   31   33 1   
    51   31   63 1   
    52   32   43 1   
    53   32   46 1   
    54   33   34 1   
    55   33   64 1   
    56   33   65 1   
    57   34   35 1   
    58   34   66 1   
    59   34   67 1   
    60   35   68 1   
    61   35   69 1   
    62   36   37 1   
    63   36   44 1   
    64   37   38 1   
    65   37   42 1   
    66   38   39 1   
    67   38   70 1   
    68   39   40 1   
    69   39   71 1   
    70   40   41 1   
    71   40   72 1   
    72   41   42 1   
    73   41   45 1   
    74   42   73 1   
    75   46   74 1   
    76   46   75 1   
@<TRIPOS>SUBSTRUCTURE
     1 A89         1 TEMP              0 ****  ****    0 ROOT
