@<TRIPOS>MOLECULE
A8B
   70    74     1     0     0
SMALL
bcc


@<TRIPOS>ATOM
      1 C1         -0.1080   -0.2680   -0.0250 ca        1 A8B      0.409600
      2 C2          1.3160   -0.1990    0.0070 ca        1 A8B     -0.170300
      3 C3          1.9790   -0.3340    1.2560 ca        1 A8B     -0.120000
      4 C4          1.2710   -0.5470    2.4130 ca        1 A8B     -0.129000
      5 C5         -0.1400   -0.6350    2.3820 ca        1 A8B     -0.126000
      6 C6         -0.8200   -0.4970    1.2000 ca        1 A8B     -0.164300
      7 N7         -0.8260   -0.1180   -1.1880 nb        1 A8B     -0.680000
      8 C8         -0.1710    0.0920   -2.3260 ca        1 A8B      0.448600
      9 C9          1.2650    0.1670   -2.4120 ca        1 A8B     -0.178600
     10 C10         2.0110    0.0170   -1.2390 ca        1 A8B      0.132600
     11 N11         3.4320    0.0040   -1.2930 nu        1 A8B     -0.717600
     12 C14         1.9450    0.4190   -3.7110 c3        1 A8B     -0.026100
     13 C15         1.0660    0.2010   -4.9230 c3        1 A8B     -0.079400
     14 C16        -0.2800    0.8570   -4.7250 c3        1 A8B     -0.080400
     15 C17        -1.0120    0.2080   -3.5740 c3        1 A8B     -0.132700
     16 C19         8.2900    3.9600   -1.3270 c3        1 A8B     -0.079400
     17 C20         7.6930    2.5700   -1.2740 c3        1 A8B     -0.079400
     18 C21         6.1810    2.6220   -1.3120 c3        1 A8B     -0.079400
     19 C22         9.8020    3.9080   -1.2900 c3        1 A8B     -0.078400
     20 C24         5.5880    1.2300   -1.2600 c3        1 A8B     -0.085400
     21 N24        12.5600    6.5100   -1.3080 nu        1 A8B     -0.742600
     22 C25         4.0620    1.3130   -1.2980 c3        1 A8B      0.169800
     23 C26        16.1680    5.6450   -1.5530 ca        1 A8B      0.448200
     24 C27        14.7660    5.4820   -1.3970 ca        1 A8B     -0.345300
     25 C29        10.3950    5.3000   -1.3400 c3        1 A8B     -0.091400
     26 C30        11.9210    5.2160   -1.3040 c3        1 A8B      0.192800
     27 N32        16.7700    6.7890   -1.8250 nb        1 A8B     -0.694000
     28 C33        15.9750    7.9110   -1.9560 ca        1 A8B      0.421600
     29 C34        14.5530    7.8750   -1.8100 ca        1 A8B     -0.178300
     30 C35        13.9320    6.5950   -1.5200 ca        1 A8B      0.209600
     31 C39        13.8210    9.0820   -1.9460 ca        1 A8B     -0.107000
     32 C40        14.4550   10.2690   -2.2270 ca        1 A8B     -0.139000
     33 C41        15.8580   10.3080   -2.3830 ca        1 A8B     -0.119000
     34 C42        16.6050    9.1650   -2.2510 ca        1 A8B     -0.172300
     35 H3          3.0750   -0.2560    1.3140 ha        1 A8B      0.125000
     36 H4          1.7920   -0.6500    3.3760 ha        1 A8B      0.133000
     37 H5         -0.6850   -0.8130    3.3210 ha        1 A8B      0.135000
     38 H6         -1.9190   -0.5600    1.1700 ha        1 A8B      0.150000
     39 HN11        3.8130   -0.5740   -0.5670 hn        1 A8B      0.376800
     40 H14         2.8510   -0.2400   -3.8020 hc        1 A8B      0.057700
     41 H14A        2.3070    1.4850   -3.7150 hc        1 A8B      0.057700
     42 H15         1.5730    0.6260   -5.8280 hc        1 A8B      0.044700
     43 H15A        0.9280   -0.8980   -5.1020 hc        1 A8B      0.044700
     44 H16        -0.8980    0.7580   -5.6560 hc        1 A8B      0.045700
     45 H16A       -0.1430    1.9520   -4.5270 hc        1 A8B      0.045700
     46 H17        -1.3260   -0.8310   -3.8680 hc        1 A8B      0.065700
     47 H17A       -1.9480    0.7890   -3.3550 hc        1 A8B      0.065700
     48 H19         7.9530    4.4790   -2.2640 hc        1 A8B      0.042200
     49 H19A        7.9130    4.5650   -0.4610 hc        1 A8B      0.042200
     50 H20         8.0290    2.0520   -0.3380 hc        1 A8B      0.042200
     51 H20A        8.0710    1.9650   -2.1400 hc        1 A8B      0.042200
     52 H21         5.8460    3.1390   -2.2500 hc        1 A8B      0.042200
     53 H21A        5.8030    3.2280   -0.4470 hc        1 A8B      0.042200
     54 H22        10.1790    3.3050   -2.1580 hc        1 A8B      0.044200
     55 H22A       10.1380    3.3880   -0.3540 hc        1 A8B      0.044200
     56 H24         5.9230    0.7140   -0.3220 hc        1 A8B      0.048200
     57 H24A        5.9620    0.6260   -2.1270 hc        1 A8B      0.048200
     58 HN24       12.0150    7.2400   -1.7130 hn        1 A8B      0.410800
     59 H25         3.7160    1.9470   -0.4290 h1        1 A8B      0.038700
     60 H25A        3.7470    1.8390   -2.2440 h1        1 A8B      0.038700
     61 H27        14.3760    4.4810   -1.1730 ha        1 A8B      0.143000
     62 H29        10.0220    5.9000   -0.4690 hc        1 A8B      0.048700
     63 H29A       10.0590    5.8190   -2.2760 hc        1 A8B      0.048700
     64 H30        12.2360    4.6810   -0.3610 h1        1 A8B      0.043700
     65 H30A       12.2700    4.5900   -2.1790 h1        1 A8B      0.043700
     66 H39        12.7290    9.0920   -1.8170 ha        1 A8B      0.124000
     67 H40        13.8780   11.1990   -2.3300 ha        1 A8B      0.133000
     68 H41        16.3450   11.2690   -2.6090 ha        1 A8B      0.135000
     69 H42        17.7000    9.1920   -2.3670 ha        1 A8B      0.151000
     70 H26        16.8270    4.7620   -1.4490 h4        1 A8B      0.018100
@<TRIPOS>BOND
     1    1    2 ar  
     2    1    6 ar  
     3    1    7 ar  
     4    2    3 ar  
     5    2   10 ar  
     6    3    4 ar  
     7    3   35 1   
     8    4    5 ar  
     9    4   36 1   
    10    5    6 ar  
    11    5   37 1   
    12    6   38 1   
    13    7    8 ar  
    14    8    9 ar  
    15    8   15 1   
    16    9   10 ar  
    17    9   12 1   
    18   10   11 1   
    19   11   22 1   
    20   11   39 1   
    21   12   13 1   
    22   12   40 1   
    23   12   41 1   
    24   13   14 1   
    25   13   42 1   
    26   13   43 1   
    27   14   15 1   
    28   14   44 1   
    29   14   45 1   
    30   15   46 1   
    31   15   47 1   
    32   16   17 1   
    33   16   19 1   
    34   16   48 1   
    35   16   49 1   
    36   17   18 1   
    37   17   50 1   
    38   17   51 1   
    39   18   20 1   
    40   18   52 1   
    41   18   53 1   
    42   19   25 1   
    43   19   54 1   
    44   19   55 1   
    45   20   22 1   
    46   20   56 1   
    47   20   57 1   
    48   21   26 1   
    49   21   30 1   
    50   21   58 1   
    51   22   59 1   
    52   22   60 1   
    53   23   24 ar  
    54   23   27 ar  
    55   23   70 1   
    56   24   30 ar  
    57   24   61 1   
    58   25   26 1   
    59   25   62 1   
    60   25   63 1   
    61   26   64 1   
    62   26   65 1   
    63   27   28 ar  
    64   28   29 ar  
    65   28   34 ar  
    66   29   30 ar  
    67   29   31 ar  
    68   31   32 ar  
    69   31   66 1   
    70   32   33 ar  
    71   32   67 1   
    72   33   34 ar  
    73   33   68 1   
    74   34   69 1   
@<TRIPOS>SUBSTRUCTURE
     1 A8B         1 TEMP              0 ****  ****    0 ROOT
