@<TRIPOS>MOLECULE
A8B
   72    76     1     0     0
SMALL
bcc


@<TRIPOS>ATOM
      1 C1         -0.0080    0.1050    0.0820 ca        1 A8B      0.413600
      2 C2          1.4210    0.0450    0.0200 ca        1 A8B     -0.135300
      3 C3          2.1630    0.0820    1.2270 ca        1 A8B     -0.176000
      4 C4          1.5240    0.1570    2.4420 ca        1 A8B     -0.064000
      5 C5          0.1120    0.2060    2.5110 ca        1 A8B     -0.110000
      6 C6         -0.6430    0.1840    1.3660 ca        1 A8B     -0.130300
      7 N7         -0.7940    0.0960   -1.0450 nb        1 A8B     -0.605000
      8 C8         -0.2320    0.0030   -2.2440 ca        1 A8B      0.450600
      9 C9          1.2000   -0.0970   -2.4330 ca        1 A8B     -0.116600
     10 C10         1.9960   -0.0560   -1.2910 ca        1 A8B     -0.034400
     11 N11         3.4580   -0.1320   -1.4010 n4        1 A8B     -0.631400
     12 C14         1.7990   -0.2120   -3.7910 c3        1 A8B     -0.053100
     13 C15         0.8030   -0.4240   -4.9130 c3        1 A8B     -0.079400
     14 C16        -0.4390    0.4080   -4.7080 c3        1 A8B     -0.086400
     15 C17        -1.1450   -0.0150   -3.4420 c3        1 A8B     -0.142700
     16 C19         8.2500    3.9600   -1.4720 c3        1 A8B     -0.079400
     17 C20         7.6860    2.5540   -1.5050 c3        1 A8B     -0.079400
     18 C21         6.1720    2.5750   -1.4250 c3        1 A8B     -0.077400
     19 C22         9.7630    3.9380   -1.5510 c3        1 A8B     -0.078400
     20 C24         5.6110    1.1660   -1.4590 c3        1 A8B     -0.110400
     21 N24        12.4680    6.6440   -1.5700 n4        1 A8B     -0.632400
     22 C25         4.0910    1.2260   -1.3740 c3        1 A8B      0.103800
     23 C26        16.1100    5.6410   -1.8020 ca        1 A8B      0.413200
     24 C27        14.6850    5.5110   -1.7340 ca        1 A8B     -0.188300
     25 C29        10.3240    5.3480   -1.5170 c3        1 A8B     -0.109400
     26 C30        11.8470    5.2860   -1.5980 c3        1 A8B      0.102800
     27 N32        16.7510    6.7920   -1.7850 nb        1 A8B     -0.579000
     28 C33        16.0140    7.9550   -1.6950 ca        1 A8B      0.406600
     29 C34        14.5810    7.9520   -1.6210 ca        1 A8B     -0.138300
     30 C35        13.9350    6.6670   -1.6450 ca        1 A8B     -0.016400
     31 C39        13.8920    9.1880   -1.5310 ca        1 A8B     -0.176000
     32 C40        14.5850   10.3760   -1.5140 ca        1 A8B     -0.056000
     33 C41        15.9970   10.3870   -1.5870 ca        1 A8B     -0.105000
     34 C42        16.7020    9.2130   -1.6750 ca        1 A8B     -0.128300
     35 H3          3.2630    0.0540    1.2200 ha        1 A8B      0.112000
     36 H4          2.1050    0.1770    3.3790 ha        1 A8B      0.159000
     37 H5         -0.3750    0.2610    3.5000 ha        1 A8B      0.170000
     38 H6         -1.7460    0.2250    1.4120 ha        1 A8B      0.182000
     39 HN11        3.7160   -0.6070   -2.2760 hn        1 A8B      0.454800
     40 H14         2.3800    0.7310   -3.9970 hc        1 A8B      0.049200
     41 H14A        2.5220   -1.0760   -3.8210 hc        1 A8B      0.049200
     42 H15         0.5210   -1.5100   -4.9670 hc        1 A8B      0.067700
     43 H15A        1.2900   -0.1570   -5.8870 hc        1 A8B      0.067700
     44 H16        -1.1350    0.2720   -5.5790 hc        1 A8B      0.067200
     45 H16A       -0.1730    1.4970   -4.6600 hc        1 A8B      0.067200
     46 H17        -2.0310    0.6550   -3.2640 hc        1 A8B      0.092200
     47 H17A       -1.5420   -1.0630   -3.5550 hc        1 A8B      0.092200
     48 H19         7.9290    4.4720   -0.5260 hc        1 A8B      0.053700
     49 H19A        7.8350    4.5520   -2.3300 hc        1 A8B      0.053700
     50 H20         8.0070    2.0420   -2.4510 hc        1 A8B      0.052700
     51 H20A        8.1010    1.9610   -0.6470 hc        1 A8B      0.052700
     52 H21         5.7580    3.1680   -2.2840 hc        1 A8B      0.058700
     53 H21A        5.8530    3.0870   -0.4790 hc        1 A8B      0.058700
     54 H22        10.1760    3.3460   -0.6920 hc        1 A8B      0.058700
     55 H22A       10.0830    3.4260   -2.4970 hc        1 A8B      0.058700
     56 H24         5.9320    0.6590   -2.4080 hc        1 A8B      0.066200
     57 H24A        6.0290    0.5770   -0.5990 hc        1 A8B      0.066200
     58 HN24       12.1920    7.1210   -0.6990 hn        1 A8B      0.457800
     59 H25         3.7690    1.7300   -0.4160 hx        1 A8B      0.112700
     60 H25A        3.6720    1.8130   -2.2420 hx        1 A8B      0.112700
     61 H29         9.9080    5.9350   -2.3780 hc        1 A8B      0.068700
     62 H29A       10.0020    5.8540   -0.5680 hc        1 A8B      0.068700
     63 H30        12.1590    4.7800   -2.5570 hx        1 A8B      0.110700
     64 H30A       12.2530    4.6990   -0.7250 hx        1 A8B      0.110700
     65 H39        12.7950    9.2240   -1.4720 ha        1 A8B      0.115000
     66 H40        14.0450   11.3360   -1.4440 ha        1 A8B      0.164000
     67 H41        16.5280   11.3550   -1.5710 ha        1 A8B      0.173000
     68 H42        17.8050    9.2160   -1.7320 ha        1 A8B      0.185000
     69 H26        16.7330    4.7260   -1.8750 h4        1 A8B      0.064100
     70 H112        3.8180   -0.6920   -0.6170 hn        1 A8B      0.454800
     71 H242       12.1060    7.1950   -2.3610 hn        1 A8B      0.457800
     72 H27        14.2590    4.4970   -1.7570 ha        1 A8B      0.162000
@<TRIPOS>BOND
     1    1    2 ar  
     2    1    6 ar  
     3    1    7 ar  
     4    2    3 ar  
     5    2   10 ar  
     6    3    4 ar  
     7    3   35 1   
     8    4    5 ar  
     9    4   36 1   
    10    5    6 ar  
    11    5   37 1   
    12    6   38 1   
    13    7    8 ar  
    14    8    9 ar  
    15    8   15 1   
    16    9   10 ar  
    17    9   12 1   
    18   10   11 1   
    19   11   22 1   
    20   11   39 1   
    21   11   70 1   
    22   12   13 1   
    23   12   40 1   
    24   12   41 1   
    25   13   14 1   
    26   13   42 1   
    27   13   43 1   
    28   14   15 1   
    29   14   44 1   
    30   14   45 1   
    31   15   46 1   
    32   15   47 1   
    33   16   17 1   
    34   16   19 1   
    35   16   48 1   
    36   16   49 1   
    37   17   18 1   
    38   17   50 1   
    39   17   51 1   
    40   18   20 1   
    41   18   52 1   
    42   18   53 1   
    43   19   25 1   
    44   19   54 1   
    45   19   55 1   
    46   20   22 1   
    47   20   56 1   
    48   20   57 1   
    49   21   26 1   
    50   21   30 1   
    51   21   58 1   
    52   21   71 1   
    53   22   59 1   
    54   22   60 1   
    55   23   24 ar  
    56   23   27 ar  
    57   23   69 1   
    58   24   30 ar  
    59   24   72 1   
    60   25   26 1   
    61   25   61 1   
    62   25   62 1   
    63   26   63 1   
    64   26   64 1   
    65   27   28 ar  
    66   28   29 ar  
    67   28   34 ar  
    68   29   30 ar  
    69   29   31 ar  
    70   31   32 ar  
    71   31   65 1   
    72   32   33 ar  
    73   32   66 1   
    74   33   34 ar  
    75   33   67 1   
    76   34   68 1   
@<TRIPOS>SUBSTRUCTURE
     1 A8B         1 TEMP              0 ****  ****    0 ROOT
