@<TRIPOS>MOLECULE
A8B
   70    74     1     0     0
SMALL
bcc


@<TRIPOS>ATOM
      1 C1          8.0330    1.2120    0.1590 ca        1 A8B      0.409600
      2 C2          6.7470    1.2260   -0.4600 ca        1 A8B     -0.170300
      3 C3          6.2640    2.4450   -1.0050 ca        1 A8B     -0.120000
      4 C4          7.0230    3.5890   -0.9600 ca        1 A8B     -0.129000
      5 C5          8.3050    3.5740   -0.3640 ca        1 A8B     -0.126000
      6 C6          8.8030    2.4220    0.1850 ca        1 A8B     -0.164300
      7 N7          8.5590    0.0800    0.7360 nb        1 A8B     -0.680000
      8 C8          7.8510   -1.0450    0.7110 ca        1 A8B      0.448600
      9 C9          6.5480   -1.1470    0.1030 ca        1 A8B     -0.178600
     10 C10         5.9970   -0.0070   -0.4880 ca        1 A8B      0.132600
     11 N11         4.7520   -0.0860   -1.1700 nh        1 A8B     -0.717600
     12 C14         5.7930   -2.4290    0.1180 c3        1 A8B     -0.026100
     13 C15         6.6350   -3.6410    0.4530 c3        1 A8B     -0.079400
     14 C16         7.5140   -3.3600    1.6480 c3        1 A8B     -0.080400
     15 C17         8.4980   -2.2610    1.3240 c3        1 A8B     -0.132700
     16 C19        -1.4000    0.1650   -0.0110 c3        1 A8B     -0.079400
     17 C20        -0.2140    0.1020   -0.9500 c3        1 A8B     -0.079400
     18 C21         1.0910    0.0910   -0.1820 c3        1 A8B     -0.079400
     19 C22        -2.7050    0.1750   -0.7780 c3        1 A8B     -0.078400
     20 C24         2.2740    0.0260   -1.1230 c3        1 A8B     -0.085400
     21 N24        -6.3660    0.3500    0.1910 nh        1 A8B     -0.742600
     22 C25         3.5760    0.0180   -0.3230 c3        1 A8B      0.169800
     23 C26        -9.1370   -0.0220   -2.2610 ca        1 A8B      0.448200
     24 C27        -7.8220    0.1400   -1.7510 ca        1 A8B     -0.345300
     25 C29        -3.8890    0.2410    0.1630 c3        1 A8B     -0.091400
     26 C30        -5.1900    0.2480   -0.6400 c3        1 A8B      0.192800
     27 N32       -10.2180   -0.1990   -1.5230 nb        1 A8B     -0.694000
     28 C33       -10.0550   -0.2190   -0.1510 ca        1 A8B      0.421600
     29 C34        -8.7830   -0.0570    0.4810 ca        1 A8B     -0.178300
     30 C35        -7.6200    0.1270   -0.3690 ca        1 A8B      0.209600
     31 C39        -8.7160   -0.0750    1.8970 ca        1 A8B     -0.107000
     32 C40        -9.8450   -0.2580    2.6590 ca        1 A8B     -0.139000
     33 C41       -11.1020   -0.4300    2.0390 ca        1 A8B     -0.119000
     34 C42       -11.2130   -0.4100    0.6730 ca        1 A8B     -0.172300
     35 H3          5.2650    2.4910   -1.4620 ha        1 A8B      0.125000
     36 H4          6.6410    4.5290   -1.3840 ha        1 A8B      0.133000
     37 H5          8.8960    4.5020   -0.3450 ha        1 A8B      0.135000
     38 H6          9.8000    2.4050    0.6550 ha        1 A8B      0.150000
     39 HN11        4.7120    0.5770   -1.9220 hn        1 A8B      0.376800
     40 H14         4.9690   -2.3400    0.8800 hc        1 A8B      0.057700
     41 H14A        5.3040   -2.5970   -0.8810 hc        1 A8B      0.057700
     42 H15         5.9600   -4.5110    0.6660 hc        1 A8B      0.044700
     43 H15A        7.2720   -3.9190   -0.4280 hc        1 A8B      0.044700
     44 H16         6.8800   -3.0630    2.5240 hc        1 A8B      0.045700
     45 H16A        8.0770   -4.2850    1.9390 hc        1 A8B      0.045700
     46 H17         9.2590   -2.6460    0.5900 hc        1 A8B      0.065700
     47 H17A        9.0530   -1.9740    2.2580 hc        1 A8B      0.065700
     48 H19        -1.3780   -0.7160    0.6830 hc        1 A8B      0.042200
     49 H19A       -1.3290    1.0890    0.6230 hc        1 A8B      0.042200
     50 H20        -0.2850   -0.8210   -1.5840 hc        1 A8B      0.042200
     51 H20A       -0.2360    0.9830   -1.6430 hc        1 A8B      0.042200
     52 H21         1.1610    1.0140    0.4530 hc        1 A8B      0.042700
     53 H21A        1.1110   -0.7910    0.5120 hc        1 A8B      0.042700
     54 H22        -2.7260    1.0560   -1.4740 hc        1 A8B      0.044200
     55 H22A       -2.7760   -0.7490   -1.4110 hc        1 A8B      0.044200
     56 H24         2.2060   -0.8980   -1.7550 hc        1 A8B      0.048200
     57 H24A        2.2530    0.9080   -1.8170 hc        1 A8B      0.048200
     58 HN24       -6.2450    0.0190    1.1230 hn        1 A8B      0.410800
     59 H25         3.5750   -0.8700    0.3710 h1        1 A8B      0.038700
     60 H25A        3.6060    0.9470    0.3200 h1        1 A8B      0.038700
     61 H27        -6.9970    0.2790   -2.4610 ha        1 A8B      0.143000
     62 H29        -3.8670   -0.6390    0.8570 hc        1 A8B      0.048700
     63 H29A       -3.8190    1.1680    0.7920 hc        1 A8B      0.048700
     64 H30        -5.2250   -0.6840   -1.2790 h1        1 A8B      0.043700
     65 H30A       -5.1850    1.1350   -1.3370 h1        1 A8B      0.043700
     66 H39        -7.7560    0.0700    2.4150 ha        1 A8B      0.124000
     67 H40        -9.7810   -0.2700    3.7570 ha        1 A8B      0.133000
     68 H41       -11.9940   -0.5760    2.6680 ha        1 A8B      0.135000
     69 H42       -12.1920   -0.5390    0.1850 ha        1 A8B      0.151000
     70 H26        -9.2940   -0.0060   -3.3560 h4        1 A8B      0.018100
@<TRIPOS>BOND
     1    1    2 ar  
     2    1    6 ar  
     3    1    7 ar  
     4    2    3 ar  
     5    2   10 ar  
     6    3    4 ar  
     7    3   35 1   
     8    4    5 ar  
     9    4   36 1   
    10    5    6 ar  
    11    5   37 1   
    12    6   38 1   
    13    7    8 ar  
    14    8    9 ar  
    15    8   15 1   
    16    9   10 ar  
    17    9   12 1   
    18   10   11 1   
    19   11   22 1   
    20   11   39 1   
    21   12   13 1   
    22   12   40 1   
    23   12   41 1   
    24   13   14 1   
    25   13   42 1   
    26   13   43 1   
    27   14   15 1   
    28   14   44 1   
    29   14   45 1   
    30   15   46 1   
    31   15   47 1   
    32   16   17 1   
    33   16   19 1   
    34   16   48 1   
    35   16   49 1   
    36   17   18 1   
    37   17   50 1   
    38   17   51 1   
    39   18   20 1   
    40   18   52 1   
    41   18   53 1   
    42   19   25 1   
    43   19   54 1   
    44   19   55 1   
    45   20   22 1   
    46   20   56 1   
    47   20   57 1   
    48   21   26 1   
    49   21   30 1   
    50   21   58 1   
    51   22   59 1   
    52   22   60 1   
    53   23   24 ar  
    54   23   27 ar  
    55   23   70 1   
    56   24   30 ar  
    57   24   61 1   
    58   25   26 1   
    59   25   62 1   
    60   25   63 1   
    61   26   64 1   
    62   26   65 1   
    63   27   28 ar  
    64   28   29 ar  
    65   28   34 ar  
    66   29   30 ar  
    67   29   31 ar  
    68   31   32 ar  
    69   31   66 1   
    70   32   33 ar  
    71   32   67 1   
    72   33   34 ar  
    73   33   68 1   
    74   34   69 1   
@<TRIPOS>SUBSTRUCTURE
     1 A8B         1 TEMP              0 ****  ****    0 ROOT
