@<TRIPOS>MOLECULE
A8B
   70    64     1     0     0
SMALL
bcc


@<TRIPOS>ATOM
      1 C1         -5.9820   -1.0850    1.7310 c1        1 A8B      0.017000
      2 C2         -4.7440   -1.0930    1.0110 c1        1 A8B     -0.081000
      3 C3         -3.5830   -0.8270    1.6590 c1        1 A8B     -0.098000
      4 C4         -3.5940   -0.5360    3.0620 c1        1 A8B     -0.130000
      5 C5         -4.8250   -0.5270    3.7800 c1        1 A8B     -0.130000
      6 C6         -5.9930   -0.7950    3.1310 c1        1 A8B     -0.108000
      7 N7         -7.1870   -1.4300    1.0780 n1        1 A8B     -0.157000
      8 C8         -7.1750   -1.7770   -0.2520 c1        1 A8B     -0.067000
      9 C9         -5.8880   -1.7870   -1.0070 c1        1 A8B     -0.067000
     10 C10        -4.7200   -1.4500   -0.3660 c1        1 A8B      0.076000
     11 N11        -3.5980   -1.4920   -1.2240 n3        1 A8B     -0.280000
     12 C14        -5.9140   -2.3510   -2.4920 c3        1 A8B     -0.115000
     13 C15        -7.1780   -2.9000   -2.9520 c3        1 A8B     -0.155500
     14 C16        -8.3900   -2.2610   -2.4660 c3        1 A8B     -0.155500
     15 C17        -8.5160   -2.1070   -1.0630 c3        1 A8B     -0.115000
     16 C19         1.8080    1.6140   -2.0510 c3        1 A8B     -0.158000
     17 C20         0.9510    0.3490   -2.2890 c3        1 A8B     -0.157000
     18 C21        -0.5650    0.7040   -2.1300 c3        1 A8B     -0.159000
     19 C22         3.2820    1.2110   -1.9180 c3        1 A8B     -0.154000
     20 C24        -1.4030   -0.6200   -1.9420 c3        1 A8B     -0.163000
     21 N24         5.7210    2.2500    0.5160 n3        1 A8B     -0.285000
     22 C25        -2.8600   -0.2630   -1.5210 c3        1 A8B     -0.063000
     23 C26         5.6310   -0.2600    2.8650 c1        1 A8B     -0.020000
     24 C27         5.5340    0.5280    1.7250 c1        1 A8B     -0.275000
     25 C29         4.0210    2.2650   -1.2560 c3        1 A8B     -0.198000
     26 C30         5.4070    1.7220   -0.8100 c3        1 A8B     -0.050000
     27 N32         6.7120   -0.1140    3.7210 n1        1 A8B     -0.165000
     28 C33         7.7220    0.8400    3.4360 c1        1 A8B     -0.042000
     29 C34         7.6300    1.6220    2.3090 c1        1 A8B     -0.042000
     30 C35         6.5310    1.4750    1.4380 c1        1 A8B      0.119000
     31 C39         8.6680    2.5180    1.9890 c1        1 A8B     -0.107000
     32 C40         9.8070    2.6130    2.8280 c1        1 A8B     -0.130000
     33 C41         9.8990    1.8230    3.9650 c1        1 A8B     -0.130000
     34 C42         8.8750    0.9380    4.2820 c1        1 A8B     -0.107000
     35 H3         -2.7460   -0.8350    1.1730 ha        1 A8B      0.145000
     36 H4         -2.7660   -0.3450    3.5210 ha        1 A8B      0.133750
     37 H5         -4.8320   -0.3130    4.8040 ha        1 A8B      0.133750
     38 H6         -6.8640   -0.7890    3.6360 ha        1 A8B      0.149000
     39 HN11       -3.4190   -2.2400   -1.6840 hn        1 A8B      0.176000
     40 H14        -5.6570   -1.6110   -3.1070 hc        1 A8B      0.094250
     41 H14A       -5.2000   -3.0940   -2.5660 hc        1 A8B      0.094250
     42 H15        -7.2100   -3.8590   -2.6830 hc        1 A8B      0.085250
     43 H15A       -7.1890   -2.8550   -3.9760 hc        1 A8B      0.085250
     44 H16        -9.1590   -2.7920   -2.7820 hc        1 A8B      0.085250
     45 H16A       -8.4520   -1.3440   -2.8880 hc        1 A8B      0.085250
     46 H17        -8.8810   -2.9130   -0.7100 hc        1 A8B      0.094250
     47 H17A       -9.1590   -1.3760   -0.8950 hc        1 A8B      0.094250
     48 H19         1.7020    2.2290   -2.8110 hc        1 A8B      0.082000
     49 H19A        1.5110    2.0610   -1.2200 hc        1 A8B      0.082000
     50 H20         1.1190   -0.0000   -3.2160 hc        1 A8B      0.081000
     51 H20A        1.1830   -0.3010   -1.6680 hc        1 A8B      0.081000
     52 H21        -0.6740    1.2390   -1.3980 hc        1 A8B      0.081500
     53 H21A       -0.8850    1.1920   -2.9550 hc        1 A8B      0.081500
     54 H22         3.3480    0.4030   -1.4030 hc        1 A8B      0.081000
     55 H22A        3.6500    1.0650   -2.7890 hc        1 A8B      0.081000
     56 H24        -0.9810   -1.1820   -1.2340 hc        1 A8B      0.087500
     57 H24A       -1.4210   -1.1040   -2.7610 hc        1 A8B      0.087500
     58 HN24        5.4240    3.0670    0.7540 hn        1 A8B      0.200000
     59 H25        -3.2940    0.2050   -2.2380 h1        1 A8B      0.079500
     60 H25A       -2.8380    0.3190   -0.7070 h1        1 A8B      0.079500
     61 H26         4.9420   -0.9120    3.0620 ha        1 A8B      0.155000
     62 H27         4.7680    0.4230    1.1210 ha        1 A8B      0.143000
     63 H29         3.5320    2.5660   -0.4840 hc        1 A8B      0.088500
     64 H29A        4.1500    3.0250   -1.8820 hc        1 A8B      0.088500
     65 H30         5.3800    0.6950   -0.7770 h1        1 A8B      0.097500
     66 H30A        6.0910    2.0100   -1.4460 h1        1 A8B      0.097500
     67 H39         8.6050    3.0550    1.2160 ha        1 A8B      0.138500
     68 H40        10.5300    3.2390    2.6040 ha        1 A8B      0.133750
     69 H41        10.6670    1.8860    4.5290 ha        1 A8B      0.133750
     70 H42         8.9410    0.3880    5.0770 ha        1 A8B      0.138500
@<TRIPOS>BOND
     1    1    6 1   
     2    1    7 1   
     3    2    3 1   
     4    2   10 1   
     5    3   35 1   
     6    4    5 1   
     7    4   36 1   
     8    5   37 1   
     9    6   38 1   
    10    8    9 1   
    11    8   15 1   
    12    9   12 1   
    13   10   11 1   
    14   11   22 1   
    15   11   39 1   
    16   12   13 1   
    17   12   40 1   
    18   12   41 1   
    19   13   14 1   
    20   13   42 1   
    21   13   43 1   
    22   14   15 1   
    23   14   44 1   
    24   14   45 1   
    25   15   46 1   
    26   15   47 1   
    27   16   17 1   
    28   16   19 1   
    29   16   48 1   
    30   16   49 1   
    31   17   18 1   
    32   17   50 1   
    33   17   51 1   
    34   18   20 1   
    35   18   52 1   
    36   18   53 1   
    37   19   25 1   
    38   19   54 1   
    39   19   55 1   
    40   20   22 1   
    41   20   56 1   
    42   20   57 1   
    43   21   26 1   
    44   21   30 1   
    45   21   58 1   
    46   22   59 1   
    47   22   60 1   
    48   23   27 1   
    49   23   61 1   
    50   24   30 1   
    51   24   62 1   
    52   25   26 1   
    53   25   63 1   
    54   25   64 1   
    55   26   65 1   
    56   26   66 1   
    57   28   29 1   
    58   28   34 1   
    59   29   31 1   
    60   31   67 1   
    61   32   33 1   
    62   32   68 1   
    63   33   69 1   
    64   34   70 1   
@<TRIPOS>SUBSTRUCTURE
     1 A8B         1 TEMP              0 ****  ****    0 ROOT
