@<TRIPOS>MOLECULE
A8D
   31    32     1     0     0
SMALL
bcc


@<TRIPOS>ATOM
      1 CAA         0.0130    0.2280   -0.0710 c3        1 A8D      0.106700
      2 CAB         8.8840    1.3870    6.7270 c3        1 A8D     -0.466300
      3 OAC         7.7910   -0.1430    4.7080 o         1 A8D     -0.496100
      4 OAD         8.4910   -0.7820    7.9950 o         1 A8D     -0.557300
      5 OAE         7.2930    1.1840    8.6690 o         1 A8D     -0.557300
      6 CAF         1.2300   -0.1410    2.4380 ca        1 A8D     -0.128000
      7 CAG         1.8480   -0.3170    3.6690 ca        1 A8D     -0.106000
      8 CAH         3.3820    0.2430    1.3120 ca        1 A8D     -0.084000
      9 CAI         5.3960    0.0910    2.9410 cc        1 A8D      0.055800
     10 NAJ         6.4720   -0.0190    6.6020 n4        1 A8D     -0.609700
     11 NAK         4.1040   -0.2750    4.8560 na        1 A8D     -0.157400
     12 OAL         1.4320    0.3250    0.0280 os        1 A8D     -0.313900
     13 CAM         6.6290   -0.1190    5.1170 c         1 A8D      0.605300
     14 CAN         1.9830    0.1370    1.2750 ca        1 A8D      0.122100
     15 CAO         5.4300   -0.1550    4.3220 cd        1 A8D     -0.275300
     16 CAP         4.0130    0.0610    2.5390 ca        1 A8D     -0.115800
     17 CAQ         3.2420   -0.2130    3.7300 ca        1 A8D     -0.052200
     18 SAR         7.9790    0.4630    7.7160 s6        1 A8D      1.424900
     19 HAA        -0.1770    0.4160   -1.1600 h1        1 A8D      0.057367
     20 HAAA       -0.3330   -0.7930    0.2190 h1        1 A8D      0.057367
     21 HAAB       -0.4790    1.0100    0.5560 h1        1 A8D      0.057367
     22 HAB         9.4780    0.8150    5.9510 h1        1 A8D      0.184033
     23 HABA        9.6700    1.9790    7.2880 h1        1 A8D      0.184033
     24 HABB        8.3420    2.1730    6.1310 h1        1 A8D      0.184033
     25 HAF         0.1330   -0.2200    2.3760 ha        1 A8D      0.162000
     26 HAG         1.2500   -0.5270    4.5690 ha        1 A8D      0.158000
     27 HAH         3.9470    0.4650    0.3950 ha        1 A8D      0.175000
     28 HAI         6.2550    0.2930    2.2970 ha        1 A8D      0.189000
     29 HNAJ        5.7120    0.6360    6.8010 hn        1 A8D      0.464300
     30 HNAK        3.9360   -1.0220    5.4970 hn        1 A8D      0.264700
     31 HAJ2        6.1650   -0.9390    6.9240 hn        1 A8D      0.464300
@<TRIPOS>BOND
     1    1   12 1   
     2    1   19 1   
     3    1   20 1   
     4    1   21 1   
     5    2   18 1   
     6    2   22 1   
     7    2   23 1   
     8    2   24 1   
     9    3   13 2   
    10    4   18 2   
    11    5   18 2   
    12    6    7 ar  
    13    6   14 ar  
    14    6   25 1   
    15    7   17 ar  
    16    7   26 1   
    17    8   14 ar  
    18    8   16 ar  
    19    8   27 1   
    20    9   15 2   
    21    9   16 1   
    22    9   28 1   
    23   10   13 1   
    24   10   18 1   
    25   10   29 1   
    26   10   31 1   
    27   11   15 1   
    28   11   17 1   
    29   11   30 1   
    30   12   14 1   
    31   13   15 1   
    32   16   17 ar  
@<TRIPOS>SUBSTRUCTURE
     1 A8D         1 TEMP              0 ****  ****    0 ROOT
