@<TRIPOS>MOLECULE
A8D
   31    32     1     0     0
SMALL
bcc


@<TRIPOS>ATOM
      1 CAA         0.0180    0.2280   -0.0770 c3        1 A8D      0.106700
      2 CAB         8.8790    1.3940    6.7340 c3        1 A8D     -0.466300
      3 OAC         7.7910   -0.1360    4.7120 o         1 A8D     -0.496100
      4 OAD         8.4870   -0.7780    7.9990 o         1 A8D     -0.557300
      5 OAE         7.2850    1.1850    8.6750 o         1 A8D     -0.557300
      6 CAF         1.2330   -0.1420    2.4330 ca        1 A8D     -0.128000
      7 CAG         1.8490   -0.3190    3.6650 ca        1 A8D     -0.106000
      8 CAH         3.3850    0.2470    1.3100 ca        1 A8D     -0.084000
      9 CAI         5.3970    0.0970    2.9420 cc        1 A8D      0.055800
     10 NAJ         6.4690   -0.0160    6.6040 ny        1 A8D     -0.609700
     11 NAK         4.1030   -0.2750    4.8550 na        1 A8D     -0.157400
     12 OAL         1.4370    0.3270    0.0240 os        1 A8D     -0.313900
     13 CAM         6.6280   -0.1140    5.1190 c         1 A8D      0.605300
     14 CAN         1.9870    0.1380    1.2710 ca        1 A8D      0.122100
     15 CAO         5.4300   -0.1520    4.3230 cd        1 A8D     -0.275300
     16 CAP         4.0150    0.0640    2.5380 ca        1 A8D     -0.115800
     17 CAQ         3.2430   -0.2130    3.7270 ca        1 A8D     -0.052200
     18 SAR         7.9740    0.4660    7.7210 s6        1 A8D      1.424900
     19 HAA        -0.3260   -0.7950    0.2110 h1        1 A8D      0.057367
     20 HAAA       -0.4760    1.0080    0.5500 h1        1 A8D      0.057367
     21 HAAB       -0.1700    0.4170   -1.1660 h1        1 A8D      0.057367
     22 HAB         9.6620    1.9860    7.2980 h1        1 A8D      0.184033
     23 HABA        8.3350    2.1800    6.1400 h1        1 A8D      0.184033
     24 HABB        9.4740    0.8240    5.9580 h1        1 A8D      0.184033
     25 HAF         0.1360   -0.2230    2.3700 ha        1 A8D      0.162000
     26 HAG         1.2510   -0.5320    4.5630 ha        1 A8D      0.158000
     27 HAH         3.9510    0.4720    0.3940 ha        1 A8D      0.175000
     28 HAI         6.2570    0.3010    2.3000 ha        1 A8D      0.189000
     29 HNAJ        6.1630   -0.9370    6.9250 hn        1 A8D      0.464300
     30 HNAK        3.9360   -1.0220    5.4950 hn        1 A8D      0.264700
     31 HAJ2        5.7070    0.6370    6.8030 hn        1 A8D      0.464300
@<TRIPOS>BOND
     1    1   12 1   
     2    1   19 1   
     3    1   20 1   
     4    1   21 1   
     5    2   18 1   
     6    2   22 1   
     7    2   23 1   
     8    2   24 1   
     9    3   13 2   
    10    4   18 2   
    11    5   18 2   
    12    6    7 ar  
    13    6   14 ar  
    14    6   25 1   
    15    7   17 ar  
    16    7   26 1   
    17    8   14 ar  
    18    8   16 ar  
    19    8   27 1   
    20    9   15 2   
    21    9   16 1   
    22    9   28 1   
    23   10   13 1   
    24   10   18 1   
    25   10   29 1   
    26   10   31 1   
    27   11   15 1   
    28   11   17 1   
    29   11   30 1   
    30   12   14 1   
    31   13   15 1   
    32   16   17 ar  
@<TRIPOS>SUBSTRUCTURE
     1 A8D         1 TEMP              0 ****  ****    0 ROOT
