@<TRIPOS>MOLECULE
A8E
   16    15     1     0     0
SMALL
bcc


@<TRIPOS>ATOM
      1 O          -3.8370   -0.2720    0.1930 o         1 A8E     -0.839800
      2 C          -2.7660    0.3430   -0.0760 c         1 A8E      0.887600
      3 N          -1.5540   -1.6520    0.9290 n3        1 A8E     -0.888800
      4 OXT        -2.7060    1.4520   -0.6750 o         1 A8E     -0.839800
      5 BR          2.1470    0.6320    0.1600 br        1 A8E     -0.154700
      6 CA         -1.4170   -0.3080    0.3850 c3        1 A8E      0.020500
      7 CB         -0.4400   -0.2330   -0.7940 c3        1 A8E     -0.037200
      8 CG          0.9300   -0.6890   -0.4470 c2        1 A8E     -0.001500
      9 CD1         1.3270   -1.9590   -0.5430 c2        1 A8E     -0.223000
     10 HN         -2.3410   -1.6360    1.5580 hn        1 A8E      0.330800
     11 HNA        -1.8070   -2.2740    0.1800 hn        1 A8E      0.330800
     12 HA         -1.0170    0.3390    1.2180 h1        1 A8E      0.050700
     13 HB         -0.8290   -0.8640   -1.6390 hc        1 A8E      0.067700
     14 HBA        -0.4450    0.8340   -1.1500 hc        1 A8E      0.067700
     15 HD1         2.3320   -2.3080   -0.2790 ha        1 A8E      0.114000
     16 HD1A        0.6320   -2.7410   -0.8780 ha        1 A8E      0.114000
@<TRIPOS>BOND
     1    1    2 1   
     2    2    4 1   
     3    2    6 1   
     4    3    6 1   
     5    3   10 1   
     6    3   11 1   
     7    5    8 1   
     8    6    7 1   
     9    6   12 1   
    10    7    8 1   
    11    7   13 1   
    12    7   14 1   
    13    8    9 2   
    14    9   15 1   
    15    9   16 1   
@<TRIPOS>SUBSTRUCTURE
     1 A8E         1 TEMP              0 ****  ****    0 ROOT
