@<TRIPOS>MOLECULE
A8M
   52    54     1     0     0
SMALL
bcc


@<TRIPOS>ATOM
      1 N1          1.0620   -3.4590    2.8080 n4        1 A8M     -0.871600
      2 C2          1.9230   -2.4200    2.1900 c3        1 A8M      0.112800
      3 C4          2.6650   -1.5580    3.2110 c3        1 A8M     -0.136400
      4 C5          3.3770   -0.4220    2.4740 c3        1 A8M      0.109800
      5 N2          4.3740    0.3050    3.3280 n4        1 A8M     -0.679400
      6 C6          4.2640    1.7780    3.1370 c3        1 A8M      0.081100
      7 C5'         5.7820   -0.1600    3.0680 c3        1 A8M      0.084800
      8 C4'         6.6630   -0.0410    4.3250 c3        1 A8M      0.066100
      9 O4'         6.0780   -0.8220    5.3610 os        1 A8M     -0.444600
     10 C1'         6.8710   -2.0000    5.6490 c3        1 A8M      0.232800
     11 N5          6.1560   -3.1720    5.1940 na        1 A8M     -0.275000
     12 C11         4.9570   -3.5390    5.8550 ca        1 A8M      0.449800
     13 N4          4.5200   -3.2660    7.1150 nb        1 A8M     -0.661000
     14 C10         3.3240   -3.8340    7.4020 ca        1 A8M      0.685900
     15 N3          2.5180   -4.5950    6.6030 nb        1 A8M     -0.719000
     16 C9          2.9500   -4.8650    5.3410 ca        1 A8M      0.637200
     17 N7          2.1340   -5.5660    4.4110 nh        1 A8M     -0.938500
     18 C12         4.2020   -4.3440    4.9020 ca        1 A8M     -0.224200
     19 N6          4.9220   -4.4680    3.7070 nc        1 A8M     -0.567100
     20 C7          6.0640   -3.7740    3.8900 cd        1 A8M      0.426800
     21 C2'         8.2820   -1.7440    5.0430 c3        1 A8M      0.092100
     22 O2'         9.0840   -1.3230    6.1260 oh        1 A8M     -0.576800
     23 C3'         8.1000   -0.5550    4.0630 c3        1 A8M      0.115100
     24 O3'         9.0350    0.4680    4.2510 oh        1 A8M     -0.558800
     25 C8          7.1760   -3.7710    2.8990 c3        1 A8M     -0.133400
     26 HN1         0.5430   -3.9480    2.0710 hn        1 A8M      0.477467
     27 HN1A        0.3900   -3.0330    3.4520 hn        1 A8M      0.477467
     28 H2          2.6690   -2.9490    1.5260 hx        1 A8M      0.115700
     29 H2A         1.2680   -1.7650    1.5420 hx        1 A8M      0.115700
     30 H4          1.9460   -1.1250    3.9580 hc        1 A8M      0.094700
     31 H4A         3.4010   -2.1940    3.7770 hc        1 A8M      0.094700
     32 H5          2.6040    0.3230    2.1190 hx        1 A8M      0.113700
     33 H5A         3.9110   -0.8200    1.5620 hx        1 A8M      0.113700
     34 H6          4.4210    2.0350    2.0550 hx        1 A8M      0.115033
     35 H6A         3.2480    2.1250    3.4670 hx        1 A8M      0.115033
     36 H6B         5.0510    2.2870    3.7590 hx        1 A8M      0.115033
     37 H5'         6.2240    0.4590    2.2360 hx        1 A8M      0.111200
     38 H5'A        5.7420   -1.2420    2.7530 hx        1 A8M      0.111200
     39 H4'         6.6920    1.0200    4.7050 h1        1 A8M      0.115700
     40 H1'         6.9260   -2.0390    6.7850 h2        1 A8M      0.175700
     41 H10         2.9410   -3.6660    8.4380 h5        1 A8M      0.098100
     42 HN7         2.6910   -6.2020    3.8640 hn        1 A8M      0.425800
     43 HN7A        1.3730   -6.0570    4.8510 hn        1 A8M      0.425800
     44 H2'         8.7140   -2.6420    4.5330 h1        1 A8M      0.095700
     45 HO2'        9.9760   -1.6770    5.9950 ho        1 A8M      0.452000
     46 H3'         8.2390   -0.8720    2.9930 h1        1 A8M      0.096700
     47 HO3'        9.1740    0.6030    5.2040 ho        1 A8M      0.447000
     48 H8          6.8630   -4.2980    1.9600 hc        1 A8M      0.081033
     49 H8A         8.0540   -4.3260    3.3230 hc        1 A8M      0.081033
     50 H8B         7.4830   -2.7300    2.6390 hc        1 A8M      0.081033
     51 H13         1.6290   -4.1820    3.3490 hn        1 A8M      0.477467
     52 H21         4.1700    0.0960    4.3220 hn        1 A8M      0.468800
@<TRIPOS>BOND
     1    1    2 1   
     2    1   26 1   
     3    1   27 1   
     4    1   51 1   
     5    2    3 1   
     6    2   28 1   
     7    2   29 1   
     8    3    4 1   
     9    3   30 1   
    10    3   31 1   
    11    4    5 1   
    12    4   32 1   
    13    4   33 1   
    14    5    6 1   
    15    5    7 1   
    16    5   52 1   
    17    6   34 1   
    18    6   35 1   
    19    6   36 1   
    20    7    8 1   
    21    7   37 1   
    22    7   38 1   
    23    8    9 1   
    24    8   23 1   
    25    8   39 1   
    26    9   10 1   
    27   10   11 1   
    28   10   21 1   
    29   10   40 1   
    30   11   12 1   
    31   11   20 1   
    32   12   13 ar  
    33   12   18 ar  
    34   13   14 ar  
    35   14   15 ar  
    36   14   41 1   
    37   15   16 ar  
    38   16   17 1   
    39   16   18 ar  
    40   17   42 1   
    41   17   43 1   
    42   18   19 1   
    43   19   20 2   
    44   20   25 1   
    45   21   22 1   
    46   21   23 1   
    47   21   44 1   
    48   22   45 1   
    49   23   24 1   
    50   23   46 1   
    51   24   47 1   
    52   25   48 1   
    53   25   49 1   
    54   25   50 1   
@<TRIPOS>SUBSTRUCTURE
     1 A8M         1 TEMP              0 ****  ****    0 ROOT
