@<TRIPOS>MOLECULE
A8M
   53    55     1     0     0
SMALL
bcc


@<TRIPOS>ATOM
      1 N1         -0.2900    0.7760   -0.0790 n4        1 A8M     -0.837600
      2 C2          1.1620    0.4780    0.0700 c3        1 A8M      0.102800
      3 C4          1.6080    0.3110    1.5240 c3        1 A8M     -0.132400
      4 C5          3.1240    0.1030    1.5360 c3        1 A8M      0.107800
      5 N2          3.7230   -0.0760    2.9010 n4        1 A8M     -0.679400
      6 C6          3.6980    1.1980    3.6710 c3        1 A8M      0.073100
      7 C5'         5.1290   -0.6030    2.7510 c3        1 A8M      0.114800
      8 C4'         5.8760   -0.7860    4.0690 c3        1 A8M      0.071100
      9 O4'         5.3390   -1.9100    4.7710 os        1 A8M     -0.448600
     10 C1'         6.3920   -2.4460    5.6330 c3        1 A8M      0.241800
     11 N5          6.2310   -3.8640    5.7990 na        1 A8M     -0.278000
     12 C11         5.9260   -4.4740    7.0350 ca        1 A8M      0.463800
     13 N4          5.6270   -3.9510    8.2480 nb        1 A8M     -0.630000
     14 C10         5.4150   -4.8830    9.2150 ca        1 A8M      0.692900
     15 N3          5.4730   -6.2430    9.1080 nb        1 A8M     -0.657000
     16 C9          5.7740   -6.7550    7.8900 ca        1 A8M      0.541200
     17 N7          5.8800   -8.2170    7.7330 n4        1 A8M     -0.819300
     18 C12         6.0040   -5.9220    6.7750 ca        1 A8M     -0.131200
     19 N6          6.3160   -6.1540    5.4330 nc        1 A8M     -0.562100
     20 C7          6.4490   -4.9310    4.8720 cd        1 A8M      0.501800
     21 C2'         7.7610   -1.9930    5.0090 c3        1 A8M      0.083100
     22 O2'         8.3980   -1.2110    5.9920 oh        1 A8M     -0.584800
     23 C3'         7.3790   -1.0810    3.8190 c3        1 A8M      0.118100
     24 O3'         8.1050    0.1070    3.7210 oh        1 A8M     -0.565800
     25 C8          6.8010   -4.6990    3.4450 c3        1 A8M     -0.134400
     26 HN1        -0.5340    1.6540    0.3970 hn        1 A8M      0.480800
     27 HN1A       -0.8620    0.0190    0.3160 hn        1 A8M      0.480800
     28 H2          1.7330    1.3270   -0.4140 hx        1 A8M      0.129200
     29 H2A         1.3760   -0.4700   -0.5100 hx        1 A8M      0.129200
     30 H4          1.0910   -0.5710    1.9900 hc        1 A8M      0.092700
     31 H4A         1.3300    1.2250    2.1170 hc        1 A8M      0.092700
     32 H5          3.6360    0.9910    1.0600 hx        1 A8M      0.117700
     33 H5A         3.3720   -0.8190    0.9300 hx        1 A8M      0.117700
     34 H6          3.9250    0.9850    4.7530 hx        1 A8M      0.115700
     35 H6A         2.6800    1.6650    3.6060 hx        1 A8M      0.115700
     36 H6B         4.4660    1.9090    3.2600 hx        1 A8M      0.115700
     37 H5'         5.0620   -1.5940    2.2170 hx        1 A8M      0.121700
     38 H5'A        5.7160    0.1330    2.1250 hx        1 A8M      0.121700
     39 H4'         5.7930    0.1230    4.7290 h1        1 A8M      0.091700
     40 H1'         6.2580   -1.9440    6.6440 h2        1 A8M      0.147700
     41 H10         5.1670   -4.4940   10.2340 h5        1 A8M      0.117100
     42 HN7         5.4230   -8.4950    6.8540 hn        1 A8M      0.487467
     43 HN7A        6.8760   -8.4750    7.6940 hn        1 A8M      0.487467
     44 H2'         8.3910   -2.8540    4.6680 h1        1 A8M      0.095700
     45 HO2'        9.3190   -1.4990    6.0690 ho        1 A8M      0.457000
     46 H3'         7.5320   -1.6130    2.8400 h1        1 A8M      0.098700
     47 HO3'        8.3710    0.4000    4.6100 ho        1 A8M      0.451000
     48 H8          7.9050   -4.8400    3.3070 hc        1 A8M      0.084700
     49 H8A         6.2720   -5.4440    2.7950 hc        1 A8M      0.084700
     50 H8B         6.5170   -3.6660    3.1260 hc        1 A8M      0.084700
     51 H13        -0.5190    0.8720   -1.0800 hn        1 A8M      0.480800
     52 H21         3.1800   -0.7790    3.4220 hn        1 A8M      0.461800
     53 H73         5.4370   -8.7090    8.5250 hn        1 A8M      0.487467
@<TRIPOS>BOND
     1    1    2 1   
     2    1   26 1   
     3    1   27 1   
     4    1   51 1   
     5    2    3 1   
     6    2   28 1   
     7    2   29 1   
     8    3    4 1   
     9    3   30 1   
    10    3   31 1   
    11    4    5 1   
    12    4   32 1   
    13    4   33 1   
    14    5    6 1   
    15    5    7 1   
    16    5   52 1   
    17    6   34 1   
    18    6   35 1   
    19    6   36 1   
    20    7    8 1   
    21    7   37 1   
    22    7   38 1   
    23    8    9 1   
    24    8   23 1   
    25    8   39 1   
    26    9   10 1   
    27   10   11 1   
    28   10   21 1   
    29   10   40 1   
    30   11   12 1   
    31   11   20 1   
    32   12   13 ar  
    33   12   18 ar  
    34   13   14 ar  
    35   14   15 ar  
    36   14   41 1   
    37   15   16 ar  
    38   16   17 1   
    39   16   18 ar  
    40   17   42 1   
    41   17   43 1   
    42   17   53 1   
    43   18   19 1   
    44   19   20 2   
    45   20   25 1   
    46   21   22 1   
    47   21   23 1   
    48   21   44 1   
    49   22   45 1   
    50   23   24 1   
    51   23   46 1   
    52   24   47 1   
    53   25   48 1   
    54   25   49 1   
    55   25   50 1   
@<TRIPOS>SUBSTRUCTURE
     1 A8M         1 TEMP              0 ****  ****    0 ROOT
