@<TRIPOS>MOLECULE
A8M
   50    52     1     0     0
SMALL
bcc


@<TRIPOS>ATOM
      1 N1         -6.7540    3.3810   -0.1410 n3        1 A8M     -0.915800
      2 C2         -6.2970    2.0770    0.2740 c3        1 A8M      0.158800
      3 C4         -4.9980    1.6470   -0.4070 c3        1 A8M     -0.084400
      4 C5         -4.5720    0.2900    0.1530 c3        1 A8M      0.172800
      5 N2         -3.2820   -0.1650   -0.3560 n3        1 A8M     -0.731600
      6 C6         -3.3340   -0.6280   -1.7220 c3        1 A8M      0.151100
      7 C5'        -2.6470   -1.0850    0.5720 c3        1 A8M      0.172800
      8 C4'        -1.4580   -1.8880    0.0300 c3        1 A8M      0.106100
      9 O4'        -0.4880   -1.0230   -0.5710 os        1 A8M     -0.405600
     10 C1'         0.8500   -1.3690   -0.1610 c3        1 A8M      0.258800
     11 N5          1.6030   -0.1790    0.1320 na        1 A8M     -0.276000
     12 C11         2.8410    0.1400   -0.4550 ca        1 A8M      0.467800
     13 N4          3.6220   -0.5600   -1.3310 nb        1 A8M     -0.732000
     14 C10         4.7630    0.0960   -1.6490 ca        1 A8M      0.683900
     15 N3          5.2260    1.3050   -1.2340 nb        1 A8M     -0.793000
     16 C9          4.4500    2.0090   -0.3420 ca        1 A8M      0.753200
     17 N7          4.8740    3.2110    0.1690 nh        1 A8M     -0.954500
     18 C12         3.1990    1.4450    0.0800 ca        1 A8M     -0.223200
     19 N6          2.1950    1.9070    0.9390 nc        1 A8M     -0.549100
     20 C7          1.2530    0.9430    0.9490 cd        1 A8M      0.427800
     21 C2'         0.7290   -2.3640    1.0370 c3        1 A8M      0.068100
     22 O2'         1.4460   -3.5230    0.6570 oh        1 A8M     -0.584800
     23 C3'        -0.7760   -2.6800    1.1640 c3        1 A8M      0.082100
     24 O3'        -1.0210   -4.0640    1.0730 oh        1 A8M     -0.586800
     25 C8         -0.0350    1.0090    1.6880 c3        1 A8M     -0.118400
     26 HN1        -6.7520    3.4670   -1.1370 hn        1 A8M      0.349800
     27 HN1A       -7.6770    3.5530    0.2040 hn        1 A8M      0.349800
     28 H2         -6.1290    2.1240    1.3880 h1        1 A8M      0.022700
     29 H2A        -7.0710    1.2700    0.0920 h1        1 A8M      0.022700
     30 H4         -5.1530    1.5820   -1.5150 hc        1 A8M      0.057200
     31 H4A        -4.1960    2.4080   -0.2230 hc        1 A8M      0.057200
     32 H5         -4.4970    0.3870    1.2740 h1        1 A8M      0.029200
     33 H5A        -5.3870   -0.4630   -0.0640 h1        1 A8M      0.029200
     34 H6         -3.8730    0.1310   -2.3480 h1        1 A8M      0.037367
     35 H6A        -2.2840   -0.7230   -2.1080 h1        1 A8M      0.037367
     36 H6B        -3.8570   -1.6170   -1.8370 h1        1 A8M      0.037367
     37 H5'        -2.2940   -0.4610    1.4430 h1        1 A8M      0.039200
     38 H5'A       -3.3760   -1.8550    0.9690 h1        1 A8M      0.039200
     39 H4'        -1.8030   -2.5920   -0.7800 h1        1 A8M      0.067700
     40 H1'         1.3370   -1.8910   -1.0420 h2        1 A8M      0.126700
     41 H10         5.4290   -0.4320   -2.3660 h5        1 A8M      0.051100
     42 HN7         5.6770    3.6520   -0.2050 hn        1 A8M      0.443800
     43 HN7A        4.2280    3.7490    0.6920 hn        1 A8M      0.443800
     44 H2'         1.1380   -1.9430    1.9920 h1        1 A8M      0.073700
     45 HO2'        1.4190   -4.1260    1.4130 ho        1 A8M      0.421000
     46 H3'        -1.1730   -2.3890    2.1740 h1        1 A8M      0.095700
     47 HO3'       -0.6340   -4.3790    0.2430 ho        1 A8M      0.419000
     48 H8         -0.1900    0.0710    2.2780 hc        1 A8M      0.067367
     49 H8A        -0.0420    1.8830    2.3850 hc        1 A8M      0.067367
     50 H8B        -0.8740    1.1160    0.9520 hc        1 A8M      0.067367
@<TRIPOS>BOND
     1    1    2 1   
     2    1   26 1   
     3    1   27 1   
     4    2    3 1   
     5    2   28 1   
     6    2   29 1   
     7    3    4 1   
     8    3   30 1   
     9    3   31 1   
    10    4    5 1   
    11    4   32 1   
    12    4   33 1   
    13    5    6 1   
    14    5    7 1   
    15    6   34 1   
    16    6   35 1   
    17    6   36 1   
    18    7    8 1   
    19    7   37 1   
    20    7   38 1   
    21    8    9 1   
    22    8   23 1   
    23    8   39 1   
    24    9   10 1   
    25   10   11 1   
    26   10   21 1   
    27   10   40 1   
    28   11   12 1   
    29   11   20 1   
    30   12   13 ar  
    31   12   18 ar  
    32   13   14 ar  
    33   14   15 ar  
    34   14   41 1   
    35   15   16 ar  
    36   16   17 1   
    37   16   18 ar  
    38   17   42 1   
    39   17   43 1   
    40   18   19 1   
    41   19   20 2   
    42   20   25 1   
    43   21   22 1   
    44   21   23 1   
    45   21   44 1   
    46   22   45 1   
    47   23   24 1   
    48   23   46 1   
    49   24   47 1   
    50   25   48 1   
    51   25   49 1   
    52   25   50 1   
@<TRIPOS>SUBSTRUCTURE
     1 A8M         1 TEMP              0 ****  ****    0 ROOT
