@<TRIPOS>MOLECULE
A8M
   52    54     1     0     0
SMALL
bcc


@<TRIPOS>ATOM
      1 N1          0.8420   -3.0380    3.4760 nz        1 A8M     -0.830600
      2 C2          1.9590   -2.4490    2.6890 c3        1 A8M      0.098800
      3 C4          2.4990   -1.1390    3.2650 c3        1 A8M     -0.129400
      4 C5          3.9000   -0.9160    2.6930 c3        1 A8M      0.109800
      5 N2          4.5460    0.3660    3.1260 nx        1 A8M     -0.674400
      6 C6          4.0490    1.5230    2.3380 c3        1 A8M      0.077100
      7 C5'         6.0490    0.2560    3.0370 c3        1 A8M      0.093800
      8 C4'         6.7100    0.0190    4.4060 c3        1 A8M      0.072100
      9 O4'         5.9420   -0.9130    5.1580 os        1 A8M     -0.471600
     10 C1'         6.7370   -2.0470    5.5960 c3        1 A8M      0.232800
     11 N5          6.1080   -3.2540    5.1160 na        1 A8M     -0.266000
     12 C11         4.8970   -3.6790    5.7210 ca        1 A8M      0.453800
     13 N4          4.4120   -3.4610    6.9740 nb        1 A8M     -0.674000
     14 C10         3.2130   -4.0560    7.1930 ca        1 A8M      0.684900
     15 N3          2.4480   -4.7920    6.3370 nb        1 A8M     -0.755000
     16 C9          2.9360   -5.0290    5.0820 ca        1 A8M      0.652200
     17 N7          2.1580   -5.7020    4.1210 nv        1 A8M     -0.949500
     18 C12         4.1970   -4.4680    4.7150 ca        1 A8M     -0.235200
     19 N6          4.9590   -4.5230    3.5400 nc        1 A8M     -0.554100
     20 C7          6.0670   -3.7960    3.7810 cd        1 A8M      0.416800
     21 C2'         8.2070   -1.7780    5.1610 c3        1 A8M      0.093100
     22 O2'         8.9000   -1.4500    6.3460 oh        1 A8M     -0.579800
     23 C3'         8.1540   -0.5210    4.2550 c3        1 A8M      0.117100
     24 O3'         9.0910    0.4590    4.5980 oh        1 A8M     -0.558800
     25 C8          7.2020   -3.6840    2.8250 c3        1 A8M     -0.130400
     26 HN1         0.5600   -3.9320    3.0460 hn        1 A8M      0.476800
     27 HN1A        1.1400   -3.2300    4.4420 hn        1 A8M      0.476800
     28 H2          2.7800   -3.2300    2.6510 hx        1 A8M      0.131200
     29 H2A         1.5840   -2.2760    1.6370 hx        1 A8M      0.131200
     30 H4          1.8130   -0.2930    2.9910 hc        1 A8M      0.089700
     31 H4A         2.5550   -1.1840    4.3880 hc        1 A8M      0.089700
     32 H5          4.5670   -1.7620    3.0460 hx        1 A8M      0.117200
     33 H5A         3.8650   -0.9230    1.5660 hx        1 A8M      0.117200
     34 H6          4.4770    2.4730    2.7640 hx        1 A8M      0.112033
     35 H6A         2.9290    1.5630    2.3970 hx        1 A8M      0.112033
     36 H6B         4.3680    1.4200    1.2660 hx        1 A8M      0.112033
     37 H5'         6.4620    1.2220    2.6210 hx        1 A8M      0.117700
     38 H5'A        6.3050   -0.5730    2.3180 hx        1 A8M      0.117700
     39 H4'         6.7160    0.9800    4.9970 h1        1 A8M      0.112700
     40 H1'         6.6670   -2.0410    6.7330 h2        1 A8M      0.168700
     41 H10         2.7920   -3.9340    8.2200 h5        1 A8M      0.094100
     42 HN7         1.4810   -6.3300    4.5170 hn        1 A8M      0.427300
     43 HN7A        2.7270   -6.1670    3.4370 hn        1 A8M      0.427300
     44 H2'         8.6740   -2.6470    4.6310 h1        1 A8M      0.097700
     45 HO2'        9.7700   -1.8740    6.3160 ho        1 A8M      0.453000
     46 H3'         8.3910   -0.7790    3.1860 h1        1 A8M      0.096700
     47 HO3'        9.1550    0.5170    5.5670 ho        1 A8M      0.447000
     48 H8          8.0860   -4.2480    3.2260 hc        1 A8M      0.079033
     49 H8A         7.4840   -2.6150    2.6660 hc        1 A8M      0.079033
     50 H8B         6.9290   -4.1380    1.8370 hc        1 A8M      0.079033
     51 H13         0.0340   -2.4070    3.4980 hn        1 A8M      0.476800
     52 H21         4.3100    0.5180    4.1210 hn        1 A8M      0.466800
@<TRIPOS>BOND
     1    1    2 1   
     2    1   26 1   
     3    1   27 1   
     4    1   51 1   
     5    2    3 1   
     6    2   28 1   
     7    2   29 1   
     8    3    4 1   
     9    3   30 1   
    10    3   31 1   
    11    4    5 1   
    12    4   32 1   
    13    4   33 1   
    14    5    6 1   
    15    5    7 1   
    16    5   52 1   
    17    6   34 1   
    18    6   35 1   
    19    6   36 1   
    20    7    8 1   
    21    7   37 1   
    22    7   38 1   
    23    8    9 1   
    24    8   23 1   
    25    8   39 1   
    26    9   10 1   
    27   10   11 1   
    28   10   21 1   
    29   10   40 1   
    30   11   12 1   
    31   11   20 1   
    32   12   13 ar  
    33   12   18 ar  
    34   13   14 ar  
    35   14   15 ar  
    36   14   41 1   
    37   15   16 ar  
    38   16   17 1   
    39   16   18 ar  
    40   17   42 1   
    41   17   43 1   
    42   18   19 1   
    43   19   20 2   
    44   20   25 1   
    45   21   22 1   
    46   21   23 1   
    47   21   44 1   
    48   22   45 1   
    49   23   24 1   
    50   23   46 1   
    51   24   47 1   
    52   25   48 1   
    53   25   49 1   
    54   25   50 1   
@<TRIPOS>SUBSTRUCTURE
     1 A8M         1 TEMP              0 ****  ****    0 ROOT
