@<TRIPOS>MOLECULE
A8M
   50    47     1     0     0
SMALL
bcc


@<TRIPOS>ATOM
      1 N1         -4.1550    3.4300   -4.5810 n3        1 A8M     -0.348000
      2 C2         -3.0140    2.5890   -4.5580 c3        1 A8M     -0.077000
      3 C4         -2.3160    2.6970   -3.1720 c3        1 A8M     -0.163000
      4 C5         -1.0520    1.8400   -3.1750 c3        1 A8M     -0.071000
      5 N2         -0.3110    2.0650   -1.9670 n3        1 A8M     -0.264000
      6 C6          0.4070    3.2370   -2.0820 c3        1 A8M     -0.118000
      7 C5'         0.6120    0.9570   -1.7580 c3        1 A8M     -0.066000
      8 C4'         1.0720    0.9290   -0.2650 c3        1 A8M     -0.010000
      9 O4'         0.3380    0.1060    0.4110 os        1 A8M     -0.280000
     10 C1'         1.2920   -0.5420    1.5100 c3        1 A8M      0.140000
     11 N5          0.7770   -1.7710    1.9230 n3        1 A8M     -0.199000
     12 C11         0.6030   -1.8490    3.2850 c1        1 A8M      0.055000
     13 N4          1.0360   -1.0500    4.3180 n1        1 A8M     -0.240000
     14 C10         0.7160   -1.3690    5.6100 c1        1 A8M      0.026000
     15 N3         -0.0290   -2.4750    5.8740 n1        1 A8M     -0.269000
     16 C9         -0.4550   -3.2600    4.8620 c1        1 A8M      0.241000
     17 N7         -1.3840   -4.1390    5.4780 n2        1 A8M     -0.356000
     18 C12        -0.1300   -2.9370    3.5440 c1        1 A8M     -0.228000
     19 N6         -0.4170   -3.5420    2.3620 n1        1 A8M     -0.129000
     20 C7          0.1510   -2.8100    1.3670 c1        1 A8M      0.033000
     21 C2'         2.4820   -0.7090    0.9220 c3        1 A8M     -0.027000
     22 O2'         3.5740   -0.5110    1.9030 oh        1 A8M     -0.326000
     23 C3'         2.5370    0.3630   -0.1580 c3        1 A8M      0.015000
     24 O3'         3.3890    1.3410    0.2020 oh        1 A8M     -0.301000
     25 C8         -0.2760   -3.8150    0.3270 c2        1 A8M     -0.151000
     26 HN1        -4.8880    2.9510   -4.9020 hn        1 A8M      0.144500
     27 HN1A       -3.9930    4.1570   -5.1360 hn        1 A8M      0.144500
     28 H2         -2.3730    2.8740   -5.2810 h1        1 A8M      0.063000
     29 H2A        -3.2900    1.6600   -4.7140 h1        1 A8M      0.063000
     30 H4         -2.0740    3.6490   -2.9940 hc        1 A8M      0.093000
     31 H4A        -2.9220    2.3790   -2.4770 hc        1 A8M      0.093000
     32 H5         -1.3050    0.8720   -3.2350 h1        1 A8M      0.076500
     33 H5A        -0.5060    2.0770   -3.9350 h1        1 A8M      0.076500
     34 H6         -0.1960    4.0020   -1.9840 h1        1 A8M      0.072667
     35 H6A         0.8570    3.2710   -3.0030 h1        1 A8M      0.072667
     36 H6B         1.0860    3.2690   -1.3880 h1        1 A8M      0.072667
     37 H5'         1.3790    1.0670   -2.3260 h1        1 A8M      0.084500
     38 H5'A        0.1690    0.1230   -1.9760 h1        1 A8M      0.084500
     39 H4'         1.0220    1.8550    0.1370 h1        1 A8M      0.131000
     40 H1'         1.3760    0.0360    2.2460 h2        1 A8M      0.130000
     41 H10         1.0250   -0.8000    6.3460 ha        1 A8M      0.188000
     42 HN7        -2.0320   -4.5970    4.9470 hn        1 A8M      0.244500
     43 HN7A       -1.3820   -4.2430    6.3890 hn        1 A8M      0.244500
     44 H2'         2.5420   -1.6000    0.5190 h1        1 A8M      0.126000
     45 HO2'        4.2760   -1.0060    1.6700 ho        1 A8M      0.238000
     46 H3'         2.8150   -0.0330   -1.0230 h1        1 A8M      0.130000
     47 HO3'        4.1020    1.3540   -0.3730 ho        1 A8M      0.224000
     48 H8         -0.1110   -3.4530   -0.5620 ha        1 A8M      0.105667
     49 H8A         0.2300   -4.6290    0.4420 ha        1 A8M      0.105667
     50 H8B        -1.2550   -4.0110    0.4330 ha        1 A8M      0.105667
@<TRIPOS>BOND
     1    1    2 1   
     2    1   26 1   
     3    1   27 1   
     4    2    3 1   
     5    2   28 1   
     6    2   29 1   
     7    3    4 1   
     8    3   30 1   
     9    3   31 1   
    10    4    5 1   
    11    4   32 1   
    12    4   33 1   
    13    5    6 1   
    14    5    7 1   
    15    6   34 1   
    16    6   35 1   
    17    6   36 1   
    18    7    8 1   
    19    7   37 1   
    20    7   38 1   
    21    8    9 1   
    22    8   23 1   
    23    8   39 1   
    24    9   10 1   
    25   10   11 1   
    26   10   21 1   
    27   10   40 1   
    28   11   12 1   
    29   11   20 1   
    30   12   18 1   
    31   13   14 1   
    32   14   41 1   
    33   15   16 1   
    34   16   18 1   
    35   17   42 1   
    36   17   43 1   
    37   19   20 1   
    38   21   22 1   
    39   21   23 1   
    40   21   44 1   
    41   22   45 1   
    42   23   24 1   
    43   23   46 1   
    44   24   47 1   
    45   25   48 1   
    46   25   49 1   
    47   25   50 1   
@<TRIPOS>SUBSTRUCTURE
     1 A8M         1 TEMP              0 ****  ****    0 ROOT
