@<TRIPOS>MOLECULE
A8N
   57    59     1     0     0
SMALL
bcc


@<TRIPOS>ATOM
      1 C1          0.2540   -0.6880    0.2580 ca        1 A8N     -0.039000
      2 C2          1.5960   -1.0690    0.4530 ca        1 A8N     -0.132000
      3 C3          2.1570   -1.0250    1.7100 ca        1 A8N     -0.083000
      4 C4          1.4070   -0.6090    2.8370 ca        1 A8N     -0.137000
      5 C5          0.0910   -0.1140    2.6080 ca        1 A8N      0.071700
      6 C6         -0.4910   -0.2050    1.3120 ca        1 A8N     -0.164000
      7 C7          1.9270   -0.5980    4.1950 ca        1 A8N      0.333600
      8 C8          1.2470    0.2440    5.1490 ca        1 A8N     -0.235300
      9 C9         -0.0310    0.7300    4.8580 ca        1 A8N      0.126400
     10 N10        -0.6160    0.4790    3.6450 na        1 A8N     -0.181100
     11 N11         2.9780   -1.3430    4.6080 nh        1 A8N     -0.707600
     12 C13         1.8920    0.5370    6.4620 c3        1 A8N     -0.030100
     13 C14         1.2080    1.6350    7.2500 c3        1 A8N     -0.083400
     14 C15        -0.2890    1.4390    7.2520 c3        1 A8N     -0.080400
     15 C16        -0.8330    1.5380    5.8440 c3        1 A8N     -0.067100
     16 C17         3.5650   -2.5020    3.9790 c3        1 A8N      0.190800
     17 C18         5.0210   -2.3110    3.5470 c3        1 A8N     -0.102400
     18 C19         5.5870   -3.6300    3.0600 c3        1 A8N     -0.080400
     19 C20         7.0530   -3.4910    2.7040 c3        1 A8N     -0.079400
     20 C21         7.6390   -4.8220    2.2770 c3        1 A8N     -0.079400
     21 C22         9.1140   -4.6850    1.9570 c3        1 A8N     -0.078400
     22 C23         9.7040   -6.0260    1.5590 c3        1 A8N     -0.110400
     23 C24        11.1880   -5.8530    1.2590 c3        1 A8N      0.098800
     24 N25        11.8540   -7.1310    0.8680 n4        1 A8N     -0.838600
     25 H1         -0.1930   -0.7570   -0.7490 ha        1 A8N      0.172000
     26 H2          2.1950   -1.3930   -0.4140 ha        1 A8N      0.163000
     27 H3          3.2250   -1.2750    1.8250 ha        1 A8N      0.150000
     28 H6         -1.5300    0.1270    1.1490 ha        1 A8N      0.167000
     29 H101       -1.5530    0.7880    3.4730 hn        1 A8N      0.327700
     30 H11         3.3360   -1.1560    5.5250 hn        1 A8N      0.458800
     31 H131        1.8940   -0.4030    7.0820 hc        1 A8N      0.058700
     32 H132        2.9610    0.8460    6.2950 hc        1 A8N      0.058700
     33 H141        1.4610    2.6360    6.8110 hc        1 A8N      0.069200
     34 H142        1.5950    1.6250    8.3030 hc        1 A8N      0.069200
     35 H151       -0.5450    0.4420    7.6960 hc        1 A8N      0.073700
     36 H152       -0.7800    2.2250    7.8860 hc        1 A8N      0.073700
     37 H161       -0.8050    2.6130    5.5050 hc        1 A8N      0.090200
     38 H162       -1.9080    1.2090    5.8400 hc        1 A8N      0.090200
     39 H171        2.9390   -2.8400    3.1060 h1        1 A8N      0.077200
     40 H172        3.5310   -3.3330    4.7480 h1        1 A8N      0.077200
     41 H181        5.6310   -1.9400    4.4130 hc        1 A8N      0.058700
     42 H182        5.0960   -1.5410    2.7360 hc        1 A8N      0.058700
     43 H191        5.4680   -4.4100    3.8580 hc        1 A8N      0.051200
     44 H192        5.0120   -3.9810    2.1630 hc        1 A8N      0.051200
     45 H201        7.1720   -2.7430    1.8770 hc        1 A8N      0.051200
     46 H202        7.6190   -3.1000    3.5910 hc        1 A8N      0.051200
     47 H211        7.4990   -5.5750    3.0970 hc        1 A8N      0.052200
     48 H212        7.0900   -5.2030    1.3760 hc        1 A8N      0.052200
     49 H221        9.2510   -3.9480    1.1220 hc        1 A8N      0.059700
     50 H222        9.6570   -4.2840    2.8540 hc        1 A8N      0.059700
     51 H231        9.1640   -6.4190    0.6570 hc        1 A8N      0.071700
     52 H232        9.5560   -6.7610    2.3950 hc        1 A8N      0.071700
     53 H241       11.3280   -5.1220    0.4100 hx        1 A8N      0.115700
     54 H242       11.7230   -5.4540    2.1700 hx        1 A8N      0.115700
     55 H251       11.7710   -7.8190    1.6250 hn        1 A8N      0.464467
     56 H252       11.4120   -7.5180    0.0270 hn        1 A8N      0.464467
     57 H253       12.8480   -6.9650    0.6760 hn        1 A8N      0.464467
@<TRIPOS>BOND
     1    1    2 ar  
     2    1    6 ar  
     3    1   25 1   
     4    2    3 ar  
     5    2   26 1   
     6    3    4 ar  
     7    3   27 1   
     8    4    5 ar  
     9    4    7 ar  
    10    5    6 ar  
    11    5   10 2   
    12    6   28 1   
    13    7    8 ar  
    14    7   11 1   
    15    8    9 ar  
    16    8   12 1   
    17    9   10 1   
    18    9   15 1   
    19   10   29 1   
    20   11   16 1   
    21   11   30 1   
    22   12   13 1   
    23   12   31 1   
    24   12   32 1   
    25   13   14 1   
    26   13   33 1   
    27   13   34 1   
    28   14   15 1   
    29   14   35 1   
    30   14   36 1   
    31   15   37 1   
    32   15   38 1   
    33   16   17 1   
    34   16   39 1   
    35   16   40 1   
    36   17   18 1   
    37   17   41 1   
    38   17   42 1   
    39   18   19 1   
    40   18   43 1   
    41   18   44 1   
    42   19   20 1   
    43   19   45 1   
    44   19   46 1   
    45   20   21 1   
    46   20   47 1   
    47   20   48 1   
    48   21   22 1   
    49   21   49 1   
    50   21   50 1   
    51   22   23 1   
    52   22   51 1   
    53   22   52 1   
    54   23   24 1   
    55   23   53 1   
    56   23   54 1   
    57   24   55 1   
    58   24   56 1   
    59   24   57 1   
@<TRIPOS>SUBSTRUCTURE
     1 A8N         1 TEMP              0 ****  ****    0 ROOT
