@<TRIPOS>MOLECULE
A8N
   57    59     1     0     0
SMALL
bcc


@<TRIPOS>ATOM
      1 C1          0.3430   -0.6200    0.2430 ca        1 A8N     -0.039000
      2 C2          1.6740   -1.0360    0.4450 ca        1 A8N     -0.131000
      3 C3          2.2250   -1.0200    1.7080 ca        1 A8N     -0.083000
      4 C4          1.4760   -0.5980    2.8330 ca        1 A8N     -0.137000
      5 C5          0.1740   -0.0700    2.5980 ca        1 A8N      0.070700
      6 C6         -0.3990   -0.1310    1.2960 ca        1 A8N     -0.164000
      7 C7          1.9840   -0.6140    4.1940 ca        1 A8N      0.333600
      8 C8          1.3150    0.2300    5.1540 ca        1 A8N     -0.234300
      9 C9          0.0510    0.7500    4.8570 ca        1 A8N      0.127400
     10 N10        -0.5280    0.5290    3.6360 na        1 A8N     -0.180100
     11 N11         3.0170   -1.3860    4.6050 nu        1 A8N     -0.709600
     12 C13         1.9530    0.4900    6.4760 c3        1 A8N     -0.030100
     13 C14         1.2870    1.5920    7.2740 c3        1 A8N     -0.083400
     14 C15        -0.2140    1.4310    7.2580 c3        1 A8N     -0.080400
     15 C16        -0.7410    1.5620    5.8460 c3        1 A8N     -0.067100
     16 C17         3.5720   -2.5580    3.9710 c3        1 A8N      0.191800
     17 C18         5.0360   -2.4110    3.5510 c3        1 A8N     -0.102400
     18 C19         5.5470   -3.7330    3.0160 c3        1 A8N     -0.080400
     19 C20         7.0220   -3.6530    2.6790 c3        1 A8N     -0.079400
     20 C21         7.5250   -4.9800    2.1470 c3        1 A8N     -0.080400
     21 C22         9.0040   -4.9190    1.8160 c3        1 A8N     -0.090400
     22 C23         9.4740   -6.2390    1.2430 c3        1 A8N     -0.119400
     23 C24        10.9020   -6.1920    0.7240 c3        1 A8N      0.102800
     24 N25        11.9230   -6.1060    1.8120 nz        1 A8N     -0.839600
     25 H1         -0.0960   -0.6680   -0.7690 ha        1 A8N      0.173000
     26 H2          2.2730   -1.3650   -0.4200 ha        1 A8N      0.164000
     27 H3          3.2850   -1.2970    1.8290 ha        1 A8N      0.150000
     28 H6         -1.4280    0.2280    1.1280 ha        1 A8N      0.167000
     29 H101       -1.4560    0.8620    3.4590 hn        1 A8N      0.327700
     30 H11         3.3720   -1.2180    5.5270 hn        1 A8N      0.457800
     31 H131        1.9290   -0.4580    7.0820 hc        1 A8N      0.058200
     32 H132        3.0310    0.7770    6.3240 hc        1 A8N      0.058200
     33 H141        1.6630    1.5570    8.3300 hc        1 A8N      0.069200
     34 H142        1.5670    2.5930    6.8520 hc        1 A8N      0.069200
     35 H151       -0.4980    0.4330    7.6840 hc        1 A8N      0.073700
     36 H152       -0.6930    2.2180    7.8990 hc        1 A8N      0.073700
     37 H161       -0.6840    2.6410    5.5230 hc        1 A8N      0.090200
     38 H162       -1.8240    1.2600    5.8270 hc        1 A8N      0.090200
     39 H171        3.5060   -3.3950    4.7330 h1        1 A8N      0.077200
     40 H172        2.9410   -2.8690    3.0920 h1        1 A8N      0.077200
     41 H181        5.1460   -1.6150    2.7680 hc        1 A8N      0.058200
     42 H182        5.6570   -2.0970    4.4310 hc        1 A8N      0.058200
     43 H191        5.3820   -4.5400    3.7800 hc        1 A8N      0.052200
     44 H192        4.9660   -4.0200    2.0990 hc        1 A8N      0.052200
     45 H201        7.6030   -3.3680    3.5950 hc        1 A8N      0.049200
     46 H202        7.1910   -2.8500    1.9130 hc        1 A8N      0.049200
     47 H211        6.9470   -5.2570    1.2250 hc        1 A8N      0.056700
     48 H212        7.3440   -5.7840    2.9080 hc        1 A8N      0.056700
     49 H221        9.1860   -4.0950    1.0750 hc        1 A8N      0.044700
     50 H222        9.5800   -4.6690    2.7450 hc        1 A8N      0.044700
     51 H231        9.3490   -7.0570    2.0020 hc        1 A8N      0.092200
     52 H232        8.8260   -6.5140    0.3620 hc        1 A8N      0.092200
     53 H241       11.0430   -5.2930    0.0550 hx        1 A8N      0.116200
     54 H242       11.1240   -7.1270    0.1290 hx        1 A8N      0.116200
     55 H251       12.8650   -6.0610    1.4080 hn        1 A8N      0.463133
     56 H252       11.7600   -5.2680    2.3800 hn        1 A8N      0.463133
     57 H253       11.8600   -6.9290    2.4210 hn        1 A8N      0.463133
@<TRIPOS>BOND
     1    1    2 ar  
     2    1    6 ar  
     3    1   25 1   
     4    2    3 ar  
     5    2   26 1   
     6    3    4 ar  
     7    3   27 1   
     8    4    5 ar  
     9    4    7 ar  
    10    5    6 ar  
    11    5   10 2   
    12    6   28 1   
    13    7    8 ar  
    14    7   11 1   
    15    8    9 ar  
    16    8   12 1   
    17    9   10 1   
    18    9   15 1   
    19   10   29 1   
    20   11   16 1   
    21   11   30 1   
    22   12   13 1   
    23   12   31 1   
    24   12   32 1   
    25   13   14 1   
    26   13   33 1   
    27   13   34 1   
    28   14   15 1   
    29   14   35 1   
    30   14   36 1   
    31   15   37 1   
    32   15   38 1   
    33   16   17 1   
    34   16   39 1   
    35   16   40 1   
    36   17   18 1   
    37   17   41 1   
    38   17   42 1   
    39   18   19 1   
    40   18   43 1   
    41   18   44 1   
    42   19   20 1   
    43   19   45 1   
    44   19   46 1   
    45   20   21 1   
    46   20   47 1   
    47   20   48 1   
    48   21   22 1   
    49   21   49 1   
    50   21   50 1   
    51   22   23 1   
    52   22   51 1   
    53   22   52 1   
    54   23   24 1   
    55   23   53 1   
    56   23   54 1   
    57   24   55 1   
    58   24   56 1   
    59   24   57 1   
@<TRIPOS>SUBSTRUCTURE
     1 A8N         1 TEMP              0 ****  ****    0 ROOT
