@<TRIPOS>MOLECULE
A8N
   57    59     1     0     0
SMALL
bcc


@<TRIPOS>ATOM
      1 C1          6.3640   69.5970   68.1240 ca        1 A8N     -0.039000
      2 C2          5.2710   68.8370   68.5860 ca        1 A8N     -0.131000
      3 C3          4.3900   68.2690   67.6920 ca        1 A8N     -0.083000
      4 C4          4.5590   68.4200   66.2940 ca        1 A8N     -0.137000
      5 C5          5.5960   69.2870   65.8440 ca        1 A8N      0.070700
      6 C6          6.5250   69.8340   66.7760 ca        1 A8N     -0.164000
      7 C7          3.6970   67.7970   65.3030 ca        1 A8N      0.333600
      8 C8          3.6980   68.3710   63.9800 ca        1 A8N     -0.234300
      9 C9          4.7230   69.2430   63.6030 ca        1 A8N      0.127400
     10 N10         5.6880   69.6180   64.4990 na        1 A8N     -0.180100
     11 N11         2.9280   66.7100   65.5490 nh        1 A8N     -0.709600
     12 C13         2.6350   67.9810   63.0090 c3        1 A8N     -0.030100
     13 C14         2.5920   68.8450   61.7660 c3        1 A8N     -0.083400
     14 C15         3.9810   69.0560   61.2130 c3        1 A8N     -0.080400
     15 C16         4.8340   69.8060   62.2110 c3        1 A8N     -0.067100
     16 C17         3.0450   65.7500   66.6200 c3        1 A8N      0.191800
     17 C18         1.8270   65.6920   67.5460 c3        1 A8N     -0.102400
     18 C19         2.0050   64.5710   68.5500 c3        1 A8N     -0.080400
     19 C20         0.7760   64.4190   69.4230 c3        1 A8N     -0.079400
     20 C21         0.9610   63.2960   70.4230 c3        1 A8N     -0.080400
     21 C22        -0.2670   63.1240   71.2960 c3        1 A8N     -0.090400
     22 C23        -0.0410   62.0290   72.3180 c3        1 A8N     -0.119400
     23 C24        -1.1630   61.9230   73.3380 c3        1 A8N      0.102800
     24 N25        -2.4280   61.3660   72.7700 n4        1 A8N     -0.839600
     25 H1          7.0800   70.0210   68.8500 ha        1 A8N      0.173000
     26 H2          5.1230   68.7110   69.6710 ha        1 A8N      0.164000
     27 H3          3.5130   67.7270   68.0820 ha        1 A8N      0.150000
     28 H6          7.3600   70.4600   66.4200 ha        1 A8N      0.167000
     29 H101        6.4460   70.2000   64.1980 hn        1 A8N      0.327700
     30 H11         2.2720   66.4470   64.8380 hn        1 A8N      0.457800
     31 H131        1.6280   68.0420   63.5070 hc        1 A8N      0.058200
     32 H132        2.8040   66.9120   62.6980 hc        1 A8N      0.058200
     33 H141        2.1220   69.8360   62.0040 hc        1 A8N      0.069200
     34 H142        1.9470   68.3460   60.9950 hc        1 A8N      0.069200
     35 H151        4.4520   68.0680   60.9680 hc        1 A8N      0.073700
     36 H152        3.9310   69.6490   60.2610 hc        1 A8N      0.073700
     37 H161        5.9050   69.7940   61.8650 hc        1 A8N      0.090200
     38 H162        4.5040   70.8840   62.2530 hc        1 A8N      0.090200
     39 H171        3.9820   65.9330   67.2170 h1        1 A8N      0.077200
     40 H172        3.1630   64.7360   66.1290 h1        1 A8N      0.077200
     41 H181        0.8970   65.5120   66.9430 hc        1 A8N      0.058200
     42 H182        1.6900   66.6660   68.0830 hc        1 A8N      0.058200
     43 H191        2.9010   64.7790   69.1930 hc        1 A8N      0.052200
     44 H192        2.2010   63.6060   68.0100 hc        1 A8N      0.052200
     45 H201       -0.1190   64.2090   68.7790 hc        1 A8N      0.049200
     46 H202        0.5780   65.3810   69.9660 hc        1 A8N      0.049200
     47 H211        1.8520   63.5150   71.0700 hc        1 A8N      0.056700
     48 H212        1.1720   62.3380   69.8790 hc        1 A8N      0.056700
     49 H221       -1.1490   62.8780   70.6480 hc        1 A8N      0.044700
     50 H222       -0.4920   64.0920   71.8170 hc        1 A8N      0.044700
     51 H231        0.8970   62.2530   72.9010 hc        1 A8N      0.092200
     52 H232        0.1260   61.0460   71.8020 hc        1 A8N      0.092200
     53 H241       -1.4010   62.9430   73.7610 hx        1 A8N      0.116200
     54 H242       -0.8470   61.2440   74.1850 hx        1 A8N      0.116200
     55 H251       -2.7530   61.9550   71.9960 hn        1 A8N      0.463133
     56 H252       -3.1530   61.3310   73.4940 hn        1 A8N      0.463133
     57 H253       -2.2670   60.4180   72.4130 hn        1 A8N      0.463133
@<TRIPOS>BOND
     1    1    2 ar  
     2    1    6 ar  
     3    1   25 1   
     4    2    3 ar  
     5    2   26 1   
     6    3    4 ar  
     7    3   27 1   
     8    4    5 ar  
     9    4    7 ar  
    10    5    6 ar  
    11    5   10 2   
    12    6   28 1   
    13    7    8 ar  
    14    7   11 1   
    15    8    9 ar  
    16    8   12 1   
    17    9   10 1   
    18    9   15 1   
    19   10   29 1   
    20   11   16 1   
    21   11   30 1   
    22   12   13 1   
    23   12   31 1   
    24   12   32 1   
    25   13   14 1   
    26   13   33 1   
    27   13   34 1   
    28   14   15 1   
    29   14   35 1   
    30   14   36 1   
    31   15   37 1   
    32   15   38 1   
    33   16   17 1   
    34   16   39 1   
    35   16   40 1   
    36   17   18 1   
    37   17   41 1   
    38   17   42 1   
    39   18   19 1   
    40   18   43 1   
    41   18   44 1   
    42   19   20 1   
    43   19   45 1   
    44   19   46 1   
    45   20   21 1   
    46   20   47 1   
    47   20   48 1   
    48   21   22 1   
    49   21   49 1   
    50   21   50 1   
    51   22   23 1   
    52   22   51 1   
    53   22   52 1   
    54   23   24 1   
    55   23   53 1   
    56   23   54 1   
    57   24   55 1   
    58   24   56 1   
    59   24   57 1   
@<TRIPOS>SUBSTRUCTURE
     1 A8N         1 TEMP              0 ****  ****    0 ROOT
