@<TRIPOS>MOLECULE
A8N
   58    60     1     0     0
SMALL
bcc


@<TRIPOS>ATOM
      1 C1         -0.7270    0.2270    0.2340 ca        1 A8N     -0.028000
      2 C2          0.6520    0.0330   -0.0050 ca        1 A8N     -0.046000
      3 C3          1.5450   -0.0430    1.0440 ca        1 A8N     -0.139000
      4 C4          1.1080    0.0800    2.3870 ca        1 A8N     -0.061000
      5 C5         -0.2930    0.2620    2.6190 ca        1 A8N      0.020700
      6 C6         -1.2010    0.3370    1.5240 ca        1 A8N     -0.120000
      7 C7          1.9730    0.0490    3.5340 ca        1 A8N      0.070600
      8 C8          1.4720    0.1840    4.8290 ca        1 A8N     -0.067300
      9 C9          0.0450    0.3240    5.0030 ca        1 A8N      0.131400
     10 N10        -0.7630    0.3650    3.9250 na        1 A8N     -0.070100
     11 N11         3.4180   -0.0960    3.3170 n4        1 A8N     -0.655400
     12 C13         2.3680    0.1690    6.0220 c3        1 A8N     -0.064100
     13 C14         1.7030    0.5310    7.3350 c3        1 A8N     -0.090400
     14 C15         0.3350   -0.0900    7.4520 c3        1 A8N     -0.088400
     15 C16        -0.5720    0.4450    6.3670 c3        1 A8N     -0.085100
     16 C17         3.8520   -1.5350    3.1860 c3        1 A8N      0.109800
     17 C18         5.3570   -1.6550    2.9650 c3        1 A8N     -0.113400
     18 C19         5.7410   -3.1210    2.8520 c3        1 A8N     -0.076400
     19 C20         7.2360   -3.2610    2.6360 c3        1 A8N     -0.080400
     20 C21         7.6410   -4.7190    2.5260 c3        1 A8N     -0.078400
     21 C22         9.1370   -4.8470    2.3120 c3        1 A8N     -0.078400
     22 C23         9.5490   -6.3040    2.2030 c3        1 A8N     -0.109400
     23 C24        11.0570   -6.3860    1.9900 c3        1 A8N      0.099800
     24 N25        11.5570   -7.7880    1.8710 n4        1 A8N     -0.838600
     25 H1         -1.4260    0.2900   -0.6230 ha        1 A8N      0.207000
     26 H2          1.0090   -0.0570   -1.0500 ha        1 A8N      0.197000
     27 H3          2.6070   -0.2070    0.8040 ha        1 A8N      0.146000
     28 H6         -2.2830    0.4840    1.7040 ha        1 A8N      0.194000
     29 H101       -1.7630    0.4780    4.0560 hn        1 A8N      0.359700
     30 H11         3.6790    0.4140    2.4590 hn        1 A8N      0.472800
     31 H131        3.2150    0.8980    5.8750 hc        1 A8N      0.076700
     32 H132        2.8070   -0.8660    6.1110 hc        1 A8N      0.076700
     33 H141        1.6250    1.6480    7.4300 hc        1 A8N      0.092700
     34 H142        2.3550    0.1760    8.1800 hc        1 A8N      0.092700
     35 H151        0.4010   -1.2090    7.3920 hc        1 A8N      0.095200
     36 H152       -0.1150    0.1610    8.4530 hc        1 A8N      0.095200
     37 H161       -1.5630   -0.0920    6.4110 hc        1 A8N      0.121700
     38 H162       -0.7800    1.5410    6.5540 hc        1 A8N      0.121700
     39 H171        3.5510   -2.0690    4.1330 hx        1 A8N      0.114200
     40 H172        3.2880   -1.9830    2.3190 hx        1 A8N      0.114200
     41 H181        5.9190   -1.1910    3.8190 hc        1 A8N      0.075200
     42 H182        5.6590   -1.1200    2.0240 hc        1 A8N      0.075200
     43 H191        5.1900   -3.5940    1.9960 hc        1 A8N      0.061700
     44 H192        5.4440   -3.6640    3.7880 hc        1 A8N      0.061700
     45 H201        7.5330   -2.7180    1.6990 hc        1 A8N      0.056700
     46 H202        7.7860   -2.7830    3.4890 hc        1 A8N      0.056700
     47 H211        7.0950   -5.1990    1.6710 hc        1 A8N      0.055700
     48 H212        7.3460   -5.2640    3.4610 hc        1 A8N      0.055700
     49 H221        9.6810   -4.3640    3.1670 hc        1 A8N      0.061700
     50 H222        9.4300   -4.3010    1.3750 hc        1 A8N      0.061700
     51 H231        9.0060   -6.7830    1.3450 hc        1 A8N      0.072700
     52 H232        9.2560   -6.8460    3.1410 hc        1 A8N      0.072700
     53 H241       11.5960   -5.9050    2.8580 hx        1 A8N      0.116700
     54 H242       11.3430   -5.8420    1.0420 hx        1 A8N      0.116700
     55 H251       11.1120   -8.2600    1.0760 hn        1 A8N      0.468133
     56 H252       12.5740   -7.7850    1.7290 hn        1 A8N      0.468133
     57 H253       11.3420   -8.3170    2.7240 hn        1 A8N      0.468133
     58 H112        3.9320    0.3340    4.1020 hn        1 A8N      0.472800
@<TRIPOS>BOND
     1    1    2 ar  
     2    1    6 ar  
     3    1   25 1   
     4    2    3 ar  
     5    2   26 1   
     6    3    4 ar  
     7    3   27 1   
     8    4    5 ar  
     9    4    7 ar  
    10    5    6 ar  
    11    5   10 2   
    12    6   28 1   
    13    7    8 ar  
    14    7   11 1   
    15    8    9 ar  
    16    8   12 1   
    17    9   10 1   
    18    9   15 1   
    19   10   29 1   
    20   11   16 1   
    21   11   30 1   
    22   11   58 1   
    23   12   13 1   
    24   12   31 1   
    25   12   32 1   
    26   13   14 1   
    27   13   33 1   
    28   13   34 1   
    29   14   15 1   
    30   14   35 1   
    31   14   36 1   
    32   15   37 1   
    33   15   38 1   
    34   16   17 1   
    35   16   39 1   
    36   16   40 1   
    37   17   18 1   
    38   17   41 1   
    39   17   42 1   
    40   18   19 1   
    41   18   43 1   
    42   18   44 1   
    43   19   20 1   
    44   19   45 1   
    45   19   46 1   
    46   20   21 1   
    47   20   47 1   
    48   20   48 1   
    49   21   22 1   
    50   21   49 1   
    51   21   50 1   
    52   22   23 1   
    53   22   51 1   
    54   22   52 1   
    55   23   24 1   
    56   23   53 1   
    57   23   54 1   
    58   24   55 1   
    59   24   56 1   
    60   24   57 1   
@<TRIPOS>SUBSTRUCTURE
     1 A8N         1 TEMP              0 ****  ****    0 ROOT
