@<TRIPOS>MOLECULE
A8N
   57    55     1     0     0
SMALL
bcc


@<TRIPOS>ATOM
      1 C1         -5.0760    1.4270   -3.6380 c1        1 A8N     -0.102000
      2 C2         -3.6650    1.3350   -3.6720 c1        1 A8N     -0.102000
      3 C3         -2.9460    1.3060   -2.4900 c1        1 A8N     -0.102000
      4 C4         -3.5980    1.3660   -1.2960 c1        1 A8N     -0.145000
      5 C5         -5.0210    1.4590   -1.2700 c1        1 A8N      0.093000
      6 C6         -5.7300    1.4870   -2.4400 c1        1 A8N     -0.102000
      7 C7         -2.8770    1.2950   -0.0910 c2        1 A8N      0.256000
      8 C8         -3.5370    1.3150    1.0930 c1        1 A8N     -0.221000
      9 C9         -5.0400    1.4130    1.1150 c1        1 A8N      0.158000
     10 N10        -5.7160    1.4800   -0.0290 n3        1 A8N     -0.181000
     11 N11        -1.4030    1.3820   -0.0530 n3        1 A8N     -0.261000
     12 C13        -2.7870    1.1540    2.4820 c3        1 A8N     -0.110000
     13 C14        -3.6010    1.2700    3.6780 c3        1 A8N     -0.165000
     14 C15        -4.9510    0.7360    3.6110 c3        1 A8N     -0.158000
     15 C16        -5.7750    1.1920    2.5180 c3        1 A8N     -0.154000
     16 C17        -0.6330    0.2060   -0.0130 c3        1 A8N     -0.041000
     17 C18         0.8930    0.5740   -0.1310 c3        1 A8N     -0.180000
     18 C19         1.6840   -0.6540   -0.2750 c3        1 A8N     -0.156000
     19 C20         3.2040   -0.3210   -0.0960 c3        1 A8N     -0.158000
     20 C21         4.0200   -1.6090   -0.1470 c3        1 A8N     -0.158000
     21 C22         5.3890   -1.3190   -0.7970 c3        1 A8N     -0.158000
     22 C23         6.4470   -2.2980   -0.2370 c3        1 A8N     -0.189000
     23 C24         7.5340   -2.5760   -1.3370 c3        1 A8N     -0.138000
     24 N25         8.7530   -3.1100   -0.7090 n4        1 A8N     -0.066000
     25 H1         -5.5910    1.4500   -4.4850 ha        1 A8N      0.163250
     26 H2         -3.2010    1.2930   -4.5250 ha        1 A8N      0.163250
     27 H3         -2.0000    1.2450   -2.5120 ha        1 A8N      0.163250
     28 H6         -6.7360    1.5520   -2.4170 ha        1 A8N      0.163250
     29 H101       -6.6950    1.5330   -0.0170 hn        1 A8N      0.277000
     30 H11        -0.9760    2.2250   -0.1450 hn        1 A8N      0.248000
     31 H131       -2.0980    1.8260    2.5260 hc        1 A8N      0.096500
     32 H132       -2.3440    0.2500    2.4940 hc        1 A8N      0.096500
     33 H141       -3.1240    0.8040    4.4210 hc        1 A8N      0.106500
     34 H142       -3.6660    2.2270    3.9080 hc        1 A8N      0.106500
     35 H151       -4.8830   -0.2920    3.5510 hc        1 A8N      0.110500
     36 H152       -5.4210    0.9670    4.4730 hc        1 A8N      0.110500
     37 H161       -6.4560    0.5720    2.3920 hc        1 A8N      0.128500
     38 H162       -6.1850    2.0470    2.7840 hc        1 A8N      0.128500
     39 H171       -0.7890   -0.2480    0.8150 h1        1 A8N      0.111000
     40 H172       -0.8930   -0.3890   -0.7740 h1        1 A8N      0.111000
     41 H181        1.1580    1.0230    0.6280 hc        1 A8N      0.100000
     42 H182        1.0210    1.1020   -0.8560 hc        1 A8N      0.100000
     43 H191        1.5370   -1.0270   -1.1440 hc        1 A8N      0.092000
     44 H192        1.4120   -1.2920    0.3980 hc        1 A8N      0.092000
     45 H201        3.3420    0.1150    0.7580 hc        1 A8N      0.091000
     46 H202        3.4900    0.2700   -0.8100 hc        1 A8N      0.091000
     47 H211        3.5590   -2.2530   -0.6600 hc        1 A8N      0.092000
     48 H212        4.1540   -1.9520    0.7700 hc        1 A8N      0.092000
     49 H221        5.3190   -1.4340   -1.7840 hc        1 A8N      0.099000
     50 H222        5.6570   -0.3960   -0.5940 hc        1 A8N      0.099000
     51 H231        6.8690   -1.9070    0.5380 hc        1 A8N      0.111000
     52 H232        6.0110   -3.1440    0.0180 hc        1 A8N      0.111000
     53 H241        7.2000   -3.2040   -1.9590 hx        1 A8N      0.155000
     54 H242        7.7450   -1.7480   -1.7980 hx        1 A8N      0.155000
     55 H251        9.0320   -2.5580   -0.0930 hn        1 A8N      0.260000
     56 H252        8.5620   -3.9560   -0.3130 hn        1 A8N      0.260000
     57 H253        9.4220   -3.2130   -1.3640 hn        1 A8N      0.260000
@<TRIPOS>BOND
     1    1    6 1   
     2    1   25 1   
     3    2    3 1   
     4    2   26 1   
     5    3   27 1   
     6    4    5 1   
     7    4    7 1   
     8    5   10 1   
     9    6   28 1   
    10    7    8 1   
    11    7   11 1   
    12    8   12 1   
    13    9   10 1   
    14    9   15 1   
    15   10   29 1   
    16   11   16 1   
    17   11   30 1   
    18   12   13 1   
    19   12   31 1   
    20   12   32 1   
    21   13   14 1   
    22   13   33 1   
    23   13   34 1   
    24   14   15 1   
    25   14   35 1   
    26   14   36 1   
    27   15   37 1   
    28   15   38 1   
    29   16   17 1   
    30   16   39 1   
    31   16   40 1   
    32   17   18 1   
    33   17   41 1   
    34   17   42 1   
    35   18   19 1   
    36   18   43 1   
    37   18   44 1   
    38   19   20 1   
    39   19   45 1   
    40   19   46 1   
    41   20   21 1   
    42   20   47 1   
    43   20   48 1   
    44   21   22 1   
    45   21   49 1   
    46   21   50 1   
    47   22   23 1   
    48   22   51 1   
    49   22   52 1   
    50   23   24 1   
    51   23   53 1   
    52   23   54 1   
    53   24   55 1   
    54   24   56 1   
    55   24   57 1   
@<TRIPOS>SUBSTRUCTURE
     1 A8N         1 TEMP              0 ****  ****    0 ROOT
