@<TRIPOS>MOLECULE
A8S
   38    38     1     0     0
SMALL
bcc


@<TRIPOS>ATOM
      1 C1         -0.5180   -0.8310    1.3240 c         1 A8S      0.898800
      2 C2          0.4570    0.2580    0.9550 ce        1 A8S     -0.170200
      3 C3          1.7070    0.3910    1.4160 cf        1 A8S     -0.147200
      4 C4          2.3610   -0.5820    2.2870 cf        1 A8S     -0.060000
      5 C5          2.3290   -0.7080    3.6150 c2        1 A8S     -0.214200
      6 C6          2.5740    1.5270    1.0050 c3        1 A8S     -0.040900
      7 C7          1.5950    0.1020    4.6460 c3        1 A8S      0.246200
      8 O7          0.6420    1.0020    4.1000 oh        1 A8S     -0.620800
      9 C8          0.8620   -0.8460    5.5930 c2        1 A8S     -0.013400
     10 C9          0.7380   -0.5910    6.9080 ce        1 A8S     -0.297200
     11 C10         1.2920    0.6030    7.5470 c         1 A8S      0.583300
     12 O10         1.2540    0.7810    8.7750 o         1 A8S     -0.585100
     13 C11         1.8870    1.6270    6.6230 c3        1 A8S     -0.174400
     14 O11        -0.7020   -1.7830    0.5200 o         1 A8S     -0.835300
     15 C12         2.6090    0.9880    5.4390 c3        1 A8S     -0.031000
     16 O12        -1.1410   -0.7080    2.4250 o         1 A8S     -0.835300
     17 C13         0.2360   -2.0350    4.9740 c3        1 A8S     -0.109900
     18 C14         3.1380    2.0940    4.5390 c3        1 A8S     -0.087100
     19 C15         3.7800    0.1550    5.9390 c3        1 A8S     -0.087100
     20 H2          0.0460    0.9930    0.2440 ha        1 A8S      0.107000
     21 H4          2.9730   -1.3090    1.7150 ha        1 A8S      0.109000
     22 H5          2.9140   -1.5270    4.0740 ha        1 A8S      0.107000
     23 H6          2.1820    2.0190    0.0810 hc        1 A8S      0.024367
     24 H6A         2.6110    2.2910    1.8220 hc        1 A8S      0.024367
     25 H6B         3.6170    1.1790    0.8030 hc        1 A8S      0.024367
     26 HO7         0.0700    0.4930    3.4900 ho        1 A8S      0.472000
     27 H9          0.1910   -1.2760    7.5740 ha        1 A8S      0.135000
     28 H11         1.0440    2.2590    6.2290 hc        1 A8S      0.071700
     29 H11A        2.5910    2.2920    7.1880 hc        1 A8S      0.071700
     30 H13         1.0220   -2.7290    4.5840 hc        1 A8S      0.073367
     31 H13A       -0.3990   -2.5920    5.7040 hc        1 A8S      0.073367
     32 H14         3.6520    1.6480    3.6530 hc        1 A8S      0.035700
     33 H14A        3.8620    2.7330    5.0980 hc        1 A8S      0.035700
     34 H14B        2.2930    2.7280    4.1740 hc        1 A8S      0.035700
     35 H15         4.4130    0.7650    6.6280 hc        1 A8S      0.035700
     36 H15A        3.4130   -0.7430    6.4920 hc        1 A8S      0.035700
     37 H15B        4.4150   -0.1820    5.0850 hc        1 A8S      0.035700
     38 H13B       -0.4050   -1.7170    4.1010 hc        1 A8S      0.073367
@<TRIPOS>BOND
     1    1    2 1   
     2    1   14 1   
     3    1   16 1   
     4    2    3 2   
     5    2   20 1   
     6    3    4 1   
     7    3    6 1   
     8    4    5 2   
     9    4   21 1   
    10    5    7 1   
    11    5   22 1   
    12    6   23 1   
    13    6   24 1   
    14    6   25 1   
    15    7    8 1   
    16    7    9 1   
    17    7   15 1   
    18    8   26 1   
    19    9   10 2   
    20    9   17 1   
    21   10   11 1   
    22   10   27 1   
    23   11   12 2   
    24   11   13 1   
    25   13   15 1   
    26   13   28 1   
    27   13   29 1   
    28   15   18 1   
    29   15   19 1   
    30   17   30 1   
    31   17   31 1   
    32   17   38 1   
    33   18   32 1   
    34   18   33 1   
    35   18   34 1   
    36   19   35 1   
    37   19   36 1   
    38   19   37 1   
@<TRIPOS>SUBSTRUCTURE
     1 A8S         1 TEMP              0 ****  ****    0 ROOT
