@<TRIPOS>MOLECULE
A8S
   38    38     1     0     0
SMALL
bcc


@<TRIPOS>ATOM
      1 C1         -0.1810   -1.2070    1.2440 c         1 A8S      0.898800
      2 C2          0.7000   -0.0390    0.8790 ce        1 A8S     -0.170200
      3 C3          1.8920    0.2500    1.4170 cf        1 A8S     -0.147200
      4 C4          2.5760   -0.6000    2.3860 cf        1 A8S     -0.060000
      5 C5          2.4590   -0.6620    3.7140 c2        1 A8S     -0.214200
      6 C6          2.6650    1.4510    1.0010 c3        1 A8S     -0.040900
      7 C7          1.5690    0.1160    4.6430 c3        1 A8S      0.246200
      8 O7          0.5720    0.8790    3.9810 oh        1 A8S     -0.620800
      9 C8          0.8700   -0.8570    5.5900 c2        1 A8S     -0.013400
     10 C9          0.6220   -0.5500    6.8770 ce        1 A8S     -0.297200
     11 C10         1.0000    0.7280    7.4820 c         1 A8S      0.583300
     12 O10         0.8520    0.9640    8.6920 o         1 A8S     -0.585100
     13 C11         1.5530    1.7620    6.5430 c3        1 A8S     -0.174400
     14 O11        -0.2040   -2.2140    0.4860 o         1 A8S     -0.835300
     15 C12         2.4240    1.1450    5.4510 c3        1 A8S     -0.031000
     16 O12        -0.8940   -1.0960    2.2900 o         1 A8S     -0.835300
     17 C13         0.4190   -2.1360    5.0010 c3        1 A8S     -0.109900
     18 C14         2.9000    2.2550    4.5260 c3        1 A8S     -0.087100
     19 C15         3.6350    0.4700    6.0780 c3        1 A8S     -0.087100
     20 H2          0.2700    0.6100    0.1000 ha        1 A8S      0.107000
     21 H4          3.3020   -1.2850    1.9010 ha        1 A8S      0.109000
     22 H5          3.0900   -1.3880    4.2600 ha        1 A8S      0.107000
     23 H6          2.2930    1.8510    0.0250 hc        1 A8S      0.024367
     24 H6A         3.7500    1.2070    0.8920 hc        1 A8S      0.024367
     25 H6B         2.5610    2.2550    1.7730 hc        1 A8S      0.024367
     26 HO7         0.1020    0.2810    3.3640 ho        1 A8S      0.472000
     27 H9          0.1010   -1.2550    7.5430 ha        1 A8S      0.135000
     28 H11         2.1390    2.5270    7.1150 hc        1 A8S      0.071700
     29 H11A        0.6800    2.2780    6.0560 hc        1 A8S      0.071700
     30 H13         1.3000   -2.7600    4.7070 hc        1 A8S      0.073367
     31 H13A       -0.1840   -1.9340    4.0680 hc        1 A8S      0.073367
     32 H14         2.0240    2.7740    4.0670 hc        1 A8S      0.035700
     33 H14A        3.5230    1.8230    3.7050 hc        1 A8S      0.035700
     34 H14B        3.5100    2.9960    5.0960 hc        1 A8S      0.035700
     35 H15         4.3630    0.1610    5.2910 hc        1 A8S      0.035700
     36 H15A        4.1470    1.1790    6.7720 hc        1 A8S      0.035700
     37 H15B        3.3220   -0.4330    6.6560 hc        1 A8S      0.035700
     38 H13B       -0.2070   -2.7210    5.7170 hc        1 A8S      0.073367
@<TRIPOS>BOND
     1    1    2 1   
     2    1   14 1   
     3    1   16 1   
     4    2    3 2   
     5    2   20 1   
     6    3    4 1   
     7    3    6 1   
     8    4    5 2   
     9    4   21 1   
    10    5    7 1   
    11    5   22 1   
    12    6   23 1   
    13    6   24 1   
    14    6   25 1   
    15    7    8 1   
    16    7    9 1   
    17    7   15 1   
    18    8   26 1   
    19    9   10 2   
    20    9   17 1   
    21   10   11 1   
    22   10   27 1   
    23   11   12 2   
    24   11   13 1   
    25   13   15 1   
    26   13   28 1   
    27   13   29 1   
    28   15   18 1   
    29   15   19 1   
    30   17   30 1   
    31   17   31 1   
    32   17   38 1   
    33   18   32 1   
    34   18   33 1   
    35   18   34 1   
    36   19   35 1   
    37   19   36 1   
    38   19   37 1   
@<TRIPOS>SUBSTRUCTURE
     1 A8S         1 TEMP              0 ****  ****    0 ROOT
