@<TRIPOS>MOLECULE
A8S
   38    38     1     0     0
SMALL
bcc


@<TRIPOS>ATOM
      1 C1          3.5370   -1.2250    0.3970 c         1 A8S      0.896800
      2 C2          3.6230    0.1910    0.9220 ce        1 A8S     -0.183200
      3 C3          2.6670    1.1190    0.7470 cf        1 A8S     -0.144200
      4 C4          1.4680    0.7580   -0.0040 cf        1 A8S     -0.026000
      5 C5          0.2490    0.6210    0.5300 c2        1 A8S     -0.260200
      6 C6          2.7570    2.4990    1.2750 c3        1 A8S     -0.038900
      7 C7         -0.8750   -0.0640   -0.1980 c3        1 A8S      0.239200
      8 O7         -0.4180   -0.7190   -1.3840 oh        1 A8S     -0.620800
      9 C8         -1.4520   -1.1390    0.7160 c2        1 A8S     -0.018400
     10 C9         -2.7670   -1.4190    0.7570 ce        1 A8S     -0.294200
     11 C10        -3.7530   -0.7220   -0.0710 c         1 A8S      0.581300
     12 O10        -4.9750   -0.8980    0.0590 o         1 A8S     -0.581100
     13 C11        -3.1990    0.1920   -1.1270 c3        1 A8S     -0.174400
     14 O11         4.5610   -1.9520    0.5280 o         1 A8S     -0.842300
     15 C12        -1.9620    0.9510   -0.6490 c3        1 A8S     -0.029000
     16 O12         2.4610   -1.6310   -0.1420 o         1 A8S     -0.842300
     17 C13        -0.4620   -1.8900    1.5210 c3        1 A8S     -0.100900
     18 C14        -1.4260    1.7900   -1.8000 c3        1 A8S     -0.084600
     19 C15        -2.3350    1.8710    0.5050 c3        1 A8S     -0.084600
     20 H2          4.5460    0.4200    1.4750 ha        1 A8S      0.108000
     21 H4          1.6660    0.4610   -1.0520 ha        1 A8S      0.147000
     22 H5          0.0240    0.9110    1.5650 ha        1 A8S      0.117000
     23 H6          2.7840    3.2370    0.4350 hc        1 A8S      0.023367
     24 H6A         1.8640    2.7290    1.9100 hc        1 A8S      0.023367
     25 H6B         3.6770    2.6380    1.8940 hc        1 A8S      0.023367
     26 HO7         0.3830   -1.2190   -1.1420 ho        1 A8S      0.458000
     27 H9         -3.1660   -2.2050    1.4170 ha        1 A8S      0.136000
     28 H11        -2.9110   -0.4440   -2.0080 hc        1 A8S      0.070200
     29 H11A       -3.9860    0.9170   -1.4590 hc        1 A8S      0.070200
     30 H13        -0.2300   -1.3210    2.4570 hc        1 A8S      0.070367
     31 H13A       -0.8480   -2.8980    1.8060 hc        1 A8S      0.070367
     32 H14        -1.2180    1.1400   -2.6840 hc        1 A8S      0.036533
     33 H14A       -2.1690    2.5710   -2.0870 hc        1 A8S      0.036533
     34 H14B       -0.4720    2.2830   -1.4940 hc        1 A8S      0.036533
     35 H15        -1.4700    2.5210    0.7790 hc        1 A8S      0.036533
     36 H15A       -3.1920    2.5240    0.2090 hc        1 A8S      0.036533
     37 H15B       -2.6330    1.2710    1.3990 hc        1 A8S      0.036533
     38 H13B        0.5040   -2.0100    0.9510 hc        1 A8S      0.070367
@<TRIPOS>BOND
     1    1    2 1   
     2    1   14 1   
     3    1   16 1   
     4    2    3 2   
     5    2   20 1   
     6    3    4 1   
     7    3    6 1   
     8    4    5 2   
     9    4   21 1   
    10    5    7 1   
    11    5   22 1   
    12    6   23 1   
    13    6   24 1   
    14    6   25 1   
    15    7    8 1   
    16    7    9 1   
    17    7   15 1   
    18    8   26 1   
    19    9   10 2   
    20    9   17 1   
    21   10   11 1   
    22   10   27 1   
    23   11   12 2   
    24   11   13 1   
    25   13   15 1   
    26   13   28 1   
    27   13   29 1   
    28   15   18 1   
    29   15   19 1   
    30   17   30 1   
    31   17   31 1   
    32   17   38 1   
    33   18   32 1   
    34   18   33 1   
    35   18   34 1   
    36   19   35 1   
    37   19   36 1   
    38   19   37 1   
@<TRIPOS>SUBSTRUCTURE
     1 A8S         1 TEMP              0 ****  ****    0 ROOT
