@<TRIPOS>MOLECULE
A8S
   38    34     1     0     0
SMALL
bcc


@<TRIPOS>ATOM
      1 C1         -1.9310    2.1980   -2.4520 c1        1 A8S      0.349000
      2 C2         -0.4170    2.1980   -2.4520 c2        1 A8S     -0.151000
      3 C3          0.2630    2.1980   -1.2750 c1        1 A8S     -0.143000
      4 C4         -0.5010    2.1990    0.0510 c1        1 A8S     -0.135000
      5 C5         -0.6620    1.0120    0.7640 c1        1 A8S     -0.135000
      6 C6          1.7740    2.2000   -1.2750 c3        1 A8S     -0.163000
      7 C7         -0.0770   -0.2880    0.2260 c2        1 A8S      0.166000
      8 O7          0.6790    0.2040   -0.9270 oh        1 A8S     -0.348000
      9 C8         -1.1970   -1.2390   -0.2300 c2        1 A8S     -0.005000
     10 C9         -0.9400   -2.7740   -0.1060 c1        1 A8S     -0.278000
     11 C10         0.4470   -3.2470    0.4760 c1        1 A8S      0.275000
     12 O10         0.7950   -4.4030    0.3520 o         1 A8S     -0.346000
     13 C11         1.4650   -2.1810    0.8840 c3        1 A8S     -0.203000
     14 O11        -2.5580    3.1020   -1.8400 os        1 A8S     -0.543000
     15 C12         0.8390   -0.9060    1.2290 c3        1 A8S     -0.031000
     16 O12        -2.5590    1.3620   -3.1540 o         1 A8S     -0.597000
     17 C13        -2.6050   -0.7210   -0.4010 c3        1 A8S     -0.232000
     18 C14         0.0530   -1.1100    2.5040 c3        1 A8S     -0.205000
     19 C15         1.9400    0.0820    1.5170 c3        1 A8S     -0.205000
     20 H2          0.0710    2.1980   -3.2970 ha        1 A8S      0.107000
     21 H4         -0.8760    3.0310    0.3970 ha        1 A8S      0.108000
     22 H5         -1.1500    1.0140    1.6100 ha        1 A8S      0.108000
     23 H6          2.0990    2.9650   -1.7860 hc        1 A8S      0.063667
     24 H6A         2.1000    1.3750   -1.6820 hc        1 A8S      0.063667
     25 H6B         2.1000    2.2600   -0.3570 hc        1 A8S      0.063667
     26 HO7         0.7210   -0.4300   -1.5460 ho        1 A8S      0.271000
     27 H9         -1.5060   -3.4040   -0.5930 ha        1 A8S      0.135000
     28 H11         2.1590   -2.4730    1.5070 hc        1 A8S      0.111000
     29 H11A        2.0140   -2.0190    0.0930 hc        1 A8S      0.111000
     30 H13        -3.2030   -1.1980    0.2060 hc        1 A8S      0.112667
     31 H13A       -2.8940   -0.8650   -1.3220 hc        1 A8S      0.112667
     32 H14         0.5130   -1.7590    3.0700 hc        1 A8S      0.075000
     33 H14A       -0.0230   -0.2610    2.9790 hc        1 A8S      0.075000
     34 H14B       -0.8390   -1.4420    2.2870 hc        1 A8S      0.075000
     35 H15         2.4490   -0.2160    2.2950 hc        1 A8S      0.075000
     36 H15A        2.5330    0.1430    0.7450 hc        1 A8S      0.075000
     37 H15B        1.5510    0.9590    1.6990 hc        1 A8S      0.075000
     38 H13B       -2.6270    0.2330   -0.1970 hc        1 A8S      0.112667
@<TRIPOS>BOND
     1    1    2 1   
     2    1   16 1   
     3    2    3 1   
     4    2   20 1   
     5    3    6 1   
     6    4    5 1   
     7    4   21 1   
     8    5   22 1   
     9    6   23 1   
    10    6   24 1   
    11    6   25 1   
    12    7    8 1   
    13    7    9 1   
    14    7   15 1   
    15    8   26 1   
    16    9   10 1   
    17    9   17 1   
    18   10   27 1   
    19   11   12 1   
    20   11   13 1   
    21   13   15 1   
    22   13   28 1   
    23   13   29 1   
    24   15   18 1   
    25   15   19 1   
    26   17   30 1   
    27   17   31 1   
    28   17   38 1   
    29   18   32 1   
    30   18   33 1   
    31   18   34 1   
    32   19   35 1   
    33   19   36 1   
    34   19   37 1   
@<TRIPOS>SUBSTRUCTURE
     1 A8S         1 TEMP              0 ****  ****    0 ROOT
