@<TRIPOS>MOLECULE
A8T
   62    66     1     0     0
SMALL
bcc


@<TRIPOS>ATOM
      1 C12        -0.1780    0.0660    0.2020 c3        1 A8T     -0.121100
      2 C11         1.3280   -0.1270    0.0330 c3        1 A8T      0.208100
      3 C13         1.9790   -0.3940    1.3890 c3        1 A8T     -0.121100
      4 O1          1.5670   -1.2460   -0.8300 oh        1 A8T     -0.601800
      5 C2          1.9440    1.0770   -0.6220 ca        1 A8T     -0.219600
      6 C3          1.8840    2.3380    0.0060 ca        1 A8T      0.424200
      7 N1          2.4080    3.4620   -0.4980 nb        1 A8T     -0.711000
      8 C1          2.5870    1.0070   -1.8620 ca        1 A8T     -0.049000
      9 C5          3.1350    2.1580   -2.4210 ca        1 A8T     -0.265300
     10 C4          3.0340    3.3940   -1.7160 ca        1 A8T      0.613200
     11 N2          3.5310    4.5760   -2.3460 nh        1 A8T     -0.731300
     12 C9          3.1410    5.8470   -1.7500 c3        1 A8T      0.182800
     13 C8          3.5940    7.0500   -2.6070 c3        1 A8T      0.170800
     14 C6          4.9510    4.5210   -2.6700 c3        1 A8T      0.182800
     15 C7          5.4020    5.7310   -3.5160 c3        1 A8T      0.170800
     16 N3          5.0250    6.9960   -2.8900 nh        1 A8T     -0.726300
     17 C10         5.5710    8.1370   -3.5550 ca        1 A8T      0.566200
     18 N5          4.7990    8.9370   -4.3440 nb        1 A8T     -0.363000
     19 N4          5.2620    9.9940   -4.9130 nb        1 A8T     -0.312000
     20 C14         6.9710    8.4660   -3.3280 ca        1 A8T     -0.120300
     21 C17         7.8320    7.7240   -2.4800 ca        1 A8T     -0.098000
     22 C18         9.1480    8.0960   -2.3280 ca        1 A8T     -0.127000
     23 C19         9.6590    9.2190   -3.0170 ca        1 A8T     -0.113000
     24 C20         8.8390    9.9660   -3.8300 ca        1 A8T     -0.113000
     25 C15         7.4750    9.6170   -3.9910 ca        1 A8T     -0.112300
     26 C16         6.5500   10.3790   -4.7930 ca        1 A8T      0.362600
     27 C21         6.9990   11.6330   -5.4870 c3        1 A8T     -0.084400
     28 C22         7.7460   11.3520   -6.7450 ca        1 A8T     -0.082300
     29 C23         7.1350   10.6440   -7.7870 ca        1 A8T     -0.124500
     30 C24         7.8250   10.4100   -8.9750 ca        1 A8T     -0.128500
     31 C25         9.1270   10.8830   -9.1350 ca        1 A8T     -0.129000
     32 C26         9.7380   11.5940   -8.1020 ca        1 A8T     -0.128500
     33 C27         9.0520   11.8280   -6.9120 ca        1 A8T     -0.124500
     34 H1         -0.3830    0.9740    0.8170 hc        1 A8T      0.046033
     35 H2         -0.6230   -0.8230    0.7100 hc        1 A8T      0.046033
     36 H3         -0.6600    0.1860   -0.7970 hc        1 A8T      0.046033
     37 H4          3.0670   -0.6000    1.2550 hc        1 A8T      0.046033
     38 H5          1.5040   -1.2810    1.8720 hc        1 A8T      0.046033
     39 H6          1.8540    0.4900    2.0570 hc        1 A8T      0.046033
     40 H7          1.1560   -2.0090   -0.4070 ho        1 A8T      0.404000
     41 H8          1.3860    2.4570    0.9870 h4        1 A8T      0.018100
     42 H9          2.6540    0.0450   -2.3960 ha        1 A8T      0.160000
     43 H10         3.6220    2.1100   -3.4040 ha        1 A8T      0.147000
     44 H11         3.5540    5.9660   -0.7080 h1        1 A8T      0.052450
     45 H12         2.0170    5.8790   -1.6920 h1        1 A8T      0.052450
     46 H13         3.3880    7.9880   -2.0220 h1        1 A8T      0.056200
     47 H14         2.9760    7.0770   -3.5500 h1        1 A8T      0.056200
     48 H15         5.1510    3.5930   -3.2750 h1        1 A8T      0.052450
     49 H16         5.5840    4.4750   -1.7370 h1        1 A8T      0.052450
     50 H17         4.9630    5.6370   -4.5510 h1        1 A8T      0.056200
     51 H18         6.5230    5.6930   -3.6050 h1        1 A8T      0.056200
     52 H19         7.4380    6.8560   -1.9270 ha        1 A8T      0.153000
     53 H20         9.8160    7.5240   -1.6670 ha        1 A8T      0.138000
     54 H21        10.7190    9.4880   -2.8930 ha        1 A8T      0.138000
     55 H22         9.2360   10.8360   -4.3780 ha        1 A8T      0.145000
     56 H23         6.1090   12.2770   -5.7400 hc        1 A8T      0.070200
     57 H24         7.6350   12.2240   -4.7720 hc        1 A8T      0.070200
     58 H25         6.1050   10.2740   -7.6630 ha        1 A8T      0.137000
     59 H26         7.3390    9.8510   -9.7890 ha        1 A8T      0.131500
     60 H27         9.6700   10.6980  -10.0730 ha        1 A8T      0.131000
     61 H28        10.7630   11.9730   -8.2260 ha        1 A8T      0.131500
     62 H29         9.5380   12.3950   -6.1040 ha        1 A8T      0.137000
@<TRIPOS>BOND
     1    1    2 1   
     2    1   34 1   
     3    1   35 1   
     4    1   36 1   
     5    2    3 1   
     6    2    4 1   
     7    2    5 1   
     8    3   37 1   
     9    3   38 1   
    10    3   39 1   
    11    4   40 1   
    12    5    6 ar  
    13    5    8 ar  
    14    6    7 ar  
    15    6   41 1   
    16    7   10 ar  
    17    8    9 ar  
    18    8   42 1   
    19    9   10 ar  
    20    9   43 1   
    21   10   11 1   
    22   11   12 1   
    23   11   14 1   
    24   12   13 1   
    25   12   44 1   
    26   12   45 1   
    27   13   16 1   
    28   13   46 1   
    29   13   47 1   
    30   14   15 1   
    31   14   48 1   
    32   14   49 1   
    33   15   16 1   
    34   15   50 1   
    35   15   51 1   
    36   16   17 1   
    37   17   18 ar  
    38   17   20 ar  
    39   18   19 ar  
    40   19   26 ar  
    41   20   21 ar  
    42   20   25 ar  
    43   21   22 ar  
    44   21   52 1   
    45   22   23 ar  
    46   22   53 1   
    47   23   24 ar  
    48   23   54 1   
    49   24   25 ar  
    50   24   55 1   
    51   25   26 ar  
    52   26   27 1   
    53   27   28 1   
    54   27   56 1   
    55   27   57 1   
    56   28   29 ar  
    57   28   33 ar  
    58   29   30 ar  
    59   29   58 1   
    60   30   31 ar  
    61   30   59 1   
    62   31   32 ar  
    63   31   60 1   
    64   32   33 ar  
    65   32   61 1   
    66   33   62 1   
@<TRIPOS>SUBSTRUCTURE
     1 A8T         1 TEMP              0 ****  ****    0 ROOT
