@<TRIPOS>MOLECULE
A8T
   62    66     1     0     0
SMALL
bcc


@<TRIPOS>ATOM
      1 C12        -0.1880    0.0660    0.1870 c3        1 A8T     -0.121100
      2 C11         1.3190   -0.1260    0.0240 c3        1 A8T      0.208100
      3 C13         1.9640   -0.3900    1.3840 c3        1 A8T     -0.121100
      4 O1          1.5630   -1.2460   -0.8360 oh        1 A8T     -0.601800
      5 C2          1.9370    1.0770   -0.6300 ca        1 A8T     -0.219600
      6 C3          1.8730    2.3390   -0.0040 ca        1 A8T      0.424200
      7 N1          2.3980    3.4630   -0.5070 nb        1 A8T     -0.711000
      8 C1          2.5860    1.0060   -1.8670 ca        1 A8T     -0.049000
      9 C5          3.1350    2.1560   -2.4240 ca        1 A8T     -0.265300
     10 C4          3.0300    3.3940   -1.7230 ca        1 A8T      0.613200
     11 N2          3.5280    4.5750   -2.3520 nh        1 A8T     -0.731300
     12 C9          3.1330    5.8470   -1.7610 c3        1 A8T      0.182800
     13 C8          3.5900    7.0490   -2.6180 c3        1 A8T      0.171300
     14 C6          4.9500    4.5210   -2.6680 c3        1 A8T      0.182800
     15 C7          5.4040    5.7300   -3.5140 c3        1 A8T      0.171300
     16 N3          5.0220    6.9960   -2.8930 nh        1 A8T     -0.726300
     17 C10         5.5710    8.1360   -3.5570 ca        1 A8T      0.566200
     18 N5          4.8020    8.9340   -4.3520 nb        1 A8T     -0.363000
     19 N4          5.2670    9.9900   -4.9200 nb        1 A8T     -0.312000
     20 C14         6.9690    8.4670   -3.3220 ca        1 A8T     -0.120300
     21 C17         7.8260    7.7280   -2.4680 ca        1 A8T     -0.098000
     22 C18         9.1400    8.1030   -2.3100 ca        1 A8T     -0.127000
     23 C19         9.6540    9.2250   -2.9980 ca        1 A8T     -0.113000
     24 C20         8.8380    9.9700   -3.8170 ca        1 A8T     -0.113000
     25 C15         7.4750    9.6190   -3.9850 ca        1 A8T     -0.112300
     26 C16         6.5530   10.3770   -4.7940 ca        1 A8T      0.362600
     27 C21         7.0040   11.6310   -5.4870 c3        1 A8T     -0.084400
     28 C22         7.7580   11.3490   -6.7410 ca        1 A8T     -0.082300
     29 C23         7.1540   10.6390   -7.7850 ca        1 A8T     -0.124500
     30 C24         7.8500   10.4030   -8.9690 ca        1 A8T     -0.128500
     31 C25         9.1530   10.8780   -9.1230 ca        1 A8T     -0.129000
     32 C26         9.7580   11.5910   -8.0880 ca        1 A8T     -0.128500
     33 C27         9.0650   11.8260   -6.9010 ca        1 A8T     -0.124500
     34 H1         -0.3960    0.9750    0.7990 hc        1 A8T      0.045867
     35 H2         -0.6340   -0.8220    0.6940 hc        1 A8T      0.045867
     36 H3         -0.6660    0.1840   -0.8150 hc        1 A8T      0.045867
     37 H4          3.0530   -0.5960    1.2550 hc        1 A8T      0.045867
     38 H5          1.4880   -1.2760    1.8670 hc        1 A8T      0.045867
     39 H6          1.8370    0.4950    2.0500 hc        1 A8T      0.045867
     40 H7          1.1510   -2.0080   -0.4120 ho        1 A8T      0.404000
     41 H8          1.3700    2.4600    0.9740 h4        1 A8T      0.018100
     42 H9          2.6560    0.0430   -2.3980 ha        1 A8T      0.160000
     43 H10         3.6270    2.1080   -3.4060 ha        1 A8T      0.147000
     44 H11         2.0100    5.8780   -1.7080 h1        1 A8T      0.052450
     45 H12         3.5400    5.9680   -0.7160 h1        1 A8T      0.052450
     46 H13         3.3790    7.9880   -2.0360 h1        1 A8T      0.056200
     47 H14         2.9770    7.0730   -3.5640 h1        1 A8T      0.056200
     48 H15         5.1550    3.5930   -3.2710 h1        1 A8T      0.052450
     49 H16         5.5780    4.4780   -1.7320 h1        1 A8T      0.052450
     50 H17         4.9710    5.6340   -4.5510 h1        1 A8T      0.056200
     51 H18         6.5260    5.6940   -3.5970 h1        1 A8T      0.056200
     52 H19         7.4300    6.8610   -1.9160 ha        1 A8T      0.153000
     53 H20         9.8050    7.5320   -1.6440 ha        1 A8T      0.138000
     54 H21        10.7120    9.4950   -2.8690 ha        1 A8T      0.138000
     55 H22         9.2360   10.8390   -4.3640 ha        1 A8T      0.145000
     56 H23         7.6360   12.2240   -4.7700 hc        1 A8T      0.070200
     57 H24         6.1150   12.2730   -5.7460 hc        1 A8T      0.070200
     58 H25         6.1230   10.2690   -7.6660 ha        1 A8T      0.137000
     59 H26         7.3690    9.8430   -9.7840 ha        1 A8T      0.131500
     60 H27         9.7010   10.6920  -10.0580 ha        1 A8T      0.131000
     61 H28        10.7830   11.9700   -8.2070 ha        1 A8T      0.131500
     62 H29         9.5460   12.3940   -6.0920 ha        1 A8T      0.137000
@<TRIPOS>BOND
     1    1    2 1   
     2    1   34 1   
     3    1   35 1   
     4    1   36 1   
     5    2    3 1   
     6    2    4 1   
     7    2    5 1   
     8    3   37 1   
     9    3   38 1   
    10    3   39 1   
    11    4   40 1   
    12    5    6 ar  
    13    5    8 ar  
    14    6    7 ar  
    15    6   41 1   
    16    7   10 ar  
    17    8    9 ar  
    18    8   42 1   
    19    9   10 ar  
    20    9   43 1   
    21   10   11 1   
    22   11   12 1   
    23   11   14 1   
    24   12   13 1   
    25   12   44 1   
    26   12   45 1   
    27   13   16 1   
    28   13   46 1   
    29   13   47 1   
    30   14   15 1   
    31   14   48 1   
    32   14   49 1   
    33   15   16 1   
    34   15   50 1   
    35   15   51 1   
    36   16   17 1   
    37   17   18 ar  
    38   17   20 ar  
    39   18   19 ar  
    40   19   26 ar  
    41   20   21 ar  
    42   20   25 ar  
    43   21   22 ar  
    44   21   52 1   
    45   22   23 ar  
    46   22   53 1   
    47   23   24 ar  
    48   23   54 1   
    49   24   25 ar  
    50   24   55 1   
    51   25   26 ar  
    52   26   27 1   
    53   27   28 1   
    54   27   56 1   
    55   27   57 1   
    56   28   29 ar  
    57   28   33 ar  
    58   29   30 ar  
    59   29   58 1   
    60   30   31 ar  
    61   30   59 1   
    62   31   32 ar  
    63   31   60 1   
    64   32   33 ar  
    65   32   61 1   
    66   33   62 1   
@<TRIPOS>SUBSTRUCTURE
     1 A8T         1 TEMP              0 ****  ****    0 ROOT
