@<TRIPOS>MOLECULE
A8T
   62    66     1     0     0
SMALL
bcc


@<TRIPOS>ATOM
      1 C12        -0.1720    0.0590    0.1980 c3        1 A8T     -0.121100
      2 C11         1.3350   -0.1320    0.0320 c3        1 A8T      0.208100
      3 C13         1.9840   -0.3960    1.3900 c3        1 A8T     -0.121100
      4 O1          1.5770   -1.2510   -0.8300 oh        1 A8T     -0.601800
      5 C2          1.9490    1.0730   -0.6230 ca        1 A8T     -0.219600
      6 C3          1.8860    2.3340    0.0030 ca        1 A8T      0.424200
      7 N1          2.4090    3.4590   -0.5000 nb        1 A8T     -0.711000
      8 C1          2.5950    1.0030   -1.8620 ca        1 A8T     -0.049000
      9 C5          3.1410    2.1540   -2.4210 ca        1 A8T     -0.265300
     10 C4          3.0370    3.3910   -1.7180 ca        1 A8T      0.613200
     11 N2          3.5330    4.5730   -2.3470 nh        1 A8T     -0.731300
     12 C9          3.1390    5.8440   -1.7540 c3        1 A8T      0.182800
     13 C8          3.5910    7.0480   -2.6110 c3        1 A8T      0.171300
     14 C6          4.9530    4.5200   -2.6700 c3        1 A8T      0.182800
     15 C7          5.4030    5.7310   -3.5150 c3        1 A8T      0.171300
     16 N3          5.0230    6.9950   -2.8910 nh        1 A8T     -0.726300
     17 C10         5.5680    8.1370   -3.5560 ca        1 A8T      0.566200
     18 N5          4.7960    8.9360   -4.3470 nb        1 A8T     -0.363000
     19 N4          5.2580    9.9930   -4.9150 nb        1 A8T     -0.312000
     20 C14         6.9670    8.4680   -3.3270 ca        1 A8T     -0.120300
     21 C17         7.8280    7.7290   -2.4770 ca        1 A8T     -0.098000
     22 C18         9.1430    8.1030   -2.3240 ca        1 A8T     -0.127000
     23 C19         9.6530    9.2260   -3.0130 ca        1 A8T     -0.113000
     24 C20         8.8330    9.9720   -3.8270 ca        1 A8T     -0.113000
     25 C15         7.4700    9.6210   -3.9900 ca        1 A8T     -0.112300
     26 C16         6.5450   10.3800   -4.7940 ca        1 A8T      0.362600
     27 C21         6.9930   11.6350   -5.4870 c3        1 A8T     -0.084400
     28 C22         7.7420   11.3550   -6.7450 ca        1 A8T     -0.082300
     29 C23         7.1330   10.6450   -7.7870 ca        1 A8T     -0.124500
     30 C24         7.8250   10.4120   -8.9740 ca        1 A8T     -0.128500
     31 C25         9.1270   10.8870   -9.1320 ca        1 A8T     -0.129000
     32 C26         9.7360   11.6000   -8.0990 ca        1 A8T     -0.128500
     33 C27         9.0470   11.8330   -6.9100 ca        1 A8T     -0.124500
     34 H1         -0.3800    0.9660    0.8110 hc        1 A8T      0.046033
     35 H2         -0.6530    0.1770   -0.8020 hc        1 A8T      0.046033
     36 H3         -0.6160   -0.8310    0.7060 hc        1 A8T      0.046033
     37 H4          1.8560    0.4890    2.0560 hc        1 A8T      0.046033
     38 H5          3.0720   -0.6000    1.2580 hc        1 A8T      0.046033
     39 H6          1.5090   -1.2840    1.8730 hc        1 A8T      0.046033
     40 H7          1.1670   -2.0140   -0.4060 ho        1 A8T      0.404000
     41 H8          1.3860    2.4530    0.9830 h4        1 A8T      0.018100
     42 H9          2.6640    0.0410   -2.3940 ha        1 A8T      0.160000
     43 H10         3.6300    2.1070   -3.4030 ha        1 A8T      0.147000
     44 H11         3.5500    5.9650   -0.7100 h1        1 A8T      0.052450
     45 H12         2.0150    5.8740   -1.6970 h1        1 A8T      0.052450
     46 H13         2.9750    7.0720   -3.5550 h1        1 A8T      0.056200
     47 H14         3.3820    7.9860   -2.0270 h1        1 A8T      0.056200
     48 H15         5.5850    4.4760   -1.7350 h1        1 A8T      0.052450
     49 H16         5.1560    3.5930   -3.2740 h1        1 A8T      0.052450
     50 H17         6.5250    5.6950   -3.6030 h1        1 A8T      0.056200
     51 H18         4.9660    5.6350   -4.5510 h1        1 A8T      0.056200
     52 H19         7.4350    6.8610   -1.9250 ha        1 A8T      0.153000
     53 H20         9.8110    7.5320   -1.6610 ha        1 A8T      0.138000
     54 H21        10.7120    9.4970   -2.8870 ha        1 A8T      0.138000
     55 H22         9.2290   10.8420   -4.3750 ha        1 A8T      0.145000
     56 H23         7.6270   12.2270   -4.7720 hc        1 A8T      0.070200
     57 H24         6.1020   12.2770   -5.7420 hc        1 A8T      0.070200
     58 H25         6.1040   10.2740   -7.6650 ha        1 A8T      0.137000
     59 H26         7.3410    9.8520   -9.7880 ha        1 A8T      0.131500
     60 H27         9.6710   10.7030  -10.0700 ha        1 A8T      0.131000
     61 H28        10.7600   11.9800   -8.2220 ha        1 A8T      0.131500
     62 H29         9.5310   12.4010   -6.1010 ha        1 A8T      0.137000
@<TRIPOS>BOND
     1    1    2 1   
     2    1   34 1   
     3    1   35 1   
     4    1   36 1   
     5    2    3 1   
     6    2    4 1   
     7    2    5 1   
     8    3   37 1   
     9    3   38 1   
    10    3   39 1   
    11    4   40 1   
    12    5    6 ar  
    13    5    8 ar  
    14    6    7 ar  
    15    6   41 1   
    16    7   10 ar  
    17    8    9 ar  
    18    8   42 1   
    19    9   10 ar  
    20    9   43 1   
    21   10   11 1   
    22   11   12 1   
    23   11   14 1   
    24   12   13 1   
    25   12   44 1   
    26   12   45 1   
    27   13   16 1   
    28   13   46 1   
    29   13   47 1   
    30   14   15 1   
    31   14   48 1   
    32   14   49 1   
    33   15   16 1   
    34   15   50 1   
    35   15   51 1   
    36   16   17 1   
    37   17   18 ar  
    38   17   20 ar  
    39   18   19 ar  
    40   19   26 ar  
    41   20   21 ar  
    42   20   25 ar  
    43   21   22 ar  
    44   21   52 1   
    45   22   23 ar  
    46   22   53 1   
    47   23   24 ar  
    48   23   54 1   
    49   24   25 ar  
    50   24   55 1   
    51   25   26 ar  
    52   26   27 1   
    53   27   28 1   
    54   27   56 1   
    55   27   57 1   
    56   28   29 ar  
    57   28   33 ar  
    58   29   30 ar  
    59   29   58 1   
    60   30   31 ar  
    61   30   59 1   
    62   31   32 ar  
    63   31   60 1   
    64   32   33 ar  
    65   32   61 1   
    66   33   62 1   
@<TRIPOS>SUBSTRUCTURE
     1 A8T         1 TEMP              0 ****  ****    0 ROOT
