@<TRIPOS>MOLECULE
A8V
   43    44     1     0     0
SMALL
bcc


@<TRIPOS>ATOM
      1 O1          0.0110    0.0750   -0.0880 oh        1 A8V     -0.600800
      2 C2          1.4260   -0.0260    0.0370 c3        1 A8V      0.187400
      3 C1          2.0230    1.1390   -0.7490 c3        1 A8V     -0.075400
      4 C           1.7100    0.9970   -2.2280 c3        1 A8V      0.132400
      5 O           2.3230    2.0940   -2.8890 oh        1 A8V     -0.603800
      6 C3          1.8700    0.0190    1.4720 ca        1 A8V     -0.098300
      7 C15         3.0310   -0.6530    1.8510 ca        1 A8V     -0.149000
      8 C7          3.4480   -0.6040    3.1950 ca        1 A8V      0.129100
      9 C6          2.7100    0.1070    4.1490 ca        1 A8V     -0.201000
     10 C5          1.5500    0.7730    3.7490 ca        1 A8V     -0.095000
     11 C4          1.1290    0.7330    2.4230 ca        1 A8V     -0.154000
     12 O2          4.6060   -1.3080    3.4600 os        1 A8V     -0.330900
     13 C8          5.0860   -1.2370    4.8090 c3        1 A8V      0.130400
     14 C9          6.3780   -2.0460    4.8430 c3        1 A8V     -0.067700
     15 C14         7.5060   -1.2930    4.1540 c3        1 A8V     -0.073400
     16 C13         8.8040   -2.0690    4.2290 c3        1 A8V     -0.075400
     17 C12         9.1680   -2.3930    5.6630 c3        1 A8V     -0.078400
     18 C11         8.0440   -3.1300    6.3620 c3        1 A8V     -0.075400
     19 C10         6.7430   -2.3570    6.2870 c3        1 A8V     -0.073400
     20 H1         -0.3710   -0.5720    0.5170 ho        1 A8V      0.406000
     21 H2          1.7540   -1.0040   -0.4230 h1        1 A8V      0.040700
     22 H3          3.1310    1.1560   -0.5930 hc        1 A8V      0.068200
     23 H4          1.6020    2.1060   -0.3700 hc        1 A8V      0.068200
     24 H5          2.1270    0.0350   -2.6320 h1        1 A8V      0.028200
     25 H6          0.5990    1.0100   -2.3910 h1        1 A8V      0.028200
     26 H7          2.0220    2.0650   -3.8030 ho        1 A8V      0.399000
     27 H8          3.6280   -1.2180    1.1210 ha        1 A8V      0.150000
     28 H9          3.0270    0.1490    5.1990 ha        1 A8V      0.138000
     29 H10         0.9670    1.3360    4.4920 ha        1 A8V      0.134000
     30 H11         0.2190    1.2650    2.1080 ha        1 A8V      0.146000
     31 H12         4.3200   -1.6830    5.4970 h1        1 A8V      0.040200
     32 H13         5.2690   -0.1660    5.0890 h1        1 A8V      0.040200
     33 H14         6.2050   -3.0130    4.2920 hc        1 A8V      0.068700
     34 H15         7.6390   -0.2900    4.6390 hc        1 A8V      0.043450
     35 H16         7.2250   -1.1160    3.0830 hc        1 A8V      0.043450
     36 H17         8.7060   -3.0200    3.6430 hc        1 A8V      0.041450
     37 H18         9.6260   -1.4680    3.7590 hc        1 A8V      0.041450
     38 H19         9.3930   -1.4430    6.2150 hc        1 A8V      0.039700
     39 H20        10.0970   -3.0210    5.6820 hc        1 A8V      0.039700
     40 H21         8.3160   -3.2980    7.4370 hc        1 A8V      0.041450
     41 H22         7.9070   -4.1380    5.8880 hc        1 A8V      0.041450
     42 H23         5.9240   -2.9570    6.7620 hc        1 A8V      0.043450
     43 H24         6.8410   -1.3990    6.8620 hc        1 A8V      0.043450
@<TRIPOS>BOND
     1    1    2 1   
     2    1   20 1   
     3    2    3 1   
     4    2    6 1   
     5    2   21 1   
     6    3    4 1   
     7    3   22 1   
     8    3   23 1   
     9    4    5 1   
    10    4   24 1   
    11    4   25 1   
    12    5   26 1   
    13    6    7 ar  
    14    6   11 ar  
    15    7    8 ar  
    16    7   27 1   
    17    8    9 ar  
    18    8   12 1   
    19    9   10 ar  
    20    9   28 1   
    21   10   11 ar  
    22   10   29 1   
    23   11   30 1   
    24   12   13 1   
    25   13   14 1   
    26   13   31 1   
    27   13   32 1   
    28   14   15 1   
    29   14   19 1   
    30   14   33 1   
    31   15   16 1   
    32   15   34 1   
    33   15   35 1   
    34   16   17 1   
    35   16   36 1   
    36   16   37 1   
    37   17   18 1   
    38   17   38 1   
    39   17   39 1   
    40   18   19 1   
    41   18   40 1   
    42   18   41 1   
    43   19   42 1   
    44   19   43 1   
@<TRIPOS>SUBSTRUCTURE
     1 A8V         1 TEMP              0 ****  ****    0 ROOT
