@<TRIPOS>MOLECULE
A91
   41    43     1     0     0
SMALL
bcc


@<TRIPOS>ATOM
      1 C1         -0.8050   -0.8130    3.2520 cc        1 A91      0.097100
      2 C2          0.1670   -1.2480    2.3960 cd        1 A91     -0.234400
      3 N3          1.4290   -1.2870    3.1050 n         1 A91     -0.229400
      4 C4          1.1240   -0.6340    4.4070 c         1 A91      0.760600
      5 O5         -0.2490   -0.4380    4.4910 os        1 A91     -0.248200
      6 O6          1.8830   -0.3600    5.3160 o         1 A91     -0.469500
      7 N7          2.6160   -0.9020    2.4650 n4        1 A91     -0.557000
      8 C8          2.8180    0.5550    2.0490 c3        1 A91      0.156100
      9 C9          4.2100    0.9860    2.3600 ca        1 A91     -0.160300
     10 C10         5.1100    1.3790    1.3500 ca        1 A91      0.028000
     11 C11         6.4030    1.8000    1.7120 ca        1 A91     -0.086000
     12 C12         6.7890    1.8340    3.0510 ca        1 A91     -0.075000
     13 C13         5.8880    1.4600    4.0500 ca        1 A91     -0.083000
     14 C14         4.6050    1.0410    3.7040 ca        1 A91     -0.119000
     15 C15         4.7700    1.4150   -0.0180 cg        1 A91     -0.019000
     16 C16         4.5850    1.5000   -1.2010 ch        1 A91     -0.246000
     17 C17         4.4330    1.6340   -2.6020 ca        1 A91      0.602300
     18 C18         4.8090    0.5750   -3.4560 ca        1 A91     -0.300600
     19 C19         4.6940    0.7600   -4.8590 ca        1 A91      0.508600
     20 N20         4.2360    1.9280   -5.3760 nb        1 A91     -0.668000
     21 C21         3.8990    2.8900   -4.4580 ca        1 A91      0.711900
     22 N22         3.9560    2.8190   -3.0960 nb        1 A91     -0.664000
     23 C23         5.1010   -0.3370   -5.7850 c3        1 A91     -0.178400
     24 N24         3.4170    4.1850   -5.0320 n4        1 A91     -0.816300
     25 H1         -1.8940   -0.7110    3.2010 h4        1 A91      0.253000
     26 H2          0.0770   -1.6490    1.3820 h4        1 A91      0.220000
     27 HN7         3.3750   -1.1550    3.1360 hn        1 A91      0.482300
     28 H81         2.0850    1.1970    2.6210 hx        1 A91      0.113200
     29 H82         2.5870    0.6310    0.9500 hx        1 A91      0.113200
     30 H11         7.1140    2.1120    0.9290 ha        1 A91      0.167000
     31 H12         7.8070    2.1660    3.3200 ha        1 A91      0.178000
     32 H13         6.1870    1.5010    5.1120 ha        1 A91      0.180000
     33 H14         3.8920    0.7740    4.5050 ha        1 A91      0.161000
     34 H18         5.1970   -0.3710   -3.0490 ha        1 A91      0.195000
     35 H231        5.1390   -1.3100   -5.2350 hc        1 A91      0.094367
     36 H232        4.3930   -0.4350   -6.6470 hc        1 A91      0.094367
     37 H233        6.1210   -0.1170   -6.1990 hc        1 A91      0.094367
     38 H241        2.6370    4.0020   -5.6770 hn        1 A91      0.486800
     39 H242        4.1900    4.6240   -5.5510 hn        1 A91      0.486800
     40 H72         2.7060   -1.5090    1.6330 hn        1 A91      0.482300
     41 H243        3.1060    4.8150   -4.2800 hn        1 A91      0.486800
@<TRIPOS>BOND
     1    1    2 2   
     2    1    5 1   
     3    1   25 1   
     4    2    3 1   
     5    2   26 1   
     6    3    4 1   
     7    3    7 1   
     8    4    5 1   
     9    4    6 2   
    10    7    8 1   
    11    7   27 1   
    12    7   40 1   
    13    8    9 1   
    14    8   28 1   
    15    8   29 1   
    16    9   10 ar  
    17    9   14 ar  
    18   10   11 ar  
    19   10   15 1   
    20   11   12 ar  
    21   11   30 1   
    22   12   13 ar  
    23   12   31 1   
    24   13   14 ar  
    25   13   32 1   
    26   14   33 1   
    27   15   16 3   
    28   16   17 1   
    29   17   18 ar  
    30   17   22 ar  
    31   18   19 ar  
    32   18   34 1   
    33   19   20 ar  
    34   19   23 1   
    35   20   21 ar  
    36   21   22 ar  
    37   21   24 1   
    38   23   35 1   
    39   23   36 1   
    40   23   37 1   
    41   24   38 1   
    42   24   39 1   
    43   24   41 1   
@<TRIPOS>SUBSTRUCTURE
     1 A91         1 TEMP              0 ****  ****    0 ROOT
