@<TRIPOS>MOLECULE
A91
   39    41     1     0     0
SMALL
bcc


@<TRIPOS>ATOM
      1 C1         -3.5550   -4.1300   -0.0370 cc        1 A91     -0.059900
      2 C2         -2.6100   -3.4410    0.6660 cd        1 A91     -0.099400
      3 N3         -3.1020   -2.1140    0.9140 n         1 A91     -0.223400
      4 C4         -4.3400   -2.0260    0.1760 c         1 A91      0.750600
      5 O5         -4.6470   -3.2880   -0.3450 os        1 A91     -0.300200
      6 O6         -5.1520   -1.1150    0.0340 o         1 A91     -0.587500
      7 N7         -2.2450   -1.0780    1.1430 nh        1 A91     -0.529200
      8 C8         -1.6730   -0.3640   -0.0200 c3        1 A91      0.150100
      9 C9         -1.9320    1.1120   -0.0340 ca        1 A91     -0.086300
     10 C10        -0.8670    2.0310   -0.0990 ca        1 A91      0.028000
     11 C11        -1.1420    3.4090   -0.1320 ca        1 A91     -0.105000
     12 C12        -2.4570    3.8650   -0.1000 ca        1 A91     -0.129000
     13 C13        -3.5100    2.9530   -0.0380 ca        1 A91     -0.110000
     14 C14        -3.2480    1.5850   -0.0060 ca        1 A91     -0.136000
     15 C15         0.4730    1.6000   -0.1370 cg        1 A91     -0.066000
     16 C16         1.6210    1.2560   -0.1710 ch        1 A91     -0.216000
     17 C17         2.9790    0.8530   -0.2070 ca        1 A91      0.603300
     18 C18         3.9770    1.8020    0.1090 ca        1 A91     -0.403600
     19 C19         5.3230    1.3770    0.0460 ca        1 A91      0.484600
     20 N20         5.6650    0.1160   -0.2910 nb        1 A91     -0.750000
     21 C21         4.6190   -0.7610   -0.5590 ca        1 A91      0.871900
     22 N22         3.2710   -0.4270   -0.5500 nb        1 A91     -0.743000
     23 C23         6.4020    2.3590    0.3720 c3        1 A91     -0.156400
     24 N24         4.9480   -2.1000   -0.7980 nh        1 A91     -0.925500
     25 H1         -3.6580   -5.1480   -0.3980 h4        1 A91      0.205000
     26 H2         -1.6450   -3.7560    1.0680 h4        1 A91      0.203000
     27 HN7        -2.7480   -0.4120    1.7250 hn        1 A91      0.391800
     28 H81        -0.5630   -0.5650    0.0510 h1        1 A91      0.081200
     29 H82        -2.0300   -0.7870   -1.0040 h1        1 A91      0.081200
     30 H11        -0.3100    4.1270   -0.1840 ha        1 A91      0.141000
     31 H12        -2.6630    4.9460   -0.1240 ha        1 A91      0.138000
     32 H13        -4.5510    3.3110   -0.0170 ha        1 A91      0.142000
     33 H14        -4.0900    0.8700    0.0290 ha        1 A91      0.165000
     34 H18         3.7150    2.8280    0.3860 ha        1 A91      0.158000
     35 H231        6.7780    2.1680    1.4090 hc        1 A91      0.059367
     36 H232        7.2630    2.2690   -0.3360 hc        1 A91      0.059367
     37 H233        6.0010    3.4000    0.3200 hc        1 A91      0.059367
     38 H241        5.8890   -2.2850   -1.0580 hn        1 A91      0.427300
     39 H242        4.2520   -2.6560   -1.2380 hn        1 A91      0.427300
@<TRIPOS>BOND
     1    1    2 2   
     2    1    5 1   
     3    1   25 1   
     4    2    3 1   
     5    2   26 1   
     6    3    4 1   
     7    3    7 1   
     8    4    5 1   
     9    4    6 2   
    10    7    8 1   
    11    7   27 1   
    12    8    9 1   
    13    8   28 1   
    14    8   29 1   
    15    9   10 ar  
    16    9   14 ar  
    17   10   11 ar  
    18   10   15 1   
    19   11   12 ar  
    20   11   30 1   
    21   12   13 ar  
    22   12   31 1   
    23   13   14 ar  
    24   13   32 1   
    25   14   33 1   
    26   15   16 3   
    27   16   17 1   
    28   17   18 ar  
    29   17   22 ar  
    30   18   19 ar  
    31   18   34 1   
    32   19   20 ar  
    33   19   23 1   
    34   20   21 ar  
    35   21   22 ar  
    36   21   24 1   
    37   23   35 1   
    38   23   36 1   
    39   23   37 1   
    40   24   38 1   
    41   24   39 1   
@<TRIPOS>SUBSTRUCTURE
     1 A91         1 TEMP              0 ****  ****    0 ROOT
