@<TRIPOS>MOLECULE
A91
   39    34     1     0     0
SMALL
bcc


@<TRIPOS>ATOM
      1 C1         -3.7270    1.7140    3.1430 c1        1 A91     -0.103500
      2 C2         -3.3430    0.4140    3.1250 c1        1 A91     -0.103500
      3 N3         -2.0530    0.2280    2.7810 n2        1 A91     -0.176000
      4 C4         -1.5190    1.6720    2.5450 c2        1 A91      0.320000
      5 O5         -2.7460    2.5810    2.8220 o         1 A91     -0.240000
      6 O6         -0.5080    1.9830    1.8750 o         1 A91     -0.240000
      7 N7         -1.2740   -0.9010    3.0740 n3        1 A91     -0.143000
      8 C8         -0.6520   -1.3820    1.8640 c3        1 A91     -0.092000
      9 C9          0.7750   -1.7160    2.1400 c2        1 A91     -0.070000
     10 C10         1.7590   -1.4980    1.1460 c1        1 A91      0.041000
     11 C11         3.0610   -1.9150    1.3580 c2        1 A91     -0.104000
     12 C12         3.4050   -2.5550    2.5620 c1        1 A91     -0.124000
     13 C13         2.4320   -2.7690    3.5410 c1        1 A91     -0.123000
     14 C14         1.1160   -2.3470    3.3240 c2        1 A91     -0.110000
     15 C15         1.3630   -0.8600   -0.2210 c1        1 A91     -0.089000
     16 C16         1.0630   -0.3630   -1.2800 c1        1 A91     -0.089000
     17 C17         0.6860    0.2730   -2.6200 c1        1 A91      0.151000
     18 C18        -0.2810    1.2370   -2.6690 c2        1 A91     -0.261000
     19 C19        -0.5590    1.8750   -3.8540 c1        1 A91      0.059000
     20 N20         0.1300    1.5480   -4.9810 n2        1 A91     -0.223000
     21 C21         1.0910    0.5910   -4.9340 c1        1 A91      0.143000
     22 N22         1.3710   -0.0540   -3.7380 n1        1 A91     -0.214000
     23 C23        -1.5840    2.9720   -3.8870 c2        1 A91     -0.182000
     24 N24         1.7750    0.1860   -6.1560 n3        1 A91     -0.320000
     25 H1         -4.4860    2.0080    3.7440 ha        1 A91      0.203000
     26 H2         -3.7810   -0.2190    3.6930 ha        1 A91      0.203000
     27 HN7        -0.6500   -0.6820    3.6610 hn        1 A91      0.188000
     28 H81        -1.1280   -2.1950    1.5450 h1        1 A91      0.105000
     29 H82        -0.6970   -0.6810    1.1720 h1        1 A91      0.105000
     30 H11         3.7430   -1.7630    0.6690 ha        1 A91      0.148000
     31 H12         4.3880   -2.8710    2.7240 ha        1 A91      0.139000
     32 H13         2.6690   -3.2150    4.3800 ha        1 A91      0.137000
     33 H14         0.4500   -2.4930    3.9950 ha        1 A91      0.144000
     34 H18        -0.7790    1.4750   -1.8570 ha        1 A91      0.183000
     35 H231       -1.1320    3.8530   -3.7590 ha        1 A91      0.100667
     36 H232       -2.0440    2.9650   -4.7440 ha        1 A91      0.100667
     37 H233       -2.2740    2.8200   -3.1210 ha        1 A91      0.100667
     38 H241        1.4930    0.4880   -6.9420 hn        1 A91      0.218000
     39 H242        2.4450   -0.4040   -6.1200 hn        1 A91      0.218000
@<TRIPOS>BOND
     1    1    2 1   
     2    1   25 1   
     3    2   26 1   
     4    3    4 1   
     5    3    7 1   
     6    4    5 1   
     7    4    6 1   
     8    7    8 1   
     9    7   27 1   
    10    8    9 1   
    11    8   28 1   
    12    8   29 1   
    13    9   10 1   
    14    9   14 1   
    15   10   11 1   
    16   11   12 1   
    17   11   30 1   
    18   12   31 1   
    19   13   14 1   
    20   13   32 1   
    21   14   33 1   
    22   15   16 1   
    23   17   18 1   
    24   17   22 1   
    25   18   19 1   
    26   18   34 1   
    27   19   20 1   
    28   20   21 1   
    29   21   24 1   
    30   23   35 1   
    31   23   36 1   
    32   23   37 1   
    33   24   38 1   
    34   24   39 1   
@<TRIPOS>SUBSTRUCTURE
     1 A91         1 TEMP              0 ****  ****    0 ROOT
