@<TRIPOS>MOLECULE
A91
   40    42     1     0     0
SMALL
bcc


@<TRIPOS>ATOM
      1 C1          0.4300    2.1820    0.0130 cc        1 A91      0.064100
      2 C2          1.6670    1.6770   -0.2580 cd        1 A91     -0.208400
      3 N3          1.9580    0.6240    0.6970 n         1 A91     -0.229400
      4 C4          0.8390    0.7010    1.6660 c         1 A91      0.757600
      5 O5         -0.1080    1.5950    1.1780 os        1 A91     -0.263200
      6 O6          0.6580    0.0660    2.6880 o         1 A91     -0.480500
      7 N7          3.2540    0.4940    1.2130 ny        1 A91     -0.555000
      8 C8          3.7340    1.5080    2.2440 c3        1 A91      0.158100
      9 C9          5.0040    1.0610    2.8800 ca        1 A91     -0.168300
     10 C10         6.1960    0.9820    2.1230 ca        1 A91      0.041000
     11 C11         7.4000    0.6600    2.7610 ca        1 A91     -0.089000
     12 C12         7.4170    0.4100    4.1350 ca        1 A91     -0.081000
     13 C13         6.2380    0.4720    4.8770 ca        1 A91     -0.108000
     14 C14         5.0330    0.7950    4.2510 ca        1 A91     -0.083000
     15 C15         6.1460    1.2010    0.7350 cg        1 A91     -0.143000
     16 C16         6.0720    1.3710   -0.4500 ch        1 A91     -0.170000
     17 C17         5.8890    1.5470   -1.8460 ca        1 A91      0.559300
     18 C18         6.9390    2.0140   -2.6440 ca        1 A91     -0.370600
     19 C19         6.6760    2.1660   -4.0370 ca        1 A91      0.506600
     20 N20         5.4810    1.8770   -4.5730 nb        1 A91     -0.720000
     21 C21         4.4860    1.4270   -3.7000 ca        1 A91      0.884900
     22 N22         4.6520    1.2410   -2.3400 nb        1 A91     -0.814000
     23 C23         7.7880    2.6570   -4.9070 c3        1 A91     -0.168400
     24 N24         3.2100    1.2220   -4.2360 nv        1 A91     -0.919500
     25 H1         -0.2300    2.9100   -0.4650 h4        1 A91      0.244000
     26 H2          2.3500    1.8830   -1.0910 h4        1 A91      0.240000
     27 HN7         3.9070    0.5090    0.3980 hn        1 A91      0.489300
     28 H81         3.8840    2.4890    1.7060 hx        1 A91      0.114200
     29 H82         2.9200    1.6260    3.0190 hx        1 A91      0.114200
     30 H11         8.3320    0.6060    2.1760 ha        1 A91      0.166000
     31 H12         8.3700    0.1620    4.6320 ha        1 A91      0.166000
     32 H13         6.2550    0.2700    5.9600 ha        1 A91      0.166000
     33 H14         4.1080    0.8510    4.8480 ha        1 A91      0.153000
     34 H18         7.9250    2.2530   -2.2300 ha        1 A91      0.172000
     35 H231        8.0920    3.6790   -4.5660 hc        1 A91      0.074367
     36 H232        7.4970    2.7110   -5.9850 hc        1 A91      0.074367
     37 H233        8.6640    1.9680   -4.8060 hc        1 A91      0.074367
     38 H241        2.6280    0.5720   -3.7590 hn        1 A91      0.431800
     39 H242        3.1500    1.2020   -5.2310 hn        1 A91      0.431800
     40 H72         3.2860   -0.4510    1.6440 hn        1 A91      0.489300
@<TRIPOS>BOND
     1    1    2 2   
     2    1    5 1   
     3    1   25 1   
     4    2    3 1   
     5    2   26 1   
     6    3    4 1   
     7    3    7 1   
     8    4    5 1   
     9    4    6 2   
    10    7    8 1   
    11    7   27 1   
    12    7   40 1   
    13    8    9 1   
    14    8   28 1   
    15    8   29 1   
    16    9   10 ar  
    17    9   14 ar  
    18   10   11 ar  
    19   10   15 1   
    20   11   12 ar  
    21   11   30 1   
    22   12   13 ar  
    23   12   31 1   
    24   13   14 ar  
    25   13   32 1   
    26   14   33 1   
    27   15   16 3   
    28   16   17 1   
    29   17   18 ar  
    30   17   22 ar  
    31   18   19 ar  
    32   18   34 1   
    33   19   20 ar  
    34   19   23 1   
    35   20   21 ar  
    36   21   22 ar  
    37   21   24 1   
    38   23   35 1   
    39   23   36 1   
    40   23   37 1   
    41   24   38 1   
    42   24   39 1   
@<TRIPOS>SUBSTRUCTURE
     1 A91         1 TEMP              0 ****  ****    0 ROOT
