@<TRIPOS>MOLECULE
A91
   40    41     1     0     0
SMALL
bcc


@<TRIPOS>ATOM
      1 C1          2.4870   -3.1280   -2.9360 cc        1 A91      0.133100
      2 C2          3.6140   -2.9740   -2.1860 cd        1 A91     -0.183400
      3 N3          3.4220   -1.8310   -1.2980 n         1 A91     -0.016600
      4 C4          1.9990   -1.3420   -1.6310 c         1 A91      0.794600
      5 O5          1.5020   -2.1720   -2.6170 os        1 A91     -0.234200
      6 O6          1.3890   -0.4490   -1.0990 o         1 A91     -0.385500
      7 N7          4.2360   -1.4070   -0.4890 n2        1 A91     -0.129400
      8 C8          3.2300    3.5910    3.4440 c3        1 A91     -0.066800
      9 C9          4.5030    2.8920    3.7340 ca        1 A91     -0.027300
     10 C10         5.2330    2.2390    2.7190 ca        1 A91     -0.039000
     11 C11         6.4360    1.5810    3.0340 ca        1 A91     -0.094000
     12 C12         6.9060    1.5670    4.3420 ca        1 A91     -0.136000
     13 C13         6.1830    2.2100    5.3500 ca        1 A91     -0.089000
     14 C14         4.9930    2.8650    5.0460 ca        1 A91     -0.135000
     15 C15         4.7840    2.2450    1.3860 cg        1 A91      0.016000
     16 C16         4.4100    2.2430    0.2450 ch        1 A91     -0.315000
     17 C17         3.9760    2.2890   -1.0990 ca        1 A91      0.613300
     18 C18         3.6790    3.5320   -1.6960 ca        1 A91     -0.341600
     19 C19         3.2370    3.5300   -3.0410 ca        1 A91      0.494600
     20 N20         3.1100    2.3800   -3.7430 nb        1 A91     -0.715000
     21 C21         3.4220    1.2100   -3.0860 ca        1 A91      0.807900
     22 N22         3.8490    1.1150   -1.7820 nb        1 A91     -0.808000
     23 C23         2.9100    4.8280   -3.7040 c3        1 A91     -0.167400
     24 N24         3.2470   -0.0490   -3.7750 nh        1 A91     -0.927500
     25 H1          2.1820   -3.8320   -3.7200 h4        1 A91      0.258000
     26 H2          4.5580   -3.5360   -2.1720 h4        1 A91      0.253000
     27 HN7         3.9540   -0.5760    0.0440 hn        1 A91      0.500400
     28 H81         3.1090    4.4830    4.1090 hc        1 A91      0.055033
     29 H82         2.3670    2.9020    3.6260 hc        1 A91      0.055033
     30 H11         7.0110    1.0860    2.2370 ha        1 A91      0.136000
     31 H12         7.8510    1.0560    4.5820 ha        1 A91      0.147000
     32 H13         6.5570    2.2010    6.3860 ha        1 A91      0.149000
     33 H14         4.4280    3.3760    5.8420 ha        1 A91      0.149000
     34 H18         3.7890    4.4690   -1.1340 ha        1 A91      0.180000
     35 H231        1.8460    4.8310   -4.0510 hc        1 A91      0.075367
     36 H232        3.0600    5.6750   -2.9900 hc        1 A91      0.075367
     37 H233        3.5690    4.9860   -4.5950 hc        1 A91      0.075367
     38 H241        4.1450   -0.3860   -4.0770 hn        1 A91      0.394800
     39 H242        2.6520    0.0700   -4.5770 hn        1 A91      0.394800
     40 H72         3.1870    3.9360    2.3820 hc        1 A91      0.055033
@<TRIPOS>BOND
     1    1    2 2   
     2    1    5 1   
     3    1   25 1   
     4    2    3 1   
     5    2   26 1   
     6    3    4 1   
     7    3    7 2   
     8    4    5 1   
     9    4    6 2   
    10    7   27 1   
    11    8    9 1   
    12    8   28 1   
    13    8   29 1   
    14    8   40 1   
    15    9   10 ar  
    16    9   14 ar  
    17   10   11 ar  
    18   10   15 1   
    19   11   12 ar  
    20   11   30 1   
    21   12   13 ar  
    22   12   31 1   
    23   13   14 ar  
    24   13   32 1   
    25   14   33 1   
    26   15   16 3   
    27   16   17 1   
    28   17   18 ar  
    29   17   22 ar  
    30   18   19 ar  
    31   18   34 1   
    32   19   20 ar  
    33   19   23 1   
    34   20   21 ar  
    35   21   22 ar  
    36   21   24 1   
    37   23   35 1   
    38   23   36 1   
    39   23   37 1   
    40   24   38 1   
    41   24   39 1   
@<TRIPOS>SUBSTRUCTURE
     1 A91         1 TEMP              0 ****  ****    0 ROOT
