@<TRIPOS>MOLECULE
A92
   45    48     1     0     0
SMALL
bcc


@<TRIPOS>ATOM
      1 F          -0.0160   -0.7580    0.0210 f         1 A92     -0.108000
      2 C1          2.0720   -0.0610   -6.4780 c1        1 A92     -0.027000
      3 C2          3.5150    0.2670    0.0480 ca        1 A92     -0.036000
      4 C3          0.6330    0.1100   -6.3190 c3        1 A92     -0.170000
      5 C4          3.7460    0.2990    1.4180 ca        1 A92     -0.138000
      6 C5          2.9260   -0.2900   -5.3600 c2        1 A92     -0.112000
      7 C6          1.4640   -0.3770    1.8350 ca        1 A92     -0.165000
      8 C7          2.2510   -0.0760   -0.4640 ca        1 A92     -0.133000
      9 C8          0.0660    0.1540   -4.9410 c2        1 A92     -0.324000
     10 C9          2.7240   -0.0230    2.3200 ca        1 A92      0.023000
     11 C10         0.9490    0.0530   -3.8830 c2        1 A92      0.155000
     12 C11         2.4340   -0.1730   -4.0950 c2        1 A92      0.016000
     13 C12         1.2200   -0.4030    0.4510 ca        1 A92      0.128000
     14 C13         2.0720   -0.0920   -1.9120 c2        1 A92      0.183000
     15 C15         3.1860   -1.4190    5.8560 c3        1 A92     -0.158000
     16 C16         2.2630   -0.4540    6.5710 c3        1 A92     -0.196000
     17 C17         2.9360   -1.4240    4.3620 c3        1 A92     -0.187000
     18 C18         2.3290    0.9340    5.9320 c3        1 A92     -0.089000
     19 C19         2.9990    0.0110    3.8040 c3        1 A92     -0.014000
     20 N20         0.7740    0.0910   -2.5220 na        1 A92     -0.259000
     21 N21         3.0470   -0.2440   -2.8230 n2        1 A92     -0.136000
     22 N22         2.1310    0.9640    4.4940 n3        1 A92     -0.268000
     23 N23        -2.2380    0.3810   -5.9080 n4        1 A92     -0.138000
     24 O24        -1.9460    0.3850   -3.6210 o         1 A92     -0.247000
     25 H1          0.4000    1.0770   -6.8600 hc        1 A92      0.149000
     26 H2          4.3370    0.5220   -0.6430 ha        1 A92      0.170000
     27 H3          0.1730   -0.7330   -6.9180 hc        1 A92      0.149000
     28 H4          4.7420    0.5840    1.7940 ha        1 A92      0.164000
     29 H5          3.9900   -0.5230   -5.5530 ha        1 A92      0.200000
     30 H6          0.6470   -0.6430    2.5240 ha        1 A92      0.166000
     31 H15         4.2520   -1.1290    6.0540 hc        1 A92      0.091500
     32 H15A        3.0390   -2.4540    6.2620 hc        1 A92      0.091500
     33 H16         1.2110   -0.8400    6.5370 hc        1 A92      0.092000
     34 H16A        2.5570   -0.3730    7.6490 hc        1 A92      0.092000
     35 H17         3.7090   -2.0520    3.8500 hc        1 A92      0.089000
     36 H17A        1.9320   -1.8720    4.1450 hc        1 A92      0.089000
     37 H18         1.5510    1.6000    6.4000 h1        1 A92      0.101500
     38 H18A        3.3410    1.3840    6.1430 h1        1 A92      0.101500
     39 H19         4.0560    0.3900    3.9630 h1        1 A92      0.119000
     40 HN20       -0.0870    0.1730   -2.0310 hn        1 A92      0.301000
     41 HN22        1.1700    0.7630    4.2780 hn        1 A92      0.143000
     42 HN23       -2.1700   -0.4880   -6.4440 hn        1 A92      0.259333
     43 HN2A       -3.2090    0.5210   -5.6070 hn        1 A92      0.259333
     44 H233       -1.9470    1.1600   -6.5030 hn        1 A92      0.259333
     45 C14        -1.3330    0.3010   -4.6840 c2        1 A92      0.311000
@<TRIPOS>BOND
     1    1   13 1   
     2    2    4 1   
     3    2    6 1   
     4    3    5 1   
     5    3    8 1   
     6    3   26 1   
     7    4    9 1   
     8    4   25 1   
     9    4   27 1   
    10    5   10 1   
    11    5   28 1   
    12    6   12 1   
    13    6   29 1   
    14    7   10 1   
    15    7   13 1   
    16    7   30 1   
    17    8   13 1   
    18    8   14 1   
    19    9   11 1   
    20    9   45 1   
    21   10   19 1   
    22   11   12 1   
    23   11   20 1   
    24   12   21 1   
    25   14   20 1   
    26   14   21 1   
    27   15   16 1   
    28   15   17 1   
    29   15   31 1   
    30   15   32 1   
    31   16   18 1   
    32   16   33 1   
    33   16   34 1   
    34   17   19 1   
    35   17   35 1   
    36   17   36 1   
    37   18   22 1   
    38   18   37 1   
    39   18   38 1   
    40   19   22 1   
    41   19   39 1   
    42   20   40 1   
    43   22   41 1   
    44   23   42 1   
    45   23   43 1   
    46   23   44 1   
    47   23   45 1   
    48   24   45 1   
@<TRIPOS>SUBSTRUCTURE
     1 A92         1 TEMP              0 ****  ****    0 ROOT
