@<TRIPOS>MOLECULE
A92
   45    48     1     0     0
SMALL
bcc


@<TRIPOS>ATOM
      1 F          -0.0030   -0.7560    0.0280 f         1 A92     -0.108000
      2 C1          2.0710   -0.0650   -6.4760 c1        1 A92     -0.027000
      3 C2          3.5280    0.2680    0.0460 ca        1 A92     -0.036000
      4 C3          0.6320    0.1050   -6.3140 c3        1 A92     -0.170000
      5 C4          3.7620    0.3000    1.4150 ca        1 A92     -0.138000
      6 C5          2.9280   -0.2930   -5.3610 c2        1 A92     -0.112000
      7 C6          1.4800   -0.3740    1.8380 ca        1 A92     -0.165000
      8 C7          2.2620   -0.0760   -0.4630 ca        1 A92     -0.133000
      9 C8          0.0680    0.1500   -4.9360 c2        1 A92     -0.324000
     10 C9          2.7420   -0.0210    2.3200 ca        1 A92      0.023000
     11 C10         0.9530    0.0510   -3.8800 c2        1 A92      0.155000
     12 C11         2.4380   -0.1750   -4.0950 c2        1 A92      0.016000
     13 C12         1.2340   -0.4020    0.4550 ca        1 A92      0.128000
     14 C13         2.0810   -0.0920   -1.9100 c2        1 A92      0.183000
     15 C15         3.2100   -1.4150    5.8560 c3        1 A92     -0.158000
     16 C16         2.2890   -0.4490    6.5720 c3        1 A92     -0.196000
     17 C17         2.9570   -1.4210    4.3620 c3        1 A92     -0.187000
     18 C18         2.3560    0.9380    5.9330 c3        1 A92     -0.089000
     19 C19         3.0210    0.0130    3.8030 c3        1 A92     -0.014000
     20 N20         0.7810    0.0900   -2.5180 na        1 A92     -0.259000
     21 N21         3.0540   -0.2450   -2.8230 n2        1 A92     -0.136000
     22 N22         2.1550    0.9680    4.4950 n7        1 A92     -0.268000
     23 N23        -2.2380    0.3750   -5.8970 nz        1 A92     -0.138000
     24 O24        -1.9420    0.3820   -3.6120 o         1 A92     -0.247000
     25 H1          0.3980    1.0720   -6.8560 hc        1 A92      0.149000
     26 H2          4.3490    0.5220   -0.6470 ha        1 A92      0.170000
     27 H3          0.1720   -0.7390   -6.9120 hc        1 A92      0.149000
     28 H4          4.7590    0.5860    1.7890 ha        1 A92      0.164000
     29 H5          3.9910   -0.5250   -5.5560 ha        1 A92      0.200000
     30 H6          0.6650   -0.6400    2.5290 ha        1 A92      0.166000
     31 H15         4.2770   -1.1270    6.0510 hc        1 A92      0.091500
     32 H15A        3.0630   -2.4500    6.2620 hc        1 A92      0.091500
     33 H16         1.2370   -0.8340    6.5400 hc        1 A92      0.092000
     34 H16A        2.5860   -0.3680    7.6490 hc        1 A92      0.092000
     35 H17         3.7280   -2.0500    3.8480 hc        1 A92      0.089000
     36 H17A        1.9520   -1.8690    4.1470 hc        1 A92      0.089000
     37 H18         1.5800    1.6050    6.4010 h1        1 A92      0.101500
     38 H18A        3.3680    1.3870    6.1410 h1        1 A92      0.101500
     39 H19         4.0780    0.3910    3.9600 h1        1 A92      0.119000
     40 HN20       -0.0790    0.1720   -2.0260 hn        1 A92      0.301000
     41 HN22        1.1930    0.7670    4.2810 hn        1 A92      0.143000
     42 HN23       -2.1700   -0.4940   -6.4330 hn        1 A92      0.259333
     43 HN2A       -3.2090    0.5160   -5.5950 hn        1 A92      0.259333
     44 H233       -1.9480    1.1540   -6.4940 hn        1 A92      0.259333
     45 C14        -1.3300    0.2970   -4.6760 c2        1 A92      0.311000
@<TRIPOS>BOND
     1    1   13 1   
     2    2    4 1   
     3    2    6 1   
     4    3    5 1   
     5    3    8 1   
     6    3   26 1   
     7    4    9 1   
     8    4   25 1   
     9    4   27 1   
    10    5   10 1   
    11    5   28 1   
    12    6   12 1   
    13    6   29 1   
    14    7   10 1   
    15    7   13 1   
    16    7   30 1   
    17    8   13 1   
    18    8   14 1   
    19    9   11 1   
    20    9   45 1   
    21   10   19 1   
    22   11   12 1   
    23   11   20 1   
    24   12   21 1   
    25   14   20 1   
    26   14   21 1   
    27   15   16 1   
    28   15   17 1   
    29   15   31 1   
    30   15   32 1   
    31   16   18 1   
    32   16   33 1   
    33   16   34 1   
    34   17   19 1   
    35   17   35 1   
    36   17   36 1   
    37   18   22 1   
    38   18   37 1   
    39   18   38 1   
    40   19   22 1   
    41   19   39 1   
    42   20   40 1   
    43   22   41 1   
    44   23   42 1   
    45   23   43 1   
    46   23   44 1   
    47   23   45 1   
    48   24   45 1   
@<TRIPOS>SUBSTRUCTURE
     1 A92         1 TEMP              0 ****  ****    0 ROOT
