@<TRIPOS>MOLECULE
A92
   45    48     1     0     0
SMALL
bcc


@<TRIPOS>ATOM
      1 F          -0.0100   -0.7770    0.0370 f         1 A92     -0.108000
      2 C1          2.0320   -0.0550   -6.4740 c1        1 A92     -0.027000
      3 C2          3.5110    0.2800    0.0440 ca        1 A92     -0.036000
      4 C3          0.5930    0.1020   -6.3060 c3        1 A92     -0.170000
      5 C4          3.7500    0.3120    1.4120 ca        1 A92     -0.138000
      6 C5          2.8960   -0.2770   -5.3620 c2        1 A92     -0.112000
      7 C6          1.4770   -0.3840    1.8420 ca        1 A92     -0.165000
      8 C7          2.2470   -0.0750   -0.4610 ca        1 A92     -0.133000
      9 C8          0.0340    0.1390   -4.9250 c2        1 A92     -0.324000
     10 C9          2.7370   -0.0200    2.3200 ca        1 A92      0.023000
     11 C10         0.9240    0.0460   -3.8720 c2        1 A92      0.155000
     12 C11         2.4100   -0.1660   -4.0940 c2        1 A92      0.016000
     13 C12         1.2250   -0.4120    0.4600 ca        1 A92      0.128000
     14 C13         2.0600   -0.0900   -1.9080 c2        1 A92      0.183000
     15 C15         3.2310   -1.4140    5.8530 c3        1 A92     -0.158000
     16 C16         2.3040   -0.4580    6.5730 c3        1 A92     -0.196000
     17 C17         2.9730   -1.4210    4.3600 c3        1 A92     -0.187000
     18 C18         2.3540    0.9300    5.9360 c3        1 A92     -0.089000
     19 C19         3.0200    0.0150    3.8020 c3        1 A92     -0.014000
     20 N20         0.7570    0.0810   -2.5110 na        1 A92     -0.259000
     21 N21         3.0310   -0.2320   -2.8250 n2        1 A92     -0.136000
     22 N22         2.1480    0.9600    4.4990 n3        1 A92     -0.268000
     23 N23        -2.2780    0.3430   -5.8770 n4        1 A92     -0.138000
     24 O24        -1.9730    0.3490   -3.5930 o         1 A92     -0.247000
     25 H1          0.3470    1.0670   -6.8450 hc        1 A92      0.149000
     26 H2          4.3270    0.5420   -0.6520 ha        1 A92      0.170000
     27 H3          0.1380   -0.7450   -6.9030 hc        1 A92      0.149000
     28 H4          4.7460    0.6060    1.7830 ha        1 A92      0.164000
     29 H5          3.9600   -0.4990   -5.5610 ha        1 A92      0.200000
     30 H6          0.6660   -0.6590    2.5360 ha        1 A92      0.166000
     31 H15         4.2960   -1.1160    6.0450 hc        1 A92      0.091500
     32 H15A        3.0950   -2.4510    6.2580 hc        1 A92      0.091500
     33 H16         1.2550   -0.8530    6.5450 hc        1 A92      0.092000
     34 H16A        2.6030   -0.3760    7.6490 hc        1 A92      0.092000
     35 H17         3.7480   -2.0410    3.8420 hc        1 A92      0.089000
     36 H17A        1.9720   -1.8780    4.1480 hc        1 A92      0.089000
     37 H18         1.5730    1.5890    6.4080 h1        1 A92      0.101500
     38 H18A        3.3630    1.3890    6.1400 h1        1 A92      0.101500
     39 H19         4.0750    0.4030    3.9560 h1        1 A92      0.119000
     40 HN20       -0.1020    0.1540   -2.0140 hn        1 A92      0.301000
     41 HN22        1.1870    0.7510    4.2880 hn        1 A92      0.143000
     42 HN23       -2.2050   -0.5240   -6.4140 hn        1 A92      0.259333
     43 HN2A       -3.2490    0.4750   -5.5710 hn        1 A92      0.259333
     44 H233       -1.9980    1.1260   -6.4740 hn        1 A92      0.259333
     45 C14        -1.3650    0.2720   -4.6600 c2        1 A92      0.311000
@<TRIPOS>BOND
     1    1   13 1   
     2    2    4 1   
     3    2    6 1   
     4    3    5 1   
     5    3    8 1   
     6    3   26 1   
     7    4    9 1   
     8    4   25 1   
     9    4   27 1   
    10    5   10 1   
    11    5   28 1   
    12    6   12 1   
    13    6   29 1   
    14    7   10 1   
    15    7   13 1   
    16    7   30 1   
    17    8   13 1   
    18    8   14 1   
    19    9   11 1   
    20    9   45 1   
    21   10   19 1   
    22   11   12 1   
    23   11   20 1   
    24   12   21 1   
    25   14   20 1   
    26   14   21 1   
    27   15   16 1   
    28   15   17 1   
    29   15   31 1   
    30   15   32 1   
    31   16   18 1   
    32   16   33 1   
    33   16   34 1   
    34   17   19 1   
    35   17   35 1   
    36   17   36 1   
    37   18   22 1   
    38   18   37 1   
    39   18   38 1   
    40   19   22 1   
    41   19   39 1   
    42   20   40 1   
    43   22   41 1   
    44   23   42 1   
    45   23   43 1   
    46   23   44 1   
    47   23   45 1   
    48   24   45 1   
@<TRIPOS>SUBSTRUCTURE
     1 A92         1 TEMP              0 ****  ****    0 ROOT
