@<TRIPOS>MOLECULE
A92
   44    47     1     0     0
SMALL
bcc


@<TRIPOS>ATOM
      1 F           0.2340   -1.6060   -0.8270 f         1 A92     -0.137900
      2 C1         -5.6040    1.8560   -0.2420 ca        1 A92     -0.171000
      3 C2          1.0280    1.7400    0.4610 ca        1 A92     -0.063000
      4 C3         -5.7460    0.4760   -0.0200 ca        1 A92     -0.080000
      5 C4          2.4140    1.6510    0.5290 ca        1 A92     -0.139000
      6 C5         -4.3610    2.4640   -0.3470 ca        1 A92     -0.041000
      7 C6          2.3240   -0.6110   -0.3070 ca        1 A92     -0.168000
      8 C7          0.2570    0.6590    0.0110 ca        1 A92     -0.147900
      9 C8         -4.6440   -0.3650    0.1060 ca        1 A92     -0.147600
     10 C9          3.0700    0.4780    0.1420 ca        1 A92     -0.031300
     11 C10        -3.3730    0.2350    0.0230 ca        1 A92     -0.024200
     12 C11        -3.2190    1.6630   -0.2140 ca        1 A92      0.054400
     13 C12         0.9200   -0.5280   -0.3760 ca        1 A92      0.142900
     14 C13        -1.1990    0.8070   -0.0510 cc        1 A92      0.470400
     15 C15         6.6410    0.1480   -1.2040 c3        1 A92     -0.077400
     16 C16         7.0870   -0.9730   -0.2890 c3        1 A92     -0.116400
     17 C17         5.1330    0.2750   -1.2240 c3        1 A92     -0.109400
     18 C18         6.4690   -0.8100    1.1000 c3        1 A92      0.152800
     19 C19         4.5750    0.4050    0.2070 c3        1 A92      0.204800
     20 N20        -2.0870   -0.2790    0.1260 na        1 A92     -0.245300
     21 N21        -1.8510    1.9800   -0.2580 nd        1 A92     -0.563100
     22 N22         5.0300   -0.6350    1.1290 n3        1 A92     -0.793200
     23 N23        -5.9090   -2.4840    0.0690 n         1 A92     -0.667000
     24 O24        -3.7500   -2.4940    0.7410 o         1 A92     -0.641100
     25 H1         -6.5120    2.4700   -0.3340 ha        1 A92      0.137000
     26 H2          0.5270    2.6740    0.7660 ha        1 A92      0.163000
     27 H3         -6.7680    0.0760    0.0660 ha        1 A92      0.129000
     28 H4          2.9960    2.5110    0.8950 ha        1 A92      0.145000
     29 H5         -4.2660    3.5450   -0.5260 ha        1 A92      0.151000
     30 H6          2.8150   -1.5450   -0.6180 ha        1 A92      0.150000
     31 H15         7.0910    1.1150   -0.8540 hc        1 A92      0.044200
     32 H15A        7.0150   -0.0390   -2.2440 hc        1 A92      0.044200
     33 H16         6.7880   -1.9610   -0.7270 hc        1 A92      0.045200
     34 H16A        8.2030   -0.9700   -0.1960 hc        1 A92      0.045200
     35 H17         4.8330    1.1790   -1.8130 hc        1 A92      0.049700
     36 H17A        4.6820   -0.6220   -1.7250 hc        1 A92      0.049700
     37 H18         6.7210   -1.7100    1.7280 h1        1 A92      0.054200
     38 H18A        6.9260    0.0950    1.5930 h1        1 A92      0.054200
     39 H19         4.9650    1.3800    0.6330 h1        1 A92      0.069700
     40 HN20       -1.8580   -1.2310    0.2920 hn        1 A92      0.342700
     41 HN22        4.5720   -1.5030    0.9130 hn        1 A92      0.352800
     42 HN23       -6.6850   -2.0180   -0.3210 hn        1 A92      0.314000
     43 HN2A       -5.9550   -3.4640    0.2020 hn        1 A92      0.314000
     44 C14        -4.7310   -1.8310    0.3290 c         1 A92      0.682700
@<TRIPOS>BOND
     1    1   13 1   
     2    2    4 ar  
     3    2    6 ar  
     4    2   25 1   
     5    3    5 ar  
     6    3    8 ar  
     7    3   26 1   
     8    4    9 ar  
     9    4   27 1   
    10    5   10 ar  
    11    5   28 1   
    12    6   12 ar  
    13    6   29 1   
    14    7   10 ar  
    15    7   13 ar  
    16    7   30 1   
    17    8   13 ar  
    18    8   14 1   
    19    9   11 ar  
    20    9   44 1   
    21   10   19 1   
    22   11   12 ar  
    23   11   20 1   
    24   12   21 1   
    25   14   20 1   
    26   14   21 2   
    27   15   16 1   
    28   15   17 1   
    29   15   31 1   
    30   15   32 1   
    31   16   18 1   
    32   16   33 1   
    33   16   34 1   
    34   17   19 1   
    35   17   35 1   
    36   17   36 1   
    37   18   22 1   
    38   18   37 1   
    39   18   38 1   
    40   19   22 1   
    41   19   39 1   
    42   20   40 1   
    43   22   41 1   
    44   23   42 1   
    45   23   43 1   
    46   23   44 1   
    47   24   44 2   
@<TRIPOS>SUBSTRUCTURE
     1 A92         1 TEMP              0 ****  ****    0 ROOT
