@<TRIPOS>MOLECULE
A92
   44    37     1     0     0
SMALL
bcc


@<TRIPOS>ATOM
      1 F          -2.3540   -0.0240    0.0790 f         1 A92     -0.102000
      2 C1         -1.2390   -1.5720   -6.0900 c1        1 A92     -0.117000
      3 C2          1.2640   -0.0690   -0.1330 c1        1 A92     -0.117000
      4 C3         -1.3070   -0.2100   -6.3420 c1        1 A92     -0.117000
      5 C4          1.5990   -0.0880    1.2140 c1        1 A92     -0.117000
      6 C5         -0.9550   -2.0280   -4.8110 c1        1 A92     -0.042000
      7 C6         -0.7320   -0.0610    1.7950 c1        1 A92     -0.145000
      8 C7         -0.0690   -0.0460   -0.5150 c1        1 A92     -0.065000
      9 C8         -1.0920    0.6970   -5.3150 c1        1 A92     -0.126000
     10 C9          0.6000   -0.0840    2.1770 c1        1 A92     -0.039000
     11 C10        -0.8040    0.2340   -4.0140 c1        1 A92      0.020000
     12 C11        -0.7370   -1.1060   -3.7670 c1        1 A92     -0.084000
     13 C12        -1.0670   -0.0420    0.4480 c1        1 A92      0.102000
     14 C13        -0.3370   -0.0450   -1.8840 c1        1 A92      0.061000
     15 C14        -1.1890    2.1800   -5.6040 c2        1 A92      0.355000
     16 C15         1.2650   -1.4760    5.6240 c3        1 A92     -0.158000
     17 C16         0.6890   -0.3480    6.3880 c3        1 A92     -0.158000
     18 C17         0.8890   -1.4380    4.2000 c3        1 A92     -0.151000
     19 C18         0.9780    0.9900    5.7450 c3        1 A92     -0.070000
     20 C19         1.1790   -0.1000    3.5660 c3        1 A92      0.012000
     21 N20        -0.5570    0.8870   -2.8510 n1        1 A92     -0.169500
     22 N21        -0.4480   -1.2750   -2.4520 n1        1 A92     -0.169500
     23 N22         0.6080    1.0230    4.3330 n3        1 A92     -0.297000
     24 N23        -1.4970    2.6280   -6.9150 n         1 A92     -0.428000
     25 O24        -0.9700    2.9850   -4.7230 o         1 A92     -0.400000
     26 H1         -1.3910   -2.2110   -6.8140 ha        1 A92      0.142000
     27 H2          1.9650   -0.0730   -0.8100 ha        1 A92      0.142000
     28 H3         -1.5070    0.1110   -7.2430 ha        1 A92      0.142000
     29 H4          2.5370   -0.1050    1.4830 ha        1 A92      0.142000
     30 H5         -0.9070   -2.9870   -4.6340 ha        1 A92      0.151000
     31 H6         -1.4350   -0.0580    2.4730 ha        1 A92      0.169000
     32 H15         2.2400   -1.4420    5.6960 hc        1 A92      0.081000
     33 H15A        0.9480   -2.3160    6.0130 hc        1 A92      0.081000
     34 H16        -0.2810   -0.4680    6.4470 hc        1 A92      0.088000
     35 H16A        1.0640   -0.3530    7.2920 hc        1 A92      0.088000
     36 H17         1.3890   -2.1290    3.7220 hc        1 A92      0.092500
     37 H17A       -0.0670   -1.6260    4.1200 hc        1 A92      0.092500
     38 H18         0.4760    1.6850    6.2200 h1        1 A92      0.069000
     39 H18A        1.9340    1.1800    5.8260 h1        1 A92      0.069000
     40 H19         2.1460    0.0180    3.5060 h1        1 A92      0.062000
     41 HN20       -0.5390    1.7910   -2.7380 DU        1 A92      0.294000
     42 HN22        0.8810    1.8140    3.9650 hn        1 A92      0.162000
     43 HN23       -1.3800    2.0700   -7.6280 hn        1 A92      0.227500
     44 HN2A       -1.7890    3.4840   -7.0490 hn        1 A92      0.227500
@<TRIPOS>BOND
     1    1   13 1   
     2    2    4 1   
     3    2   26 1   
     4    3    5 1   
     5    3   27 1   
     6    4   28 1   
     7    5   29 1   
     8    6   12 1   
     9    6   30 1   
    10    7   10 1   
    11    7   31 1   
    12    8   13 1   
    13    9   11 1   
    14    9   15 1   
    15   10   20 1   
    16   14   21 1   
    17   14   22 1   
    18   15   24 1   
    19   15   25 1   
    20   16   17 1   
    21   16   18 1   
    22   16   32 1   
    23   16   33 1   
    24   17   19 1   
    25   17   34 1   
    26   17   35 1   
    27   18   20 1   
    28   18   36 1   
    29   18   37 1   
    30   19   23 1   
    31   19   38 1   
    32   19   39 1   
    33   20   23 1   
    34   20   40 1   
    35   23   42 1   
    36   24   43 1   
    37   24   44 1   
@<TRIPOS>SUBSTRUCTURE
     1 A92         1 TEMP              0 ****  ****    0 ROOT
