@<TRIPOS>MOLECULE
A93
   46    39     1     0     0
SMALL
bcc


@<TRIPOS>ATOM
      1 CAE        -0.0820    0.1630   -2.7870 c1        1 A93      0.357000
      2 OAE         1.1110   -0.0680   -2.7870 o         1 A93     -0.334000
      3 CAQ        -0.8520    0.1760   -1.4820 c1        1 A93     -0.089500
      4 CAI        -1.4060    1.3580   -1.0160 c2        1 A93     -0.100000
      5 CAH        -2.1220    1.3670    0.1710 c1        1 A93     -0.124000
      6 CAJ        -2.2850    0.1940    0.8910 c1        1 A93     -0.073500
      7 CAR        -1.7310   -0.9890    0.4250 c1        1 A93     -0.089500
      8 CAM        -1.0150   -0.9970   -0.7620 c1        1 A93     -0.073500
      9 CAF        -2.0160   -2.2910    1.1450 c2        1 A93     -0.100000
     10 CAG        -1.5010   -2.5100    2.3730 c1        1 A93     -0.124000
     11 CAS        -0.6390   -1.4560    3.0310 c1        1 A93     -0.087000
     12 CAL        -1.1800   -0.6290    4.0040 c2        1 A93     -0.087000
     13 CAO        -0.3680    0.2650    4.6830 c1        1 A93     -0.121000
     14 CAB        -0.9490    1.1340    5.7780 c2        1 A93     -0.174500
     15 CAP         0.9850    0.3340    4.3890 c2        1 A93      0.083000
     16 OAD         1.8000    1.2720    5.0480 oh        1 A93     -0.250000
     17 CAN         1.5260   -0.4920    3.4170 c1        1 A93     -0.121000
     18 CAA         3.0160   -0.4840    3.1640 c2        1 A93     -0.174500
     19 CAK         0.7130   -1.3870    2.7380 c2        1 A93     -0.087000
     20 O3         -0.7450    0.4340   -3.9980 os        1 A93     -0.231000
     21 HAI        -1.2910    2.1840   -1.5230 ha        1 A93      0.143000
     22 HAH        -2.5120    2.2000    0.4990 ha        1 A93      0.135500
     23 HAJ        -2.7890    0.2010    1.7270 ha        1 A93      0.154000
     24 HAM        -0.6250   -1.8300   -1.0900 ha        1 A93      0.154000
     25 HAF        -2.5730   -2.9710    0.7200 ha        1 A93      0.143000
     26 HAG        -1.6850   -3.3490    2.8370 ha        1 A93      0.135500
     27 HAL        -2.1270   -0.6990    4.2320 ha        1 A93      0.139500
     28 HAB        -0.5190    0.9160    6.6310 ha        1 A93      0.086167
     29 HABA       -1.9140    0.9710    5.8470 ha        1 A93      0.086167
     30 HABB       -0.7920    2.0770    5.5640 ha        1 A93      0.086167
     31 HOAD        2.1490    0.9020    5.7770 ho        1 A93      0.220000
     32 HAA         3.2170   -1.0380    2.3800 ha        1 A93      0.086167
     33 HAAA        3.4830   -0.8450    3.9470 ha        1 A93      0.086167
     34 HAAB        3.3150    0.4350    3.0000 ha        1 A93      0.086167
     35 HAK         1.0940   -1.9690    2.0530 ha        1 A93      0.139500
     36 C18         0.1150    0.5400   -5.1080 c1        1 A93      0.050000
     37 C19         0.4610   -0.5940   -5.8270 c1        1 A93     -0.130000
     38 C20         1.2340   -0.4790   -6.9720 c1        1 A93     -0.130000
     39 C21         1.6610    0.7680   -7.3980 c1        1 A93      0.081000
     40 C22         1.3160    1.9020   -6.6800 c1        1 A93     -0.155000
     41 C23         0.5420    1.7880   -5.5350 c1        1 A93     -0.110000
     42 H16         0.1600   -1.4720   -5.5270 ha        1 A93      0.157000
     43 H17         1.4780   -1.2780   -7.4780 ha        1 A93      0.157000
     44 F1          2.4290    0.8760   -8.4900 f         1 A93     -0.105000
     45 H18         1.6170    2.7810   -6.9800 ha        1 A93      0.152000
     46 H19         0.2990    2.5870   -5.0290 ha        1 A93      0.152000
@<TRIPOS>BOND
     1    1    2 1   
     2    1   20 1   
     3    3    4 1   
     4    3    8 1   
     5    4    5 1   
     6    4   21 1   
     7    5   22 1   
     8    6    7 1   
     9    6   23 1   
    10    7    9 1   
    11    8   24 1   
    12    9   10 1   
    13    9   25 1   
    14   10   26 1   
    15   11   12 1   
    16   11   19 1   
    17   12   13 1   
    18   12   27 1   
    19   13   15 1   
    20   14   28 1   
    21   14   29 1   
    22   14   30 1   
    23   15   16 1   
    24   15   17 1   
    25   16   31 1   
    26   17   19 1   
    27   18   32 1   
    28   18   33 1   
    29   18   34 1   
    30   19   35 1   
    31   20   36 1   
    32   36   41 1   
    33   37   38 1   
    34   37   42 1   
    35   38   43 1   
    36   39   40 1   
    37   39   44 1   
    38   40   45 1   
    39   41   46 1   
@<TRIPOS>SUBSTRUCTURE
     1 A93         1 TEMP              0 ****  ****    0 ROOT
