@<TRIPOS>MOLECULE
A93
   46    48     1     0     0
SMALL
bcc


@<TRIPOS>ATOM
      1 CAE        -2.8490    0.0970    0.1130 c         1 A93      0.655700
      2 OAE        -2.9150   -1.1200    0.2820 o         1 A93     -0.523000
      3 CAQ        -1.6500    0.9460    0.0720 ca        1 A93     -0.137600
      4 CAI        -1.7390    2.3380   -0.0500 ca        1 A93     -0.069000
      5 CAH        -0.5730    3.0990   -0.0790 ca        1 A93     -0.146000
      6 CAJ         0.6750    2.4830    0.0080 ca        1 A93     -0.088000
      7 CAR         0.7760    1.0890    0.1240 ca        1 A93     -0.061800
      8 CAM        -0.4000    0.3240    0.1620 ca        1 A93     -0.066000
      9 CAF         2.0570    0.4090    0.2200 ce        1 A93     -0.123200
     10 CAG         3.2290    0.9290   -0.1810 cf        1 A93     -0.082200
     11 CAS         4.5110    0.2530   -0.0910 ca        1 A93     -0.091800
     12 CAL         5.6870    1.0190   -0.1580 ca        1 A93     -0.085500
     13 CAO         6.9430    0.4250   -0.0740 ca        1 A93     -0.127800
     14 CAB         8.1840    1.2280   -0.1370 c3        1 A93     -0.049300
     15 CAP         7.0190   -0.9780    0.0720 ca        1 A93      0.131100
     16 OAD         8.2900   -1.5020    0.1470 oh        1 A93     -0.496100
     17 CAN         5.8570   -1.7670    0.1320 ca        1 A93     -0.127800
     18 CAA         5.9380   -3.2380    0.2780 c3        1 A93     -0.049300
     19 CAK         4.6130   -1.1360    0.0490 ca        1 A93     -0.085500
     20 O3         -4.0200    0.8090   -0.0650 os        1 A93     -0.365200
     21 HAI        -2.7270    2.8210   -0.1200 ha        1 A93      0.156000
     22 HAH        -0.6370    4.1940   -0.1690 ha        1 A93      0.141000
     23 HAJ         1.5860    3.1000   -0.0070 ha        1 A93      0.139000
     24 HAM        -0.3480   -0.7730    0.2610 ha        1 A93      0.158000
     25 HAF         2.0090   -0.6060    0.6530 ha        1 A93      0.131000
     26 HAG         3.2740    1.9450   -0.6140 ha        1 A93      0.125000
     27 HAL         5.6160    2.1120   -0.2740 ha        1 A93      0.135000
     28 HAB         8.7760    1.0880    0.8030 hc        1 A93      0.046700
     29 HABA        8.8190    0.8840   -0.9930 hc        1 A93      0.046700
     30 HABB        7.9610    2.3140   -0.2660 hc        1 A93      0.046700
     31 HOAD        8.2200   -2.4620    0.2440 ho        1 A93      0.422000
     32 HAA         6.4640   -3.5110    1.2280 hc        1 A93      0.046700
     33 HAAA        4.9200   -3.6980    0.3020 hc        1 A93      0.046700
     34 HAAB        6.5010   -3.6880   -0.5800 hc        1 A93      0.046700
     35 HAK         3.7000   -1.7510    0.0860 ha        1 A93      0.135000
     36 C18        -5.2400    0.1360   -0.0670 ca        1 A93      0.094100
     37 C19        -5.6080   -0.7580    0.9440 ca        1 A93     -0.109000
     38 C20        -6.8890   -1.3000    0.9400 ca        1 A93     -0.153000
     39 C21        -7.7960   -0.9410   -0.0740 ca        1 A93      0.115900
     40 C22        -7.4140   -0.0430   -1.0900 ca        1 A93     -0.153000
     41 C23        -6.1310    0.4920   -1.0900 ca        1 A93     -0.109000
     42 H16        -4.8810   -1.0440    1.7200 ha        1 A93      0.156500
     43 H17        -7.1990   -2.0080    1.7230 ha        1 A93      0.152500
     44 F1         -9.0450   -1.4640   -0.0770 f         1 A93     -0.139900
     45 H18        -8.1320    0.2250   -1.8780 ha        1 A93      0.152500
     46 H19        -5.8140    1.1950   -1.8740 ha        1 A93      0.156500
@<TRIPOS>BOND
     1    1    2 2   
     2    1    3 1   
     3    1   20 1   
     4    3    4 ar  
     5    3    8 ar  
     6    4    5 ar  
     7    4   21 1   
     8    5    6 ar  
     9    5   22 1   
    10    6    7 ar  
    11    6   23 1   
    12    7    8 ar  
    13    7    9 1   
    14    8   24 1   
    15    9   10 2   
    16    9   25 1   
    17   10   11 1   
    18   10   26 1   
    19   11   12 ar  
    20   11   19 ar  
    21   12   13 ar  
    22   12   27 1   
    23   13   14 1   
    24   13   15 ar  
    25   14   28 1   
    26   14   29 1   
    27   14   30 1   
    28   15   16 1   
    29   15   17 ar  
    30   16   31 1   
    31   17   18 1   
    32   17   19 ar  
    33   18   32 1   
    34   18   33 1   
    35   18   34 1   
    36   19   35 1   
    37   20   36 1   
    38   36   37 ar  
    39   36   41 ar  
    40   37   38 ar  
    41   37   42 1   
    42   38   39 ar  
    43   38   43 1   
    44   39   40 ar  
    45   39   44 1   
    46   40   41 ar  
    47   40   45 1   
    48   41   46 1   
@<TRIPOS>SUBSTRUCTURE
     1 A93         1 TEMP              0 ****  ****    0 ROOT
