@<TRIPOS>MOLECULE
A93
   46    47     1     0     0
SMALL
bcc


@<TRIPOS>ATOM
      1 CAE        -0.1380   -0.5030    1.4240 c2        1 A93      0.359000
      2 OAE         0.9810   -0.9580    1.6590 o         1 A93     -0.340000
      3 CAQ        -1.3940   -0.7170    2.1570 c2        1 A93     -0.172000
      4 CAI        -2.5700   -0.1670    1.7560 c2        1 A93     -0.039000
      5 CAH        -3.8140   -0.4280    2.5090 c3        1 A93     -0.212000
      6 CAJ        -3.7260   -1.2690    3.6990 c1        1 A93     -0.097000
      7 CAR        -2.4580   -1.7610    4.0960 c2        1 A93     -0.177000
      8 CAM        -1.3250   -1.5430    3.3450 c2        1 A93      0.097000
      9 CAF        -2.4070   -2.5250    5.3350 c2        1 A93     -0.058000
     10 CAG        -1.5930   -2.3090    6.3780 c2        1 A93     -0.130000
     11 CAS        -0.5930   -1.2600    6.5190 c2        1 A93     -0.186000
     12 CAL        -0.1730   -0.9140    7.7910 c2        1 A93      0.097000
     13 CAO         0.8070    0.1080    8.0430 c2        1 A93     -0.283000
     14 CAB         1.1560    0.3470    9.3910 c1        1 A93     -0.076000
     15 CAP         1.3560    0.7650    6.9390 c2        1 A93      0.178000
     16 OAD         2.2760    1.7260    7.1720 oh        1 A93     -0.213000
     17 CAN         0.9450    0.4410    5.5340 c3        1 A93     -0.172000
     18 CAA         2.1590    0.1130    4.6730 c3        1 A93     -0.196000
     19 CAK        -0.0620   -0.6170    5.3870 c1        1 A93     -0.102000
     20 O3         -0.2940    0.3320    0.3320 os        1 A93     -0.238000
     21 HAI        -2.6290    0.4770    0.8630 ha        1 A93      0.148000
     22 HAH        -4.2750    0.5540    2.8290 hc        1 A93      0.165000
     23 HAJ        -4.5700   -0.9120    1.8190 hc        1 A93      0.165000
     24 HAM        -0.3530   -2.0140    3.5780 ha        1 A93      0.174000
     25 HAF        -3.1680   -3.3250    5.4010 ha        1 A93      0.134000
     26 HAG        -1.6900   -2.9640    7.2640 ha        1 A93      0.117000
     27 HAL        -0.5820   -1.4160    8.6890 ha        1 A93      0.163000
     28 HAB         1.9100    1.1270    9.5780 ha        1 A93      0.050000
     29 HABA       -0.3390    2.0940    9.9160 ha        1 A93      0.008000
     30 HABB       -0.5430    1.5760   10.3060 ha        1 A93      0.008000
     31 HOAD        2.6010    2.0760    6.3240 ho        1 A93      0.244000
     32 HAA         2.7730   -0.6870    5.1510 hc        1 A93      0.099667
     33 HAAA        1.8150   -0.2530    3.6710 hc        1 A93      0.099667
     34 HAAB        2.7930    1.0200    4.5280 hc        1 A93      0.099667
     35 HAK         0.4420    1.3720    5.1140 hc        1 A93      0.165000
     36 C18         0.8060    0.6350   -0.4670 ca        1 A93      0.048000
     37 C19         1.6600   -0.3480   -0.9790 ca        1 A93     -0.111000
     38 C20         2.6670    0.0190   -1.8650 ca        1 A93     -0.152500
     39 C21         2.8120    1.3680   -2.2370 ca        1 A93      0.082000
     40 C22         1.9480    2.3510   -1.7160 ca        1 A93     -0.152500
     41 C23         0.9470    1.9850   -0.8240 ca        1 A93     -0.111000
     42 H16         1.5460   -1.3970   -0.6650 ha        1 A93      0.156000
     43 H17         3.3520   -0.7370   -2.2770 ha        1 A93      0.154000
     44 F1          3.7910    1.7270   -3.1030 f         1 A93     -0.104000
     45 H18         2.0740    3.4010   -2.0170 ha        1 A93      0.154000
     46 H19         0.2610    2.7370   -0.4090 ha        1 A93      0.156000
@<TRIPOS>BOND
     1    1    2 1   
     2    1    3 1   
     3    1   20 1   
     4    3    4 1   
     5    3    8 1   
     6    4    5 1   
     7    4   21 1   
     8    5    6 1   
     9    5   22 1   
    10    5   23 1   
    11    6    7 1   
    12    7    8 1   
    13    7    9 1   
    14    8   24 1   
    15    9   10 1   
    16    9   25 1   
    17   10   11 1   
    18   10   26 1   
    19   11   12 1   
    20   11   19 1   
    21   12   13 1   
    22   12   27 1   
    23   13   14 1   
    24   13   15 1   
    25   14   28 1   
    26   15   16 1   
    27   15   17 1   
    28   16   31 1   
    29   17   18 1   
    30   17   19 1   
    31   17   35 1   
    32   18   32 1   
    33   18   33 1   
    34   18   34 1   
    35   20   36 1   
    36   29   30 1   
    37   36   37 1   
    38   36   41 1   
    39   37   38 1   
    40   37   42 1   
    41   38   39 1   
    42   38   43 1   
    43   39   40 1   
    44   39   44 1   
    45   40   41 1   
    46   40   45 1   
    47   41   46 1   
@<TRIPOS>SUBSTRUCTURE
     1 A93         1 TEMP              0 ****  ****    0 ROOT
