@<TRIPOS>MOLECULE
A93
   46    63     1     0     0
SMALL
bcc


@<TRIPOS>ATOM
      1 CAE         0.0000    0.0000    0.0000 c2        1 A93      0.387000
      2 OAE         1.2140    0.0000    0.0000 o         1 A93     -0.324000
      3 CAQ        -0.7390    0.0000    1.2800 c3        1 A93     -0.013000
      4 CAI        -2.1360   -0.0010    1.2810 c3        1 A93     -0.555000
      5 CAH        -2.8290   -0.0010    2.4760 c3        1 A93     -0.024000
      6 CAJ        -2.1470   -0.0010    3.6770 c2        1 A93     -0.155000
      7 CAR        -0.7490   -0.0020    3.6900 c3        1 A93     -0.024000
      8 CAM        -0.0440   -0.0070    2.4870 c2        1 A93     -0.074000
      9 CAF        -0.0230   -0.0020    4.9730 c3        1 A93      0.036000
     10 CAG        -0.7040   -0.0020    6.1310 c2        1 A93     -0.229000
     11 CAS         0.0220   -0.0020    7.4120 DU        1 A93     -0.044000
     12 CAL        -0.6850   -0.0010    8.6180 c2        1 A93     -0.504000
     13 CAO        -0.0010   -0.0010    9.8150 DU        1 A93     -0.301000
     14 CAB        -0.7620   -0.0020   11.1160 c3        1 A93      0.053000
     15 CAP         1.3880   -0.0020    9.8240 c3        1 A93      0.004000
     16 OAD         2.0570   -0.0030   11.0060 oh        1 A93     -0.311000
     17 CAN         2.0940   -0.0030    8.6280 DU        1 A93      0.330000
     18 CAA         3.6010   -0.0030    8.6450 c3        1 A93      0.257000
     19 CAK         1.4200   -0.0070    7.4260 c2        1 A93     -0.285000
     20 O3         -0.6740    0.0070   -1.1670 os        1 A93     -0.176000
     21 HAI        -2.6160   -0.3980    0.3950 hc        1 A93      0.165000
     22 HAH        -3.1850   -0.3710    1.5220 DU        1 A93      0.341000
     23 HAJ        -2.4110   -0.3460    2.6840 DU        1 A93      0.078000
     24 HAM        -0.4330   -0.4140    1.5610 DU        1 A93      0.122000
     25 HAF        -0.4680   -0.3870    4.0640 DU        1 A93      0.060000
     26 HAG        -1.1730   -0.3700    5.2270 DU        1 A93      0.229000
     27 HAL        -0.9200   -0.3270    7.6120 DU        1 A93      0.373000
     28 HAB        -0.9720    0.0140   10.0530 DU        1 A93      0.128333
     29 HABA       -1.1520    0.0040   10.1050 DU        1 A93      0.128333
     30 HABB       -1.1290    0.0040   10.0960 DU        1 A93      0.128333
     31 HOAD        2.0200   -0.0270   10.0640 DU        1 A93      0.309000
     32 HAA         2.8730   -0.2370    7.8770 DU        1 A93      0.096000
     33 HAAA        2.6860    0.3740    8.2050 DU        1 A93     -0.182000
     34 HAAB        2.5340    0.1850    8.6430 DU        1 A93     -0.403000
     35 HAK         0.9130    0.2990    8.3330 DU        1 A93      0.284000
     36 C18         0.0630    0.1170   -2.3040 ca        1 A93      0.027000
     37 C19         0.7500   -0.9830   -2.7940 ca        1 A93     -0.184000
     38 C20         1.4940   -0.8710   -3.9540 ca        1 A93     -0.096500
     39 C21         1.5530    0.3370   -4.6250 ca        1 A93      0.146000
     40 C22         0.8680    1.4370   -4.1360 ca        1 A93     -0.096500
     41 C23         0.1220    1.3280   -2.9780 ca        1 A93     -0.184000
     42 H16         0.9220   -0.8650   -1.7310 ha        1 A93      0.160000
     43 H17         0.6430   -1.2430   -4.5120 ha        1 A93      0.118500
     44 F1          2.2810    0.4450   -5.7580 f         1 A93     -0.070000
     45 H18         0.2580    0.8340   -4.7980 ha        1 A93      0.118500
     46 H19        -0.6410    0.8220   -3.5570 ha        1 A93      0.160000
@<TRIPOS>BOND
     1    1    2 1   
     2    1    3 1   
     3    1   20 1   
     4    3    4 1   
     5    3    8 1   
     6    3   24 1   
     7    4    5 1   
     8    4   21 1   
     9    4   22 1   
    10    5    6 1   
    11    5   22 1   
    12    5   23 1   
    13    6    7 1   
    14    6   23 1   
    15    7    8 1   
    16    7    9 1   
    17    7   25 1   
    18    8   24 1   
    19    9   10 1   
    20    9   25 1   
    21    9   26 1   
    22   10   11 1   
    23   10   26 1   
    24   11   12 1   
    25   11   19 1   
    26   11   27 1   
    27   11   35 1   
    28   12   13 1   
    29   12   27 1   
    30   13   14 1   
    31   13   15 1   
    32   13   28 1   
    33   13   29 1   
    34   13   30 1   
    35   14   28 1   
    36   14   29 1   
    37   14   30 1   
    38   15   16 1   
    39   15   17 1   
    40   15   31 1   
    41   16   31 1   
    42   17   18 1   
    43   17   19 1   
    44   17   32 1   
    45   17   33 1   
    46   17   35 1   
    47   18   32 1   
    48   18   33 1   
    49   18   34 1   
    50   19   35 1   
    51   20   36 1   
    52   33   34 1   
    53   36   37 1   
    54   36   41 1   
    55   37   38 1   
    56   37   42 1   
    57   38   39 1   
    58   38   43 1   
    59   39   40 1   
    60   39   44 1   
    61   40   41 1   
    62   40   45 1   
    63   41   46 1   
@<TRIPOS>SUBSTRUCTURE
     1 A93         1 TEMP              0 ****  ****    0 ROOT
