@<TRIPOS>MOLECULE
A94
   47    46     1     0     0
SMALL
bcc


@<TRIPOS>ATOM
      1 C1          0.8810   -1.2060   -0.5710 c2        1 A94      0.086000
      2 N2          1.0320    0.1190   -0.7540 n2        1 A94     -0.213000
      3 C3          0.6790    0.9450    0.3130 c2        1 A94      0.178000
      4 N4          0.2200    0.4950    1.5450 n2        1 A94     -0.274000
      5 C5          0.0850   -0.8440    1.6740 c2        1 A94      0.014000
      6 C6          0.3970   -1.7480    0.6480 c2        1 A94     -0.287000
      7 C7          1.2530   -2.1460   -1.6720 c3        1 A94     -0.188000
      8 N8          0.7370    2.3210    0.1050 nv        1 A94     -0.327000
      9 C9         -0.4070   -1.4210    2.9840 c3        1 A94     -0.069000
     10 N10        -0.9580   -0.4800    3.9500 n8        1 A94     -0.422000
     11 S11        -1.8310   -1.5300    5.7740 s4        1 A94      2.090800
     12 O12        -1.6730   -2.7970    5.2790 o         1 A94     -0.470900
     13 O13        -0.9000   -1.0380    6.6440 o         1 A94     -0.470900
     14 C14        -6.3370    6.8370   10.5170 c1        1 A94      0.081000
     15 C15        -3.4820    4.0780    9.4510 c3        1 A94     -0.235000
     16 C16        -4.5910    4.3460    8.4530 c3        1 A94     -0.117000
     17 C17        -5.7830    4.9680    9.1280 c2        1 A94      0.205000
     18 O18        -5.4800    6.1400    9.8670 os        1 A94     -0.112000
     19 O19        -6.9530    4.6050    9.0930 o         1 A94     -0.290000
     20 C20        -5.0410    3.1330    7.6900 c2        1 A94      0.045000
     21 C22        -4.6810    0.9170    6.7040 c2        1 A94     -0.060000
     22 C23        -5.9980    0.5880    6.5060 c2        1 A94      0.052000
     23 C24        -6.4180   -0.4910    5.6760 c2        1 A94     -0.471000
     24 C25        -5.7180   -1.2970    4.8820 c1        1 A94      0.313000
     25 C26        -3.2310   -0.8940    5.6300 c2        1 A94     -1.076000
     26 C27        -3.5460    0.1540    6.4000 c1        1 A94     -0.263000
     27 H6          0.2790   -2.8300    0.7760 ha        1 A94      0.161000
     28 H71         0.6670   -3.0920   -1.5790 hc        1 A94      0.108000
     29 H72         2.3440   -2.3870   -1.5950 hc        1 A94      0.108000
     30 H73         1.0630   -1.7000   -2.6800 hc        1 A94      0.108000
     31 HN81        1.2320    2.6400   -0.6950 hn        1 A94      0.233000
     32 HN82        0.7450    2.9070    0.9050 hn        1 A94      0.233000
     33 H91        -1.2040   -2.1880    2.7520 h1        1 A94      0.137000
     34 H92         0.4600   -1.9600    3.4690 h1        1 A94      0.137000
     35 HN10       -1.6820    0.0750    3.5210 hn        1 A94      0.201500
     36 H151       -2.5310    3.8200    8.9240 hc        1 A94      0.117000
     37 H152       -3.7550    3.2490   10.1470 hc        1 A94      0.117000
     38 H20        -4.2200    5.1040    7.6920 hc        1 A94      0.182000
     39 H23        -6.0880    3.1670    7.3030 h4        1 A94      0.208000
     40 H24        -6.8170    1.1400    7.0090 ha        1 A94      0.147000
     41 H25        -7.5190   -0.6940    5.6690 ha        1 A94      0.220000
     42 H27        -3.9450   -1.3520    4.8880 h4        1 A94      0.190000
     43 H141       -3.2990    5.0010   10.0590 hc        1 A94      0.117000
     44 H102       -0.2370    0.1480    4.2720 hn        1 A94      0.201500
     45 N21        -4.3040    2.0840    7.4660 n7        1 A94     -0.015000
     46 H142       -7.4110    6.5590   10.5460 ha        1 A94      0.076000
     47 HN21       -3.3380    2.0310    7.7940 hn        1 A94      0.294000
@<TRIPOS>BOND
     1    1    2 1   
     2    1    6 1   
     3    1    7 1   
     4    2    3 1   
     5    3    4 1   
     6    3    8 1   
     7    4    5 1   
     8    5    6 1   
     9    5    9 1   
    10    6   27 1   
    11    7   28 1   
    12    7   29 1   
    13    7   30 1   
    14    8   31 1   
    15    8   32 1   
    16    9   10 1   
    17    9   33 1   
    18    9   34 1   
    19   10   35 1   
    20   10   44 1   
    21   11   12 1   
    22   11   13 1   
    23   11   25 1   
    24   14   18 1   
    25   14   46 1   
    26   15   16 1   
    27   15   36 1   
    28   15   37 1   
    29   15   43 1   
    30   16   17 1   
    31   16   20 1   
    32   16   38 1   
    33   17   18 1   
    34   17   19 1   
    35   20   39 1   
    36   20   45 1   
    37   21   22 1   
    38   21   26 1   
    39   21   45 1   
    40   22   23 1   
    41   22   40 1   
    42   23   24 1   
    43   23   41 1   
    44   25   26 1   
    45   25   42 1   
    46   45   47 1   
@<TRIPOS>SUBSTRUCTURE
     1 A94         1 TEMP              0 ****  ****    0 ROOT
