@<TRIPOS>MOLECULE
A94
   46    42     1     0     0
SMALL
bcc


@<TRIPOS>ATOM
      1 C1          3.9870   -0.1410   -5.6610 c1        1 A94      0.067000
      2 N2          4.2790    1.0970   -5.2340 n1        1 A94     -0.226000
      3 C3          3.8950    1.4970   -3.9890 c1        1 A94      0.158000
      4 N4          3.2150    0.6390   -3.1750 n2        1 A94     -0.232000
      5 C5          2.9230   -0.5990   -3.6000 c1        1 A94      0.032000
      6 C6          3.3070   -1.0000   -4.8480 c2        1 A94     -0.286000
      7 C7          4.4510   -0.5990   -7.0280 c3        1 A94     -0.181000
      8 N8          4.2100    2.8040   -3.5350 n2        1 A94     -0.323000
      9 C9          2.2400   -1.5770   -2.6670 c2        1 A94      0.036000
     10 N10         1.6120   -0.8620   -1.6050 n3        1 A94     -0.886000
     11 S11         0.0460   -1.1760   -1.2150 s4        1 A94      2.067800
     12 O12        -0.3870   -2.4310   -1.7640 o         1 A94     -0.538400
     13 O13        -0.8480   -0.2620   -1.8700 o         1 A94     -0.538400
     14 C14        -5.4790    1.8930    6.1240 c3        1 A94     -0.026000
     15 C15        -5.3620    0.7010    5.1680 c3        1 A94     -0.125000
     16 C16        -4.1960    1.0290    4.3950 c2        1 A94     -0.326000
     17 C17        -4.0770    2.5200    4.3780 c2        1 A94      0.355000
     18 O18        -4.8120    3.0210    5.5040 os        1 A94     -0.245000
     19 O19        -3.3470    3.1700    3.6560 o         1 A94     -0.334000
     20 C20        -3.3620    0.1530    3.7940 c1        1 A94      0.100000
     21 N21        -2.2420    0.6270    3.0590 n2        1 A94     -0.267000
     22 C22        -1.3320   -0.2960    2.4760 c2        1 A94      0.053000
     23 C23        -0.6940   -1.2350    3.2700 c2        1 A94     -0.120000
     24 C24         0.2070   -2.1240    2.7050 c1        1 A94     -0.122000
     25 C25         0.4690   -2.0750    1.3440 c1        1 A94     -0.050000
     26 C26        -0.1690   -1.1360    0.5490 c1        1 A94     -0.778000
     27 C27        -1.0700   -0.2460    1.1150 c2        1 A94     -0.064000
     28 H6          3.0950   -1.9010   -5.1580 ha        1 A94      0.156000
     29 H71         4.9170    0.1370   -7.4790 hc        1 A94      0.099000
     30 H72         3.6760   -0.8710   -7.5620 hc        1 A94      0.099000
     31 H73         5.0620   -1.3600   -6.9280 hc        1 A94      0.099000
     32 HN81        3.9360    3.0790   -2.7070 hn        1 A94      0.223500
     33 HN82        4.6830    3.3720   -4.0730 hn        1 A94      0.223500
     34 H91         2.9040   -2.1940   -2.2980 h4        1 A94      0.109500
     35 H92         1.5640   -2.0840   -3.1640 h4        1 A94      0.109500
     36 HN10        2.0770   -0.2230   -1.1490 hn        1 A94      0.260000
     37 H141       -6.4220    2.1070    6.2740 h1        1 A94      0.101500
     38 H142       -5.0480    1.6790    6.9750 h1        1 A94      0.101500
     39 H151       -5.4750   -0.1570    5.6240 hc        1 A94      0.097500
     40 H152       -6.1070    0.6700    4.5310 hc        1 A94      0.097500
     41 H20        -3.5280   -0.8060    3.8660 ha        1 A94      0.152000
     42 HN21       -2.1390    1.5200    2.9140 hn        1 A94      0.269000
     43 H23        -0.8780   -1.2700    4.2280 ha        1 A94      0.138000
     44 H24         0.6570   -2.7860    3.2650 ha        1 A94      0.144000
     45 H25         1.1030   -2.7010    0.9460 ha        1 A94      0.158000
     46 H27        -1.5390    0.3990    0.5520 ha        1 A94      0.161000
@<TRIPOS>BOND
     1    1    6 1   
     2    1    7 1   
     3    2    3 1   
     4    3    4 1   
     5    4    5 1   
     6    5    6 1   
     7    6   28 1   
     8    7   29 1   
     9    7   30 1   
    10    7   31 1   
    11    8   32 1   
    12    8   33 1   
    13    9   10 1   
    14    9   34 1   
    15    9   35 1   
    16   10   11 1   
    17   10   36 1   
    18   11   12 1   
    19   11   13 1   
    20   14   15 1   
    21   14   18 1   
    22   14   37 1   
    23   14   38 1   
    24   15   16 1   
    25   15   39 1   
    26   15   40 1   
    27   16   17 1   
    28   16   20 1   
    29   17   18 1   
    30   17   19 1   
    31   20   41 1   
    32   21   22 1   
    33   21   42 1   
    34   22   23 1   
    35   22   27 1   
    36   23   24 1   
    37   23   43 1   
    38   24   44 1   
    39   25   26 1   
    40   25   45 1   
    41   26   27 1   
    42   27   46 1   
@<TRIPOS>SUBSTRUCTURE
     1 A94         1 TEMP              0 ****  ****    0 ROOT
