@<TRIPOS>MOLECULE
A94
   46    44     1     0     0
SMALL
bcc


@<TRIPOS>ATOM
      1 C1         -0.2920    1.2780    0.2880 ca        1 A94      0.486600
      2 N2          0.0390    0.1520   -0.3790 nb        1 A94     -0.754000
      3 C3          0.0640   -1.0230    0.3630 ca        1 A94      0.872900
      4 N4         -0.2590   -1.1200    1.7130 nb        1 A94     -0.756000
      5 C5         -0.5860    0.0320    2.3310 ca        1 A94      0.457600
      6 C6         -0.6150    1.2720    1.6630 ca        1 A94     -0.414600
      7 C7         -0.3310    2.5730   -0.4590 c3        1 A94     -0.156400
      8 N8          0.5100   -2.1840   -0.2790 nh        1 A94     -0.923500
      9 C9         -0.9020    0.0150    3.8190 c3        1 A94      0.181500
     10 N10        -1.7320   -1.0630    4.2540 n3        1 A94     -0.910100
     11 S11        -3.1400   -0.8890    5.0350 s6        1 A94      1.631900
     12 O12        -3.6600    0.4120    4.8130 o         1 A94     -0.663800
     13 O13        -3.9850   -1.9640    4.6980 o         1 A94     -0.663800
     14 C14        -7.4780    6.2610    4.2220 c         1 A94      0.565700
     15 C15        -5.1920    4.7530    7.7620 c3        1 A94     -0.021900
     16 C16        -4.8320    3.6230    6.8720 ce        1 A94     -0.497900
     17 C17        -5.2290    3.6280    5.6060 c1        1 A94      0.624600
     18 O18        -7.0710    6.4550    5.3650 o         1 A94     -0.536100
     19 O19        -5.5990    3.6680    4.4790 o         1 A94     -0.377500
     20 C20        -4.0450    2.5050    7.3950 ce        1 A94      0.530500
     21 C22        -1.4150   -3.3070    9.3540 cg        1 A94     -0.206300
     22 C23        -1.7060   -2.0330    9.8620 ce        1 A94      0.057300
     23 C24        -2.1810   -0.9980    9.1430 cf        1 A94     -0.083700
     24 C25        -2.4610   -1.0260    7.7700 ch        1 A94      0.147700
     25 C26        -2.7230   -0.9920    6.5930 c1        1 A94     -0.510200
     26 C27        -1.1620   -4.4030    8.9420 c1        1 A94     -0.085500
     27 H6         -0.8920    2.1940    2.1840 ha        1 A94      0.156000
     28 H71        -0.5760    3.4120    0.2360 hc        1 A94      0.058367
     29 H72         0.6580    2.7790   -0.9390 hc        1 A94      0.058367
     30 H73        -1.1090    2.5330   -1.2620 hc        1 A94      0.058367
     31 HN81        0.4870   -2.1740   -1.2730 hn        1 A94      0.425300
     32 HN82        0.2700   -3.0470    0.1530 hn        1 A94      0.425300
     33 H91         0.0920   -0.0230    4.3590 h1        1 A94      0.066700
     34 H92        -1.4080    0.9920    4.0790 h1        1 A94      0.066700
     35 HN10       -1.3920   -1.9620    4.0000 hn        1 A94      0.462800
     36 H142       -5.8030    5.5230    7.2250 hc        1 A94      0.047033
     37 H151       -7.1680    5.3720    3.6310 h4        1 A94     -0.014300
     38 H152       -4.2650    5.2450    8.1490 hc        1 A94      0.047033
     39 H20        -5.7860    4.3780    8.6330 hc        1 A94      0.047033
     40 H23        -3.8250    1.7010    6.6540 h4        1 A94      0.036800
     41 H24        -1.5210   -1.9030   10.9470 ha        1 A94      0.153000
     42 H25        -2.3890   -0.0200    9.6270 ha        1 A94      0.189000
     43 H27        -0.9410   -5.3750    8.5760 ha        1 A94      0.173500
     44 N21        -3.5880    2.3400    8.5780 n2        1 A94     -0.815100
     45 H141       -8.1750    6.9630    3.7180 h4        1 A94     -0.014300
     46 HN21       -3.7900    3.0640    9.2370 hn        1 A94      0.376400
@<TRIPOS>BOND
     1    1    2 ar  
     2    1    6 ar  
     3    1    7 1   
     4    2    3 ar  
     5    3    4 ar  
     6    3    8 1   
     7    4    5 ar  
     8    5    6 ar  
     9    5    9 1   
    10    6   27 1   
    11    7   28 1   
    12    7   29 1   
    13    7   30 1   
    14    8   31 1   
    15    8   32 1   
    16    9   10 1   
    17    9   33 1   
    18    9   34 1   
    19   10   11 1   
    20   10   35 1   
    21   11   12 2   
    22   11   13 2   
    23   11   25 1   
    24   14   18 2   
    25   14   37 1   
    26   14   45 1   
    27   15   16 1   
    28   15   36 1   
    29   15   38 1   
    30   15   39 1   
    31   16   17 2   
    32   16   20 1   
    33   17   19 2   
    34   20   40 1   
    35   20   44 2   
    36   21   22 1   
    37   21   26 3   
    38   22   23 2   
    39   22   41 1   
    40   23   24 1   
    41   23   42 1   
    42   24   25 3   
    43   26   43 1   
    44   44   46 1   
@<TRIPOS>SUBSTRUCTURE
     1 A94         1 TEMP              0 ****  ****    0 ROOT
