@<TRIPOS>MOLECULE
A94
   47    47     1     0     0
SMALL
bcc


@<TRIPOS>ATOM
      1 C1          0.7760    0.6700    0.5470 c2        1 A94      0.146000
      2 N2          1.8540   -0.0870    0.7930 n2        1 A94     -0.201000
      3 C3          1.7280   -1.1210    1.7220 c2        1 A94      0.278000
      4 N4          0.5180   -1.3710    2.3910 na        1 A94     -0.217000
      5 C5         -0.5820   -0.5850    2.1220 c2        1 A94      0.105000
      6 C6         -0.4780    0.4470    1.1990 c2        1 A94     -0.279000
      7 C7          0.8600    1.7830   -0.4450 c3        1 A94     -0.203000
      8 N8          2.8130   -1.9090    1.9860 nh        1 A94     -0.321000
      9 C9         -1.8950   -0.8130    2.8710 c3        1 A94     -0.008000
     10 N10        -2.2440   -2.1680    3.0990 n3        1 A94     -0.876000
     11 S11        -1.8450   -3.0540    4.4340 s6        1 A94      2.957000
     12 O12        -2.6280   -4.2120    4.4330 o         1 A94     -0.947000
     13 O13        -0.4350   -3.2600    4.3380 o         1 A94     -0.947000
     14 C14        -8.4790    5.2450    7.8490 c1        1 A94     -0.039000
     15 C15        -5.3020    5.3530    7.6960 c3        1 A94     -0.213000
     16 C16        -6.0400    4.0260    7.6580 c3        1 A94     -0.147000
     17 C17        -6.9020    3.8830    8.8840 c2        1 A94      0.314000
     18 O18        -8.0900    4.6400    8.9580 os        1 A94     -0.179000
     19 O19        -6.7250    3.1970    9.8790 o         1 A94     -0.235000
     20 C20        -5.0950    2.8620    7.5700 c2        1 A94      0.001000
     21 C22        -3.3500    1.5130    6.4180 c2        1 A94     -0.155000
     22 C23        -3.0380    0.7710    7.6270 c2        1 A94      0.023000
     23 C24        -2.5800   -0.4970    7.6600 c2        1 A94     -0.175000
     24 C25        -2.3670   -1.3130    6.5480 c1        1 A94      0.299000
     25 C26        -2.1510   -2.0740    5.6310 c1        1 A94     -1.015000
     26 C27        -2.8810    1.2370    5.2160 c1        1 A94     -0.376000
     27 H6         -1.3410    1.0850    0.9640 ha        1 A94      0.186000
     28 H71         0.1830    1.5490   -1.3060 hc        1 A94      0.127000
     29 H72         1.8960    1.9360   -0.8360 hc        1 A94      0.127000
     30 H73         0.5130    2.7300    0.0400 hc        1 A94      0.127000
     31 HN81        3.6710   -1.7350    1.5090 hn        1 A94      0.280500
     32 HN82        2.7640   -2.6590    2.6390 hn        1 A94      0.280500
     33 H91         0.4560   -2.1250    3.0700 hn        1 A94      0.327000
     34 H92        -2.6970   -0.2980    2.2630 h1        1 A94      0.156500
     35 HN10       -1.8220   -0.2480    3.8650 h1        1 A94      0.156500
     36 H151       -4.7030    5.4920    6.7650 hc        1 A94      0.106000
     37 H152       -4.6210    5.4100    8.5790 hc        1 A94      0.106000
     38 H20        -6.7340    4.0280    6.7580 hc        1 A94      0.186000
     39 H23        -5.1580    2.1110    8.3920 h4        1 A94      0.204000
     40 H24        -3.1530    1.2950    8.5960 ha        1 A94      0.129000
     41 H25        -2.3340   -0.9710    8.6320 ha        1 A94      0.173000
     42 H27        -2.9980    1.7470    4.2700 ha        1 A94      0.108000
     43 H141       -6.0490    6.1840    7.7600 hc        1 A94      0.106000
     44 H102       -2.8420   -2.5610    2.4090 hn        1 A94      0.250000
     45 N21        -4.2360    2.6780    6.6130 n3        1 A94     -0.042000
     46 H142       -9.4230    5.7990    8.0740 ha        1 A94      0.083000
     47 HN21       -4.1960    3.3460    5.8560 hn        1 A94      0.231000
@<TRIPOS>BOND
     1    1    2 1   
     2    1    6 1   
     3    1    7 1   
     4    2    3 1   
     5    3    4 1   
     6    3    8 1   
     7    4    5 1   
     8    4   33 1   
     9    5    6 1   
    10    5    9 1   
    11    6   27 1   
    12    7   28 1   
    13    7   29 1   
    14    7   30 1   
    15    8   31 1   
    16    8   32 1   
    17    9   10 1   
    18    9   34 1   
    19    9   35 1   
    20   10   11 1   
    21   10   44 1   
    22   11   12 1   
    23   11   13 1   
    24   11   25 1   
    25   14   18 1   
    26   14   46 1   
    27   15   16 1   
    28   15   36 1   
    29   15   37 1   
    30   15   43 1   
    31   16   17 1   
    32   16   20 1   
    33   16   38 1   
    34   17   18 1   
    35   17   19 1   
    36   20   39 1   
    37   20   45 1   
    38   21   22 1   
    39   21   26 1   
    40   21   45 1   
    41   22   23 1   
    42   22   40 1   
    43   23   24 1   
    44   23   41 1   
    45   24   25 1   
    46   26   42 1   
    47   45   47 1   
@<TRIPOS>SUBSTRUCTURE
     1 A94         1 TEMP              0 ****  ****    0 ROOT
