@<TRIPOS>MOLECULE
A94
   46    48     1     0     0
SMALL
bcc


@<TRIPOS>ATOM
      1 C1         -5.7260   -2.5420   -0.4590 ca        1 A94      0.490600
      2 N2         -6.5490   -1.7430   -1.1680 nb        1 A94     -0.752000
      3 C3         -6.0160   -0.5330   -1.6030 ca        1 A94      0.880900
      4 N4         -4.7030   -0.1230   -1.4000 nb        1 A94     -0.762000
      5 C5         -3.9230   -0.9590   -0.6850 ca        1 A94      0.455600
      6 C6         -4.3860   -2.1880   -0.1800 ca        1 A94     -0.417600
      7 C7         -6.2470   -3.8420    0.0650 c3        1 A94     -0.157400
      8 N8         -6.8810    0.3590   -2.2410 nh        1 A94     -0.931500
      9 C9         -2.4670   -0.5850   -0.4530 c3        1 A94      0.178500
     10 N10        -2.2610    0.7430    0.0360 n3        1 A94     -0.914100
     11 S11        -1.4780    1.1130    1.3980 sy        1 A94      1.513200
     12 O12        -2.0890    2.2310    1.9990 o         1 A94     -0.650800
     13 O13        -1.3000   -0.0420    2.1900 o         1 A94     -0.650800
     14 C14         7.1120   -2.4300    0.2480 c3        1 A94      0.126400
     15 C15         5.7480   -1.8410    0.6400 c3        1 A94     -0.053200
     16 C16         5.6160   -0.6320   -0.2200 ce        1 A94     -0.340400
     17 C17         6.8230   -0.5350   -1.0490 c         1 A94      0.742800
     18 O18         7.6850   -1.5830   -0.7720 os        1 A94     -0.410900
     19 O19         7.1930    0.2640   -1.9030 o         1 A94     -0.587500
     20 C20         4.5980    0.2610   -0.2780 c2        1 A94      0.175000
     21 C22         2.4060    1.1060    0.4150 ca        1 A94      0.131600
     22 C23         2.5810    2.4250   -0.0610 ca        1 A94     -0.112000
     23 C24         1.5030    3.3040   -0.0890 ca        1 A94     -0.120000
     24 C25         0.2460    2.9000    0.3530 ca        1 A94     -0.046000
     25 C26         0.0490    1.6000    0.8280 ca        1 A94     -0.334500
     26 C27         1.1230    0.7120    0.8590 ca        1 A94     -0.071000
     27 H6         -3.7400   -2.8460    0.4110 ha        1 A94      0.157000
     28 H71        -6.9740   -4.3120   -0.6430 hc        1 A94      0.060367
     29 H72        -5.4010   -4.5510    0.2370 hc        1 A94      0.060367
     30 H73        -6.7700   -3.6630    1.0380 hc        1 A94      0.060367
     31 HN81       -7.7340   -0.0110   -2.5880 hn        1 A94      0.430800
     32 HN82       -6.4670    1.0970   -2.7590 hn        1 A94      0.430800
     33 H91        -2.0300   -1.3200    0.2880 h1        1 A94      0.068200
     34 H92        -1.9290   -0.7160   -1.4400 h1        1 A94      0.068200
     35 HN10       -2.7040    1.4430   -0.5150 hn        1 A94      0.464800
     36 H142        7.0240   -3.4510   -0.1990 h1        1 A94      0.061200
     37 H151        4.9270   -2.5760    0.4470 hc        1 A94      0.056700
     38 H152        5.7270   -1.5770    1.7270 hc        1 A94      0.056700
     39 H20         4.6650    1.1150   -0.9860 h4        1 A94      0.170000
     40 H23         3.5680    2.7770   -0.4000 ha        1 A94      0.147000
     41 H24         1.6520    4.3310   -0.4560 ha        1 A94      0.147000
     42 H25        -0.5960    3.6130    0.3520 ha        1 A94      0.155000
     43 H27         0.9580   -0.3050    1.2590 ha        1 A94      0.157000
     44 N21         3.4660    0.1900    0.4920 nh        1 A94     -0.641400
     45 H141        7.8360   -2.4360    1.1000 h1        1 A94      0.061200
     46 HN21        3.3270   -0.6140    1.0650 hn        1 A94      0.445800
@<TRIPOS>BOND
     1    1    2 ar  
     2    1    6 ar  
     3    1    7 1   
     4    2    3 ar  
     5    3    4 ar  
     6    3    8 1   
     7    4    5 ar  
     8    5    6 ar  
     9    5    9 1   
    10    6   27 1   
    11    7   28 1   
    12    7   29 1   
    13    7   30 1   
    14    8   31 1   
    15    8   32 1   
    16    9   10 1   
    17    9   33 1   
    18    9   34 1   
    19   10   11 1   
    20   10   35 1   
    21   11   12 2   
    22   11   13 2   
    23   11   25 1   
    24   14   15 1   
    25   14   18 1   
    26   14   36 1   
    27   14   45 1   
    28   15   16 1   
    29   15   37 1   
    30   15   38 1   
    31   16   17 1   
    32   16   20 2   
    33   17   18 1   
    34   17   19 2   
    35   20   39 1   
    36   20   44 1   
    37   21   22 ar  
    38   21   26 ar  
    39   21   44 1   
    40   22   23 ar  
    41   22   40 1   
    42   23   24 ar  
    43   23   41 1   
    44   24   25 ar  
    45   24   42 1   
    46   25   26 ar  
    47   26   43 1   
    48   44   46 1   
@<TRIPOS>SUBSTRUCTURE
     1 A94         1 TEMP              0 ****  ****    0 ROOT
