@<TRIPOS>MOLECULE
A96
   41    44     1     0     0
SMALL
bcc


@<TRIPOS>ATOM
      1 N1          5.9260    3.4050   -0.8670 nb        1 A96     -0.669500
      2 C2          4.9500    2.4820   -0.9060 ca        1 A96      0.392200
      3 C3          4.9680    1.3120   -0.0850 ca        1 A96     -0.166000
      4 C4          6.0890    1.1840    0.7890 ca        1 A96      0.392200
      5 N5          7.0680    2.1040    0.8330 nb        1 A96     -0.669500
      6 C6          6.9440    3.1730    0.0040 ca        1 A96      0.598900
      7 N10         3.9440    0.3700   -0.1980 n         1 A96     -0.446100
      8 C11         3.7000   -0.6790    0.6830 c         1 A96      0.692700
      9 C12         2.4940   -1.5000    0.3630 ca        1 A96     -0.141600
     10 O13         4.4230   -0.9250    1.6610 o         1 A96     -0.556100
     11 C14         1.2630   -0.9010    0.1010 ca        1 A96      0.090100
     12 C15         0.0670   -1.6370   -0.1330 ca        1 A96     -0.244900
     13 C16         0.1000   -3.0240   -0.1260 ca        1 A96     -0.027000
     14 C17         1.3240   -3.6450    0.1090 ca        1 A96     -0.162000
     15 C18         2.5010   -2.9050    0.3440 ca        1 A96      0.102400
     16 O21         0.9640    0.4690    0.0140 os        1 A96     -0.015600
     17 N22        -0.3340    0.6350   -0.2430 nc        1 A96     -0.441200
     18 C23        -0.9450   -0.5730   -0.3520 cd        1 A96      0.572800
     19 CL24        3.9350   -3.7720    0.5790 cl        1 A96     -0.031400
     20 N25        -2.2640   -0.8560   -0.6870 nh        1 A96     -0.648600
     21 C26        -3.2560    0.1540   -0.7130 ca        1 A96      0.117600
     22 C27        -3.0660    1.3530   -1.4330 ca        1 A96     -0.094000
     23 C28        -4.0910    2.2930   -1.5050 ca        1 A96     -0.114000
     24 C29        -5.3170    2.0640   -0.8820 ca        1 A96     -0.092000
     25 C30        -5.5100    0.8760   -0.1780 ca        1 A96     -0.146300
     26 C31        -4.4970   -0.0750   -0.0800 ca        1 A96     -0.124000
     27 C36        -6.8550    0.6010    0.4880 c3        1 A96      0.687200
     28 F37        -7.5400    1.7250    0.8770 f         1 A96     -0.234967
     29 F38        -7.7450   -0.0770   -0.3100 f         1 A96     -0.234967
     30 F39        -6.7810   -0.1620    1.6280 f         1 A96     -0.234967
     31 H2          4.1260    2.6800   -1.6140 h4        1 A96      0.047100
     32 H4          6.1970    0.3210    1.4750 h4        1 A96      0.047100
     33 H6          7.7520    3.9320    0.0400 h5        1 A96      0.057100
     34 HN10        3.2370    0.5780   -0.8710 hn        1 A96      0.330500
     35 H16        -0.8070   -3.6200   -0.3060 ha        1 A96      0.152000
     36 H17         1.3770   -4.7470    0.1110 ha        1 A96      0.163000
     37 HN25       -2.5770   -1.7320   -0.3150 hn        1 A96      0.430800
     38 H27        -2.1130    1.5570   -1.9470 ha        1 A96      0.162000
     39 H28        -3.9290    3.2280   -2.0640 ha        1 A96      0.150000
     40 H29        -6.1240    2.8110   -0.9390 ha        1 A96      0.157000
     41 H31        -4.6810   -0.9980    0.4940 ha        1 A96      0.150000
@<TRIPOS>BOND
     1    1    2 ar  
     2    1    6 ar  
     3    2    3 ar  
     4    2   31 1   
     5    3    4 ar  
     6    3    7 1   
     7    4    5 ar  
     8    4   32 1   
     9    5    6 ar  
    10    6   33 1   
    11    7    8 1   
    12    7   34 1   
    13    8    9 1   
    14    8   10 2   
    15    9   11 ar  
    16    9   15 ar  
    17   11   12 ar  
    18   11   16 1   
    19   12   13 ar  
    20   12   18 1   
    21   13   14 ar  
    22   13   35 1   
    23   14   15 ar  
    24   14   36 1   
    25   15   19 1   
    26   16   17 1   
    27   17   18 2   
    28   18   20 1   
    29   20   21 1   
    30   20   37 1   
    31   21   22 ar  
    32   21   26 ar  
    33   22   23 ar  
    34   22   38 1   
    35   23   24 ar  
    36   23   39 1   
    37   24   25 ar  
    38   24   40 1   
    39   25   26 ar  
    40   25   27 1   
    41   26   41 1   
    42   27   28 1   
    43   27   29 1   
    44   27   30 1   
@<TRIPOS>SUBSTRUCTURE
     1 A96         1 TEMP              0 ****  ****    0 ROOT
