@<TRIPOS>MOLECULE
A96
   41    34     1     0     0
SMALL
bcc


@<TRIPOS>ATOM
      1 N1         -7.6540    0.6940    1.0080 n1        1 A96     -0.143500
      2 C2         -6.3410    0.8110    0.7850 c1        1 A96     -0.059000
      3 C3         -5.5870   -0.2960    0.5900 c1        1 A96     -0.028000
      4 C4         -6.1660   -1.5200    0.6210 c1        1 A96     -0.075000
      5 N5         -7.4640   -1.6320    0.8410 n1        1 A96     -0.143500
      6 C6         -8.2230   -0.5130    1.0380 c1        1 A96     -0.075000
      7 N10        -4.1710   -0.1880    0.5710 n         1 A96     -0.300000
      8 C11        -3.5450    0.8260   -0.2090 c2        1 A96      0.366000
      9 C12        -1.9940    1.0080   -0.1500 c2        1 A96     -0.121000
     10 O13        -4.2140    1.5890   -0.8500 o         1 A96     -0.317000
     11 C14        -0.7180    0.3750   -0.2790 c1        1 A96      0.045000
     12 C15         0.4270    1.1190   -0.1710 c1        1 A96     -0.162000
     13 C16         0.3460    2.5240    0.0690 c1        1 A96     -0.027000
     14 C17        -0.9000    3.1410    0.1940 c1        1 A96     -0.162000
     15 C18        -2.0700    2.3850    0.0850 c2        1 A96      0.024000
     16 O21        -0.3560   -0.9320   -0.4460 o         1 A96     -0.014700
     17 N22         1.0290   -0.9970   -0.4430 n2        1 A96     -0.110300
     18 C23         1.5070    0.2570   -0.2740 c1        1 A96      0.051000
     19 CL24       -3.3140    3.5860    0.3190 cl        1 A96      0.047000
     20 N25         2.8440    0.4650    0.2560 n2        1 A96     -0.212000
     21 C26         3.9390   -0.1490   -0.3550 c2        1 A96      0.036000
     22 C27         4.6310    0.5150   -1.3580 c2        1 A96     -0.093000
     23 C28         5.8190   -0.0050   -1.8400 c1        1 A96     -0.114000
     24 C29         6.3150   -1.1840   -1.3230 c1        1 A96     -0.092000
     25 C30         5.6250   -1.8470   -0.3220 c1        1 A96     -0.139000
     26 C31         4.4380   -1.3280    0.1600 c1        1 A96     -0.125000
     27 C36         6.1900   -3.0590    0.2790 c3        1 A96      0.466000
     28 F37         6.8060   -3.7850   -0.6700 f         1 A96     -0.163667
     29 F38         7.0840   -2.7130    1.2370 f         1 A96     -0.163667
     30 F39         5.2080   -3.7830    0.8270 f         1 A96     -0.163667
     31 H2         -5.9140    1.7200    0.7630 ha        1 A96      0.203000
     32 H4         -5.6160   -2.3310    0.4780 ha        1 A96      0.180000
     33 H6         -9.1710   -0.5950    1.1990 ha        1 A96      0.180000
     34 HN10       -3.6660   -0.8180    0.9800 hn        1 A96      0.244000
     35 H16         1.1510    3.0470    0.1440 ha        1 A96      0.152000
     36 H17        -0.9550    4.1160    0.3610 ha        1 A96      0.163000
     37 HN25        2.9760    1.0490    0.9500 hn        1 A96      0.227000
     38 H27         4.2800    1.3480   -1.7230 ha        1 A96      0.164000
     39 H28         6.3090    0.4650   -2.5490 ha        1 A96      0.150000
     40 H29         7.1740   -1.5600   -1.6710 ha        1 A96      0.157000
     41 H31         3.9430   -1.8050    0.8790 ha        1 A96      0.150000
@<TRIPOS>BOND
     1    1    6 1   
     2    2    3 1   
     3    2   31 1   
     4    3    7 1   
     5    4    5 1   
     6    4   32 1   
     7    6   33 1   
     8    7    8 1   
     9    7   34 1   
    10    8    9 1   
    11    8   10 1   
    12    9   11 1   
    13    9   15 1   
    14   12   13 1   
    15   13   35 1   
    16   14   15 1   
    17   14   36 1   
    18   15   19 1   
    19   16   17 2   
    20   17   18 1   
    21   20   21 1   
    22   20   37 1   
    23   21   22 1   
    24   21   26 1   
    25   22   23 1   
    26   22   38 1   
    27   23   39 1   
    28   24   25 1   
    29   24   40 1   
    30   25   27 1   
    31   26   41 1   
    32   27   28 1   
    33   27   29 1   
    34   27   30 1   
@<TRIPOS>SUBSTRUCTURE
     1 A96         1 TEMP              0 ****  ****    0 ROOT
