@<TRIPOS>MOLECULE
A96
   43    46     1     0     0
SMALL
bcc


@<TRIPOS>ATOM
      1 N1          1.8070    0.3480   -0.4270 nb        1 A96     -0.642500
      2 C2          2.5210   -0.3050    0.5010 ca        1 A96      0.488200
      3 C3          2.2100   -0.2030    1.8860 ca        1 A96     -0.351000
      4 C4          1.0970    0.6140    2.2450 ca        1 A96      0.488200
      5 N5          0.3820    1.2640    1.3170 nb        1 A96     -0.642500
      6 C6          0.7620    1.1060    0.0160 ca        1 A96      0.715900
      7 N10         2.9650   -0.9320    2.8920 n4        1 A96     -0.516200
      8 C11         3.7810    0.0100    3.7680 c         1 A96      0.576700
      9 C12         5.1560    0.2800    3.3300 ca        1 A96     -0.176600
     10 O13         3.2100    0.4240    4.7620 o         1 A96     -0.355100
     11 C14         6.0470   -0.7450    3.0180 ca        1 A96      0.088100
     12 C15         7.4290   -0.5440    2.7450 ca        1 A96     -0.224900
     13 C16         7.9400    0.7550    2.7430 ca        1 A96     -0.002000
     14 C17         7.0640    1.7990    3.0140 ca        1 A96     -0.116000
     15 C18         5.6950    1.5870    3.3080 ca        1 A96      0.133400
     16 O21         5.7830   -2.1350    2.9460 os        1 A96     -0.001600
     17 N22         6.8900   -2.7910    2.6700 nc        1 A96     -0.272200
     18 C23         7.9180   -1.9170    2.5360 cd        1 A96      0.413800
     19 CL24        4.7320    2.9230    3.6190 cl        1 A96      0.062600
     20 N25         9.2990   -2.2810    2.2510 n4        1 A96     -0.541400
     21 C26         9.8970   -3.1320    3.2950 ca        1 A96     -0.081400
     22 C27         9.9160   -4.5300    3.1260 ca        1 A96     -0.066000
     23 C28        10.5190   -5.3180    4.1030 ca        1 A96     -0.097000
     24 C29        11.0880   -4.7350    5.2390 ca        1 A96     -0.009000
     25 C30        11.0530   -3.3470    5.3950 ca        1 A96     -0.146300
     26 C31        10.4610   -2.5300    4.4320 ca        1 A96     -0.057000
     27 C36        11.6820   -2.6890    6.6320 c3        1 A96      0.693200
     28 F37        11.7380   -3.5080    7.7260 f         1 A96     -0.210300
     29 F38        12.9670   -2.2640    6.4210 f         1 A96     -0.210300
     30 F39        11.0030   -1.5700    7.0490 f         1 A96     -0.210300
     31 H2          3.3540   -0.9280    0.1210 h4        1 A96      0.057600
     32 H4          0.7750    0.7500    3.2990 h4        1 A96      0.057600
     33 H6          0.1600    1.6430   -0.7580 h5        1 A96      0.113100
     34 HN10        2.2940   -1.4390    3.4940 hn        1 A96      0.472800
     35 H16         9.0040    0.9640    2.5360 ha        1 A96      0.180000
     36 H17         7.4480    2.8400    3.0110 ha        1 A96      0.211000
     37 HN25        9.3380   -2.7860    1.3480 hn        1 A96      0.484800
     38 H27         9.4690   -5.0130    2.2400 ha        1 A96      0.170000
     39 H28        10.5470   -6.4160    3.9770 ha        1 A96      0.194000
     40 H29        11.5620   -5.3670    6.0150 ha        1 A96      0.202000
     41 H31        10.4520   -1.4370    4.5870 ha        1 A96      0.169000
     42 H102        3.5810   -1.6140    2.4330 hn        1 A96      0.472800
     43 H252        9.8450   -1.4090    2.1740 hn        1 A96      0.484800
@<TRIPOS>BOND
     1    1    2 ar  
     2    1    6 ar  
     3    2    3 ar  
     4    2   31 1   
     5    3    4 ar  
     6    3    7 1   
     7    4    5 ar  
     8    4   32 1   
     9    5    6 ar  
    10    6   33 1   
    11    7    8 1   
    12    7   34 1   
    13    7   42 1   
    14    8    9 1   
    15    8   10 2   
    16    9   11 ar  
    17    9   15 ar  
    18   11   12 ar  
    19   11   16 1   
    20   12   13 ar  
    21   12   18 1   
    22   13   14 ar  
    23   13   35 1   
    24   14   15 ar  
    25   14   36 1   
    26   15   19 1   
    27   16   17 1   
    28   17   18 2   
    29   18   20 1   
    30   20   21 1   
    31   20   37 1   
    32   20   43 1   
    33   21   22 ar  
    34   21   26 ar  
    35   22   23 ar  
    36   22   38 1   
    37   23   24 ar  
    38   23   39 1   
    39   24   25 ar  
    40   24   40 1   
    41   25   26 ar  
    42   25   27 1   
    43   26   41 1   
    44   27   28 1   
    45   27   29 1   
    46   27   30 1   
@<TRIPOS>SUBSTRUCTURE
     1 A96         1 TEMP              0 ****  ****    0 ROOT
