@<TRIPOS>MOLECULE
A96
   41    44     1     0     0
SMALL
bcc


@<TRIPOS>ATOM
      1 N1          0.4310   -1.7430    1.1720 nb        1 A96     -0.669500
      2 C2          1.7350   -1.4390    1.2680 ca        1 A96      0.392200
      3 C3          2.1940   -0.1360    1.6380 ca        1 A96     -0.166000
      4 C4          1.1750    0.8270    1.9070 ca        1 A96      0.392200
      5 N5         -0.1320    0.5280    1.8130 nb        1 A96     -0.669500
      6 C6         -0.4470   -0.7430    1.4500 ca        1 A96      0.598900
      7 N10         3.5630    0.1310    1.6840 ns        1 A96     -0.446100
      8 C11         4.1570    1.2560    2.2460 c         1 A96      0.692700
      9 C12         5.6500    1.2570    2.2200 ca        1 A96     -0.141600
     10 O13         3.5060    2.1940    2.7330 o         1 A96     -0.556100
     11 C14         6.3800    0.1560    2.6630 ca        1 A96      0.090100
     12 C15         7.8010    0.1330    2.7330 ca        1 A96     -0.244900
     13 C16         8.5280    1.2430    2.3270 ca        1 A96     -0.027000
     14 C17         7.8220    2.3480    1.8570 ca        1 A96     -0.162000
     15 C18         6.4130    2.3600    1.7980 ca        1 A96      0.102400
     16 O21         5.8950   -1.0880    3.1030 os        1 A96     -0.015600
     17 N22         6.9140   -1.8740    3.4520 nc        1 A96     -0.441200
     18 C23         8.0910   -1.2250    3.2580 cd        1 A96      0.572800
     19 Cl24        5.6690    3.7440    1.1720 cl        1 A96     -0.031400
     20 N25         9.3870   -1.7020    3.4200 nu        1 A96     -0.649600
     21 C26         9.6500   -2.9210    4.0890 ca        1 A96      0.117600
     22 C27         8.9880   -4.1150    3.7320 ca        1 A96     -0.094000
     23 C28         9.3260   -5.3130    4.3550 ca        1 A96     -0.114000
     24 C29        10.3250   -5.3590    5.3250 ca        1 A96     -0.092000
     25 C30        10.9890   -4.1820    5.6730 ca        1 A96     -0.146300
     26 C31        10.6610   -2.9670    5.0740 ca        1 A96     -0.124000
     27 C36        12.1020   -4.2200    6.7150 c3        1 A96      0.687200
     28 F37        11.9710   -5.2130    7.6540 f         1 A96     -0.234967
     29 F38        13.3560   -4.4180    6.1880 f         1 A96     -0.234967
     30 F39        12.2300   -3.0700    7.4550 f         1 A96     -0.234967
     31 H2          2.4410   -2.2580    1.0430 h4        1 A96      0.047100
     32 H4          1.4200    1.8640    2.2110 h4        1 A96      0.047100
     33 H6         -1.5250   -0.9890    1.3720 h5        1 A96      0.057100
     34 HN10        4.1610   -0.6330    1.4450 hn        1 A96      0.330500
     35 H16         9.6280    1.2540    2.3660 ha        1 A96      0.152000
     36 H17         8.3770    3.2390    1.5200 ha        1 A96      0.163000
     37 HN25       10.0440   -0.9720    3.6170 hn        1 A96      0.430800
     38 H27         8.2030   -4.1130    2.9590 ha        1 A96      0.162000
     39 H28         8.7960   -6.2370    4.0740 ha        1 A96      0.150000
     40 H29        10.5880   -6.3080    5.8180 ha        1 A96      0.157000
     41 H31        11.1990   -2.0550    5.3810 ha        1 A96      0.150000
@<TRIPOS>BOND
     1    1    2 ar  
     2    1    6 ar  
     3    2    3 ar  
     4    2   31 1   
     5    3    4 ar  
     6    3    7 1   
     7    4    5 ar  
     8    4   32 1   
     9    5    6 ar  
    10    6   33 1   
    11    7    8 1   
    12    7   34 1   
    13    8    9 1   
    14    8   10 2   
    15    9   11 ar  
    16    9   15 ar  
    17   11   12 ar  
    18   11   16 1   
    19   12   13 ar  
    20   12   18 1   
    21   13   14 ar  
    22   13   35 1   
    23   14   15 ar  
    24   14   36 1   
    25   15   19 1   
    26   16   17 1   
    27   17   18 2   
    28   18   20 1   
    29   20   21 1   
    30   20   37 1   
    31   21   22 ar  
    32   21   26 ar  
    33   22   23 ar  
    34   22   38 1   
    35   23   24 ar  
    36   23   39 1   
    37   24   25 ar  
    38   24   40 1   
    39   25   26 ar  
    40   25   27 1   
    41   26   41 1   
    42   27   28 1   
    43   27   29 1   
    44   27   30 1   
@<TRIPOS>SUBSTRUCTURE
     1 A96         1 TEMP              0 ****  ****    0 ROOT
