@<TRIPOS>MOLECULE
A9D
   43    42     1     0     0
SMALL
bcc


@<TRIPOS>ATOM
      1 C           4.0200   -4.1380   -0.6340 c1        1 A9D      0.334000
      2 N           2.5120   -5.6170    0.5150 n3        1 A9D     -0.333000
      3 O           4.9540   -4.0670    0.2270 o         1 A9D     -0.574000
      4 C1          1.1220   -1.0850    0.6320 c1        1 A9D      0.294000
      5 O2          0.2000   -1.4270    1.3590 o         1 A9D     -0.360000
      6 C3          1.3750    0.3260    0.3950 c2        1 A9D      0.026000
      7 C4          2.0360    0.8350    1.4090 c3        1 A9D     -0.163000
      8 C5          0.9400    1.3460    2.4810 c3        1 A9D     -0.173000
      9 C6         -0.0370    1.8670    1.8020 c3        1 A9D     -0.057000
     10 N7         -0.0310    1.1640    0.4740 n         1 A9D     -0.303000
     11 C8         -1.0680    1.2160   -0.5390 c2        1 A9D      0.316000
     12 O9         -0.9350    0.5930   -1.5760 o         1 A9D     -0.402000
     13 CA          2.5820   -4.3880   -0.1820 c2        1 A9D     -0.119000
     14 CB          2.1360   -3.2640    0.7310 c3        1 A9D     -0.026000
     15 OG          1.9130   -2.0820   -0.0420 os        1 A9D     -0.294000
     16 C10        -2.0900    2.0530   -0.3960 c3        1 A9D     -0.005000
     17 C11        -3.4110    1.2550   -0.3210 c3        1 A9D     -0.169000
     18 C12        -4.1910    1.7850   -1.1920 c3        1 A9D     -0.176000
     19 C13        -3.2780    2.4060   -2.3080 c3        1 A9D     -0.050000
     20 N14        -2.2850    2.9000   -1.7380 n         1 A9D     -0.319000
     21 C15        -1.7010    4.1710   -2.0210 c2        1 A9D      0.387000
     22 O16        -1.5440    4.5380   -3.2140 o         1 A9D     -0.567500
     23 O17        -1.4050    4.9560   -1.0740 o         1 A9D     -0.567500
     24 OXT         4.2710   -3.9370   -1.8560 o         1 A9D     -0.574000
     25 HN          3.0640   -6.2230    0.1170 hn        1 A9D      0.132500
     26 HNA         1.6470   -5.9310    0.4970 hn        1 A9D      0.132500
     27 H3          1.8350    0.2930   -0.4740 h4        1 A9D      0.139000
     28 H4          2.6030    0.1510    1.8140 hc        1 A9D      0.094500
     29 H4A         2.5910    1.5970    1.1040 hc        1 A9D      0.094500
     30 H5          0.6150    0.5950    3.0090 hc        1 A9D      0.081000
     31 H5A         1.3400    2.0270    3.0730 hc        1 A9D      0.081000
     32 H6         -0.8860    1.7140    2.2610 h1        1 A9D      0.125500
     33 H6A         0.1130    2.8310    1.6770 h1        1 A9D      0.125500
     34 HA          1.9950   -4.4240   -0.9660 h4        1 A9D      0.095000
     35 HB          2.8330   -3.0900    1.4020 h1        1 A9D      0.092500
     36 HBA         1.2950   -3.5230    1.1880 h1        1 A9D      0.092500
     37 H10        -1.8160    2.5450    0.4100 h1        1 A9D      0.132000
     38 H11        -3.2510    0.3140   -0.5390 hc        1 A9D      0.082500
     39 H11A       -3.8010    1.3330    0.5700 hc        1 A9D      0.082500
     40 H12        -4.7310    2.4850   -0.7740 hc        1 A9D      0.063500
     41 H12A       -4.7780    1.0940   -1.5830 hc        1 A9D      0.063500
     42 H13        -3.7620    3.0970   -2.7850 h1        1 A9D      0.083500
     43 H13A       -2.9900    1.7050   -2.9350 h1        1 A9D      0.083500
@<TRIPOS>BOND
     1    1    3 1   
     2    1   24 1   
     3    2   13 1   
     4    2   25 1   
     5    2   26 1   
     6    4    5 1   
     7    4   15 1   
     8    6    7 1   
     9    6   10 1   
    10    6   27 1   
    11    7    8 1   
    12    7   28 1   
    13    7   29 1   
    14    8    9 1   
    15    8   30 1   
    16    8   31 1   
    17    9   10 1   
    18    9   32 1   
    19    9   33 1   
    20   10   11 1   
    21   11   12 1   
    22   11   16 1   
    23   13   14 1   
    24   13   34 1   
    25   14   15 1   
    26   14   35 1   
    27   14   36 1   
    28   16   17 1   
    29   16   20 1   
    30   16   37 1   
    31   17   18 1   
    32   17   38 1   
    33   17   39 1   
    34   18   19 1   
    35   18   40 1   
    36   18   41 1   
    37   19   20 1   
    38   19   42 1   
    39   19   43 1   
    40   20   21 1   
    41   21   22 1   
    42   21   23 1   
@<TRIPOS>SUBSTRUCTURE
     1 A9D         1 TEMP              0 ****  ****    0 ROOT
