@<TRIPOS>MOLECULE
A9D
   43    44     1     0     0
SMALL
bcc


@<TRIPOS>ATOM
      1 C           6.4330    0.4300    0.2680 c         1 A9D      0.914600
      2 N           5.0200   -0.9840   -1.2680 n3        1 A9D     -0.900800
      3 O           7.0050   -0.6020    0.7170 o         1 A9D     -0.839300
      4 C1          1.5870    0.7180    0.5270 c         1 A9D      0.623100
      5 O2          1.6760    0.8600    1.7470 o         1 A9D     -0.549000
      6 C3          0.3630    0.7750   -0.3840 c3        1 A9D      0.052700
      7 C4          0.4820    2.0120   -1.3080 c3        1 A9D     -0.084400
      8 C5         -0.6140    2.9750   -0.8680 c3        1 A9D     -0.094400
      9 C6         -1.4190    2.2480    0.2250 c3        1 A9D      0.059000
     10 N7         -0.8950    0.8960    0.3390 n         1 A9D     -0.444800
     11 C8         -1.7020   -0.2170    0.5470 c         1 A9D      0.672100
     12 O9         -1.2520   -1.3560    0.3020 o         1 A9D     -0.641100
     13 CA          5.0820    0.2510   -0.5120 c3        1 A9D      0.028500
     14 CB          3.9690    0.4410    0.5310 c3        1 A9D      0.124400
     15 OG          2.7210    0.4760   -0.1920 os        1 A9D     -0.455900
     16 C10        -3.1050   -0.0160    1.1670 c3        1 A9D      0.022700
     17 C11        -3.3740   -1.1770    2.1600 c3        1 A9D     -0.090400
     18 C12        -4.4650   -2.0250    1.5180 c3        1 A9D     -0.097400
     19 C13        -4.7930   -1.3370    0.1780 c3        1 A9D      0.066000
     20 N14        -4.1330   -0.0410    0.1330 n         1 A9D     -0.460800
     21 C15        -5.0170    1.1310    0.0550 c         1 A9D      0.984600
     22 O16        -4.5690    2.2430    0.4700 o         1 A9D     -0.832800
     23 O17        -6.1620    0.9720   -0.4590 o         1 A9D     -0.832800
     24 OXT         6.8620    1.6080    0.4040 o         1 A9D     -0.839300
     25 HN          5.6500   -1.6520   -0.8570 hn        1 A9D      0.337300
     26 HNA         4.0930   -1.3630   -1.2290 hn        1 A9D      0.337300
     27 H3          0.3730   -0.1830   -0.9840 h1        1 A9D      0.099700
     28 H4          1.4980    2.4700   -1.2260 hc        1 A9D      0.055200
     29 H4A         0.3340    1.6940   -2.3690 hc        1 A9D      0.055200
     30 H5         -0.1790    3.9200   -0.4610 hc        1 A9D      0.041700
     31 H5A        -1.2800    3.2420   -1.7240 hc        1 A9D      0.041700
     32 H6         -1.2780    2.7640    1.2140 h1        1 A9D      0.086200
     33 H6A        -2.5230    2.2480   -0.0170 h1        1 A9D      0.086200
     34 HA          4.9990    1.0920   -1.2580 h1        1 A9D      0.055700
     35 HB          3.9280   -0.3990    1.2690 h1        1 A9D      0.053200
     36 HBA         4.1070    1.4130    1.0710 h1        1 A9D      0.053200
     37 H10        -3.1290    0.9730    1.7140 h1        1 A9D      0.092700
     38 H11        -2.4490   -1.7770    2.3370 hc        1 A9D      0.043200
     39 H11A       -3.7140   -0.7580    3.1370 hc        1 A9D      0.043200
     40 H12        -4.1140   -3.0700    1.3450 hc        1 A9D      0.024200
     41 H12A       -5.3720   -2.0690    2.1680 hc        1 A9D      0.024200
     42 H13        -4.3940   -1.9620   -0.6690 h1        1 A9D      0.044200
     43 H13A       -5.9020   -1.2220    0.0360 h1        1 A9D      0.044200
@<TRIPOS>BOND
     1    1    3 1   
     2    1   13 1   
     3    1   24 1   
     4    2   13 1   
     5    2   25 1   
     6    2   26 1   
     7    4    5 2   
     8    4    6 1   
     9    4   15 1   
    10    6    7 1   
    11    6   10 1   
    12    6   27 1   
    13    7    8 1   
    14    7   28 1   
    15    7   29 1   
    16    8    9 1   
    17    8   30 1   
    18    8   31 1   
    19    9   10 1   
    20    9   32 1   
    21    9   33 1   
    22   10   11 1   
    23   11   12 2   
    24   11   16 1   
    25   13   14 1   
    26   13   34 1   
    27   14   15 1   
    28   14   35 1   
    29   14   36 1   
    30   16   17 1   
    31   16   20 1   
    32   16   37 1   
    33   17   18 1   
    34   17   38 1   
    35   17   39 1   
    36   18   19 1   
    37   18   40 1   
    38   18   41 1   
    39   19   20 1   
    40   19   42 1   
    41   19   43 1   
    42   20   21 1   
    43   21   22 1   
    44   21   23 1   
@<TRIPOS>SUBSTRUCTURE
     1 A9D         1 TEMP              0 ****  ****    0 ROOT
