@<TRIPOS>MOLECULE
A9M
   71    70     1     0     0
SMALL
bcc


@<TRIPOS>ATOM
      1 C1          0.2670   -0.6860   -0.0770 c         1 A9M      0.550100
      2 O1          1.4050   -1.0780   -0.2690 o         1 A9M     -0.397100
      3 C2         -0.4720   -0.4760    1.2080 c3        1 A9M     -0.150400
      4 C3          0.4780   -0.5530    2.3900 c3        1 A9M     -0.083400
      5 C4         -0.2870   -0.3890    3.6870 c3        1 A9M     -0.080400
      6 C5          0.6520   -0.4560    4.8730 c3        1 A9M     -0.079400
      7 C6         -0.1060   -0.2940    6.1740 c3        1 A9M     -0.079400
      8 C7          0.8310   -0.3600    7.3620 c3        1 A9M     -0.079400
      9 C8          0.0750   -0.1980    8.6640 c3        1 A9M     -0.079400
     10 C9          1.0100   -0.2640    9.8520 c3        1 A9M     -0.079400
     11 C10         0.2550   -0.1020   11.1540 c3        1 A9M     -0.079400
     12 C11         1.1900   -0.1680   12.3420 c3        1 A9M     -0.079400
     13 C12         0.4350   -0.0060   13.6440 c3        1 A9M     -0.079400
     14 C13         1.3700   -0.0720   14.8330 c3        1 A9M     -0.079400
     15 C14         0.6150    0.0900   16.1350 c3        1 A9M     -0.079400
     16 C15         1.5500    0.0240   17.3230 c3        1 A9M     -0.079400
     17 C16         0.7950    0.1850   18.6250 c3        1 A9M     -0.079400
     18 C17         1.7300    0.1190   19.8140 c3        1 A9M     -0.079400
     19 C18         0.9750    0.2810   21.1160 c3        1 A9M     -0.079400
     20 C19         1.9090    0.2150   22.3060 c3        1 A9M     -0.080400
     21 C20         1.1620    0.3760   23.6050 c3        1 A9M     -0.093100
     22 C22        -1.2540    1.3840   -2.9670 c3        1 A9M      0.108400
     23 C23        -0.3670    1.0320   -1.7650 c3        1 A9M      0.102800
     24 OAC        -2.5690    0.9810   -2.6320 oh        1 A9M     -0.634800
     25 NAX        -0.5250   -0.3910   -1.3440 n4        1 A9M     -0.685800
     26 H2         -1.2600   -1.2760    1.3000 hc        1 A9M      0.102700
     27 H2A        -0.9920    0.5210    1.1980 hc        1 A9M      0.102700
     28 H3          1.2580    0.2490    2.3020 hc        1 A9M      0.071700
     29 H3A         1.0130   -1.5400    2.3820 hc        1 A9M      0.071700
     30 H4         -0.8260    0.5950    3.6890 hc        1 A9M      0.049200
     31 H4A        -1.0610   -1.1960    3.7750 hc        1 A9M      0.049200
     32 H5          1.4280    0.3500    4.7870 hc        1 A9M      0.048700
     33 H5A         1.1920   -1.4390    4.8720 hc        1 A9M      0.048700
     34 H6         -0.8810   -1.1000    6.2620 hc        1 A9M      0.043200
     35 H6A        -0.6470    0.6890    6.1760 hc        1 A9M      0.043200
     36 H7          1.3720   -1.3430    7.3610 hc        1 A9M      0.043200
     37 H7A         1.6070    0.4460    7.2750 hc        1 A9M      0.043200
     38 H8         -0.7020   -1.0030    8.7510 hc        1 A9M      0.041200
     39 H8A        -0.4670    0.7850    8.6650 hc        1 A9M      0.041200
     40 H9          1.7860    0.5420    9.7650 hc        1 A9M      0.041200
     41 H9A         1.5520   -1.2460    9.8510 hc        1 A9M      0.041200
     42 H10        -0.5210   -0.9070   11.2410 hc        1 A9M      0.040700
     43 H10A       -0.2870    0.8810   11.1550 hc        1 A9M      0.040700
     44 H11         1.9660    0.6380   12.2550 hc        1 A9M      0.040700
     45 H11A        1.7310   -1.1500   12.3410 hc        1 A9M      0.040700
     46 H12        -0.1060    0.9770   13.6460 hc        1 A9M      0.039700
     47 H12A       -0.3420   -0.8110   13.7310 hc        1 A9M      0.039700
     48 H13         1.9110   -1.0540   14.8320 hc        1 A9M      0.039700
     49 H13A        2.1460    0.7330   14.7460 hc        1 A9M      0.039700
     50 H14        -0.1620   -0.7150   16.2220 hc        1 A9M      0.039700
     51 H14A        0.0730    1.0730   16.1360 hc        1 A9M      0.039700
     52 H15         2.0910   -0.9590   17.3220 hc        1 A9M      0.039700
     53 H15A        2.3260    0.8290   17.2360 hc        1 A9M      0.039700
     54 H16         0.2540    1.1680   18.6270 hc        1 A9M      0.039700
     55 H16A        0.0180   -0.6200   18.7120 hc        1 A9M      0.039700
     56 H17         2.2710   -0.8630   19.8130 hc        1 A9M      0.039700
     57 H17A        2.5060    0.9240   19.7270 hc        1 A9M      0.039700
     58 H18         0.4340    1.2640   21.1180 hc        1 A9M      0.039700
     59 H18A        0.1980   -0.5240   21.2030 hc        1 A9M      0.039700
     60 H19         2.4500   -0.7680   22.3020 hc        1 A9M      0.038700
     61 H19A        2.6860    1.0200   22.2160 hc        1 A9M      0.038700
     62 H20         0.3990   -0.4320   23.7240 hc        1 A9M      0.033033
     63 H20A        1.8680    0.3240   24.4680 hc        1 A9M      0.033033
     64 H20B        0.6350    1.3600   23.6380 hc        1 A9M      0.033033
     65 H22        -1.1890    2.4920   -3.1370 h1        1 A9M      0.076700
     66 H22A       -0.9170    0.8420   -3.8920 h1        1 A9M      0.076700
     67 H23         0.7140    1.2110   -2.0290 hx        1 A9M      0.114200
     68 H23A       -0.6520    1.6820   -0.8880 hx        1 A9M      0.114200
     69 HOAC       -3.1810    1.4380   -3.2240 ho        1 A9M      0.456000
     70 HNAX       -0.2020   -1.0000   -2.1060 hn        1 A9M      0.466800
     71 HAX2       -1.5260   -0.5720   -1.1870 hn        1 A9M      0.466800
@<TRIPOS>BOND
     1    1    2 2   
     2    1    3 1   
     3    1   25 1   
     4    3    4 1   
     5    3   26 1   
     6    3   27 1   
     7    4    5 1   
     8    4   28 1   
     9    4   29 1   
    10    5    6 1   
    11    5   30 1   
    12    5   31 1   
    13    6    7 1   
    14    6   32 1   
    15    6   33 1   
    16    7    8 1   
    17    7   34 1   
    18    7   35 1   
    19    8    9 1   
    20    8   36 1   
    21    8   37 1   
    22    9   10 1   
    23    9   38 1   
    24    9   39 1   
    25   10   11 1   
    26   10   40 1   
    27   10   41 1   
    28   11   12 1   
    29   11   42 1   
    30   11   43 1   
    31   12   13 1   
    32   12   44 1   
    33   12   45 1   
    34   13   14 1   
    35   13   46 1   
    36   13   47 1   
    37   14   15 1   
    38   14   48 1   
    39   14   49 1   
    40   15   16 1   
    41   15   50 1   
    42   15   51 1   
    43   16   17 1   
    44   16   52 1   
    45   16   53 1   
    46   17   18 1   
    47   17   54 1   
    48   17   55 1   
    49   18   19 1   
    50   18   56 1   
    51   18   57 1   
    52   19   20 1   
    53   19   58 1   
    54   19   59 1   
    55   20   21 1   
    56   20   60 1   
    57   20   61 1   
    58   21   62 1   
    59   21   63 1   
    60   21   64 1   
    61   22   23 1   
    62   22   24 1   
    63   22   65 1   
    64   22   66 1   
    65   23   25 1   
    66   23   67 1   
    67   23   68 1   
    68   24   69 1   
    69   25   70 1   
    70   25   71 1   
@<TRIPOS>SUBSTRUCTURE
     1 A9M         1 TEMP              0 ****  ****    0 ROOT
