@<TRIPOS>MOLECULE
A9M
   71    70     1     0     0
SMALL
bcc


@<TRIPOS>ATOM
      1 C1          0.2810   -0.6850   -0.0760 c         1 A9M      0.550100
      2 O1          1.4230   -1.0660   -0.2660 o         1 A9M     -0.397100
      3 C2         -0.4610   -0.4750    1.2080 c3        1 A9M     -0.149400
      4 C3          0.4890   -0.5420    2.3910 c3        1 A9M     -0.083400
      5 C4         -0.2770   -0.3800    3.6870 c3        1 A9M     -0.080400
      6 C5          0.6610   -0.4390    4.8740 c3        1 A9M     -0.079400
      7 C6         -0.0990   -0.2780    6.1740 c3        1 A9M     -0.079400
      8 C7          0.8370   -0.3390    7.3630 c3        1 A9M     -0.079400
      9 C8          0.0800   -0.1780    8.6640 c3        1 A9M     -0.079400
     10 C9          1.0140   -0.2430    9.8530 c3        1 A9M     -0.079400
     11 C10         0.2570   -0.0830   11.1540 c3        1 A9M     -0.079400
     12 C11         1.1910   -0.1500   12.3430 c3        1 A9M     -0.079400
     13 C12         0.4340    0.0080   13.6450 c3        1 A9M     -0.079400
     14 C13         1.3680   -0.0610   14.8340 c3        1 A9M     -0.079400
     15 C14         0.6110    0.0960   16.1360 c3        1 A9M     -0.079400
     16 C15         1.5450    0.0250   17.3260 c3        1 A9M     -0.079400
     17 C16         0.7880    0.1810   18.6270 c3        1 A9M     -0.079400
     18 C17         1.7210    0.1090   19.8170 c3        1 A9M     -0.079400
     19 C18         0.9650    0.2640   21.1190 c3        1 A9M     -0.079400
     20 C19         1.8970    0.1920   22.3090 c3        1 A9M     -0.080400
     21 C20         1.1490    0.3460   23.6080 c3        1 A9M     -0.093100
     22 C22        -1.2620    1.3520   -2.9770 c3        1 A9M      0.108400
     23 C23        -0.3720    1.0170   -1.7740 c3        1 A9M      0.102800
     24 OAC        -2.5730    0.9380   -2.6390 oh        1 A9M     -0.634800
     25 NAX        -0.5160   -0.4050   -1.3440 n4        1 A9M     -0.685800
     26 H2         -0.9870    0.5180    1.1950 hc        1 A9M      0.102700
     27 H2A        -1.2440   -1.2800    1.3030 hc        1 A9M      0.102700
     28 H3          1.0300   -1.5260    2.3870 hc        1 A9M      0.071700
     29 H3A         1.2640    0.2640    2.3010 hc        1 A9M      0.071700
     30 H4         -1.0480   -1.1900    3.7770 hc        1 A9M      0.049200
     31 H4A        -0.8210    0.6020    3.6860 hc        1 A9M      0.049200
     32 H5          1.2060   -1.4200    4.8760 hc        1 A9M      0.048700
     33 H5A         1.4330    0.3700    4.7860 hc        1 A9M      0.048700
     34 H6         -0.6430    0.7040    6.1740 hc        1 A9M      0.043200
     35 H6A        -0.8720   -1.0860    6.2620 hc        1 A9M      0.043200
     36 H7          1.3820   -1.3200    7.3630 hc        1 A9M      0.043200
     37 H7A         1.6100    0.4690    7.2760 hc        1 A9M      0.043200
     38 H8         -0.6950   -0.9850    8.7500 hc        1 A9M      0.041200
     39 H8A        -0.4640    0.8030    8.6650 hc        1 A9M      0.041200
     40 H9          1.5570   -1.2240    9.8520 hc        1 A9M      0.041200
     41 H9A         1.7890    0.5640    9.7670 hc        1 A9M      0.041200
     42 H10        -0.5190   -0.8890   11.2390 hc        1 A9M      0.040700
     43 H10A       -0.2850    0.8990   11.1560 hc        1 A9M      0.040700
     44 H11         1.7340   -1.1320   12.3410 hc        1 A9M      0.040700
     45 H11A        1.9660    0.6560   12.2590 hc        1 A9M      0.040700
     46 H12        -0.1070    0.9910   13.6480 hc        1 A9M      0.039700
     47 H12A       -0.3420   -0.7970   13.7290 hc        1 A9M      0.039700
     48 H13         2.1440    0.7450   14.7510 hc        1 A9M      0.039700
     49 H13A        1.9100   -1.0430   14.8300 hc        1 A9M      0.039700
     50 H14         0.0700    1.0790   16.1410 hc        1 A9M      0.039700
     51 H14A       -0.1650   -0.7100   16.2190 hc        1 A9M      0.039700
     52 H15         2.3210    0.8310   17.2430 hc        1 A9M      0.039700
     53 H15A        2.0860   -0.9580   17.3210 hc        1 A9M      0.039700
     54 H16         0.2470    1.1640   18.6330 hc        1 A9M      0.039700
     55 H16A        0.0110   -0.6240   18.7100 hc        1 A9M      0.039700
     56 H17         2.2630   -0.8740   19.8110 hc        1 A9M      0.039700
     57 H17A        2.4980    0.9140   19.7350 hc        1 A9M      0.039700
     58 H18         0.4240    1.2470   21.1250 hc        1 A9M      0.039700
     59 H18A        0.1880   -0.5410   21.2010 hc        1 A9M      0.039700
     60 H19         2.6750    0.9970   22.2250 hc        1 A9M      0.038700
     61 H19A        2.4380   -0.7910   22.3010 hc        1 A9M      0.038700
     62 H20         0.3860   -0.4620   23.7220 hc        1 A9M      0.033033
     63 H20A        1.8540    0.2900   24.4720 hc        1 A9M      0.033033
     64 H20B        0.6230    1.3310   23.6460 hc        1 A9M      0.033033
     65 H22        -0.9200    0.8090   -3.8990 h1        1 A9M      0.076700
     66 H22A       -1.2090    2.4600   -3.1540 h1        1 A9M      0.076700
     67 H23        -0.6640    1.6690   -0.9000 hx        1 A9M      0.114200
     68 H23A        0.7070    1.2050   -2.0390 hx        1 A9M      0.114200
     69 HOAC       -3.1900    1.3860   -3.2350 ho        1 A9M      0.456000
     70 HNAX       -1.5140   -0.5950   -1.1850 hn        1 A9M      0.466800
     71 HAX2       -0.1860   -1.0150   -2.1020 hn        1 A9M      0.466800
@<TRIPOS>BOND
     1    1    2 2   
     2    1    3 1   
     3    1   25 1   
     4    3    4 1   
     5    3   26 1   
     6    3   27 1   
     7    4    5 1   
     8    4   28 1   
     9    4   29 1   
    10    5    6 1   
    11    5   30 1   
    12    5   31 1   
    13    6    7 1   
    14    6   32 1   
    15    6   33 1   
    16    7    8 1   
    17    7   34 1   
    18    7   35 1   
    19    8    9 1   
    20    8   36 1   
    21    8   37 1   
    22    9   10 1   
    23    9   38 1   
    24    9   39 1   
    25   10   11 1   
    26   10   40 1   
    27   10   41 1   
    28   11   12 1   
    29   11   42 1   
    30   11   43 1   
    31   12   13 1   
    32   12   44 1   
    33   12   45 1   
    34   13   14 1   
    35   13   46 1   
    36   13   47 1   
    37   14   15 1   
    38   14   48 1   
    39   14   49 1   
    40   15   16 1   
    41   15   50 1   
    42   15   51 1   
    43   16   17 1   
    44   16   52 1   
    45   16   53 1   
    46   17   18 1   
    47   17   54 1   
    48   17   55 1   
    49   18   19 1   
    50   18   56 1   
    51   18   57 1   
    52   19   20 1   
    53   19   58 1   
    54   19   59 1   
    55   20   21 1   
    56   20   60 1   
    57   20   61 1   
    58   21   62 1   
    59   21   63 1   
    60   21   64 1   
    61   22   23 1   
    62   22   24 1   
    63   22   65 1   
    64   22   66 1   
    65   23   25 1   
    66   23   67 1   
    67   23   68 1   
    68   24   69 1   
    69   25   70 1   
    70   25   71 1   
@<TRIPOS>SUBSTRUCTURE
     1 A9M         1 TEMP              0 ****  ****    0 ROOT
