@<TRIPOS>MOLECULE
A9M
   70    68     1     0     0
SMALL
bcc


@<TRIPOS>ATOM
      1 C1          2.3870   -0.1060   -9.1370 c1        1 A9M      0.298000
      2 O1          1.5880    0.7960   -9.2220 o         1 A9M     -0.364000
      3 C2          2.5240   -0.8890   -7.8210 c2        1 A9M     -0.185000
      4 C3          1.1460   -0.9630   -7.1180 c3        1 A9M     -0.156000
      5 C4          1.3510   -1.0200   -5.5850 c3        1 A9M     -0.159000
      6 C5          0.0580   -1.5390   -4.9070 c3        1 A9M     -0.158000
      7 C6         -0.1050   -0.8700   -3.5210 c3        1 A9M     -0.158000
      8 C7         -1.0620   -1.7130   -2.6520 c3        1 A9M     -0.158000
      9 C8         -1.6660   -0.8250   -1.5410 c3        1 A9M     -0.158000
     10 C9         -1.6690   -1.6000   -0.2040 c3        1 A9M     -0.158000
     11 C10        -2.4010   -0.7590    0.8830 c3        1 A9M     -0.158000
     12 C11        -2.0570   -1.3130    2.2840 c3        1 A9M     -0.158000
     13 C12        -2.6190   -0.3600    3.3710 c3        1 A9M     -0.158000
     14 C13        -2.0260   -0.7400    4.7500 c3        1 A9M     -0.158000
     15 C14        -2.3100    0.3930    5.7630 c3        1 A9M     -0.158000
     16 C15        -1.6240    0.0680    7.1020 c3        1 A9M     -0.158000
     17 C16        -1.6160    1.3180    7.9890 c3        1 A9M     -0.158000
     18 C17        -0.9150    1.0000    9.3150 c3        1 A9M     -0.158000
     19 C18        -0.5820    2.3060   10.0430 c3        1 A9M     -0.158000
     20 C19         0.1310    1.9890   11.3570 c3        1 A9M     -0.159000
     21 C20         0.8070    3.2460   11.8830 c3        1 A9M     -0.210000
     22 C22         3.9850    0.2240  -12.4720 c3        1 A9M     -0.047000
     23 C23         3.8490    0.6580  -11.0190 c3        1 A9M     -0.032000
     24 OAC         4.5230    1.2890  -13.2340 oh        1 A9M     -0.326000
     25 NAX         3.2500   -0.4130  -10.2510 n3        1 A9M     -0.380000
     26 H2          3.1650   -0.4350   -7.2370 ha        1 A9M      0.113000
     27 H2A         2.8430   -1.7950   -8.0120 ha        1 A9M      0.113000
     28 H3          0.6190   -0.1710   -7.3490 hc        1 A9M      0.083500
     29 H3A         0.6730   -1.7660   -7.4130 hc        1 A9M      0.083500
     30 H4          2.0920   -1.6230   -5.3780 hc        1 A9M      0.083500
     31 H4A         1.5570   -0.1240   -5.2500 hc        1 A9M      0.083500
     32 H5          0.1150   -2.5110   -4.7960 hc        1 A9M      0.079500
     33 H5A        -0.7150   -1.3200   -5.4680 hc        1 A9M      0.079500
     34 H6         -0.4730    0.0300   -3.6340 hc        1 A9M      0.080000
     35 H6A         0.7660   -0.8120   -3.0840 hc        1 A9M      0.080000
     36 H7         -0.5690   -2.4500   -2.2460 hc        1 A9M      0.079500
     37 H7A        -1.7830   -2.0710   -3.2130 hc        1 A9M      0.079500
     38 H8         -1.1310   -0.0130   -1.4460 hc        1 A9M      0.079500
     39 H8A        -2.5840   -0.5840   -1.7790 hc        1 A9M      0.079500
     40 H9         -2.1330   -2.4570   -0.3230 hc        1 A9M      0.079000
     41 H9A        -0.7470   -1.7650    0.0790 hc        1 A9M      0.079000
     42 H10        -3.3690   -0.8130    0.7390 hc        1 A9M      0.079000
     43 H10A       -2.1150    0.1700    0.8220 hc        1 A9M      0.079000
     44 H11        -2.4560   -2.2040    2.3910 hc        1 A9M      0.079000
     45 H11A       -1.0870   -1.3780    2.3780 hc        1 A9M      0.079000
     46 H12        -2.3760    0.5590    3.1540 hc        1 A9M      0.079000
     47 H12A       -3.5970   -0.4410    3.4020 hc        1 A9M      0.079000
     48 H13        -2.4380   -1.5710    5.0660 hc        1 A9M      0.079000
     49 H13A       -1.0620   -0.8660    4.6660 hc        1 A9M      0.079000
     50 H14        -3.2760    0.4710    5.9010 hc        1 A9M      0.079000
     51 H14A       -1.9610    1.2380    5.4140 hc        1 A9M      0.079000
     52 H15        -0.7040   -0.2190    6.9360 hc        1 A9M      0.079000
     53 H15A       -2.1110   -0.6460    7.5520 hc        1 A9M      0.079000
     54 H16        -2.5340    1.5970    8.1650 hc        1 A9M      0.079000
     55 H16A       -1.1380    2.0400    7.5310 hc        1 A9M      0.079000
     56 H17        -0.0880    0.5060    9.1380 hc        1 A9M      0.079000
     57 H17A       -1.5050    0.4570    9.8740 hc        1 A9M      0.079000
     58 H18        -0.0000    2.8540    9.4800 hc        1 A9M      0.079000
     59 H18A       -1.4080    2.7940   10.2300 hc        1 A9M      0.079000
     60 H19         0.8040    1.2970   11.2030 hc        1 A9M      0.078000
     61 H19A       -0.5210    1.6700   12.0130 hc        1 A9M      0.078000
     62 H20         0.1330    3.9430   12.0280 hc        1 A9M      0.072000
     63 H20A        1.4660    3.5600   11.2300 hc        1 A9M      0.072000
     64 H20B        1.2570    3.0440   12.7310 hc        1 A9M      0.072000
     65 H22         3.1050   -0.0170  -12.8240 h1        1 A9M      0.066000
     66 H22A        4.5810   -0.5490  -12.5260 h1        1 A9M      0.066000
     67 H23         4.7330    0.8640  -10.6560 h1        1 A9M      0.115000
     68 H23A        3.2800    1.4540  -10.9680 h1        1 A9M      0.115000
     69 HOAC        4.3370    1.1610  -14.0950 ho        1 A9M      0.203000
     70 HNAX        3.4090   -1.2850  -10.4810 hn        1 A9M      0.219000
@<TRIPOS>BOND
     1    1    2 1   
     2    1   25 1   
     3    3    4 1   
     4    3   26 1   
     5    3   27 1   
     6    4    5 1   
     7    4   28 1   
     8    4   29 1   
     9    5    6 1   
    10    5   30 1   
    11    5   31 1   
    12    6    7 1   
    13    6   32 1   
    14    6   33 1   
    15    7    8 1   
    16    7   34 1   
    17    7   35 1   
    18    8    9 1   
    19    8   36 1   
    20    8   37 1   
    21    9   10 1   
    22    9   38 1   
    23    9   39 1   
    24   10   11 1   
    25   10   40 1   
    26   10   41 1   
    27   11   12 1   
    28   11   42 1   
    29   11   43 1   
    30   12   13 1   
    31   12   44 1   
    32   12   45 1   
    33   13   14 1   
    34   13   46 1   
    35   13   47 1   
    36   14   15 1   
    37   14   48 1   
    38   14   49 1   
    39   15   16 1   
    40   15   50 1   
    41   15   51 1   
    42   16   17 1   
    43   16   52 1   
    44   16   53 1   
    45   17   18 1   
    46   17   54 1   
    47   17   55 1   
    48   18   19 1   
    49   18   56 1   
    50   18   57 1   
    51   19   20 1   
    52   19   58 1   
    53   19   59 1   
    54   20   21 1   
    55   20   60 1   
    56   20   61 1   
    57   21   62 1   
    58   21   63 1   
    59   21   64 1   
    60   22   23 1   
    61   22   24 1   
    62   22   65 1   
    63   22   66 1   
    64   23   25 1   
    65   23   67 1   
    66   23   68 1   
    67   24   69 1   
    68   25   70 1   
@<TRIPOS>SUBSTRUCTURE
     1 A9M         1 TEMP              0 ****  ****    0 ROOT
