@<TRIPOS>MOLECULE
A9M
   70    69     1     0     0
SMALL
bcc


@<TRIPOS>ATOM
      1 C1         -9.0970    0.0330    0.9710 c         1 A9M      0.651100
      2 O1         -9.7900   -0.1920    1.9840 o         1 A9M     -0.613100
      3 C2         -7.7990    0.8120    1.0680 c3        1 A9M     -0.153400
      4 C3         -6.6020   -0.0240    0.6720 c3        1 A9M     -0.076400
      5 C4         -5.3130    0.7340    0.9150 c3        1 A9M     -0.080400
      6 C5         -4.1100   -0.0900    0.5070 c3        1 A9M     -0.079400
      7 C6         -2.8210    0.6640    0.7530 c3        1 A9M     -0.079400
      8 C7         -1.6180   -0.1590    0.3440 c3        1 A9M     -0.079400
      9 C8         -0.3280    0.5940    0.5900 c3        1 A9M     -0.079400
     10 C9          0.8750   -0.2280    0.1800 c3        1 A9M     -0.079400
     11 C10         2.1650    0.5250    0.4270 c3        1 A9M     -0.079400
     12 C11         3.3680   -0.2970    0.0170 c3        1 A9M     -0.079400
     13 C12         4.6580    0.4560    0.2630 c3        1 A9M     -0.079400
     14 C13         5.8610   -0.3660   -0.1470 c3        1 A9M     -0.079400
     15 C14         7.1500    0.3860    0.0990 c3        1 A9M     -0.079400
     16 C15         8.3530   -0.4350   -0.3120 c3        1 A9M     -0.079400
     17 C16         9.6430    0.3170   -0.0660 c3        1 A9M     -0.079400
     18 C17        10.8460   -0.5040   -0.4760 c3        1 A9M     -0.079400
     19 C18        12.1360    0.2480   -0.2300 c3        1 A9M     -0.079400
     20 C19        13.3400   -0.5720   -0.6410 c3        1 A9M     -0.080400
     21 C20        14.6270    0.1730   -0.3980 c3        1 A9M     -0.092100
     22 C22       -11.7630   -0.1740   -1.2210 c3        1 A9M      0.098400
     23 C23       -10.7350   -1.0690   -0.5110 c3        1 A9M      0.086000
     24 OAC       -11.2340    0.1500   -2.4960 oh        1 A9M     -0.610800
     25 NAX        -9.4640   -0.4490   -0.2720 n         1 A9M     -0.557900
     26 H2         -7.8650    1.7260    0.4210 hc        1 A9M      0.069700
     27 H2A        -7.6910    1.1530    2.1320 hc        1 A9M      0.069700
     28 H3         -6.5960   -0.9770    1.2640 hc        1 A9M      0.049200
     29 H3A        -6.6680   -0.3070   -0.4120 hc        1 A9M      0.049200
     30 H4         -5.3250    1.6950    0.3370 hc        1 A9M      0.042200
     31 H4A        -5.2340    1.0020    2.0020 hc        1 A9M      0.042200
     32 H5         -4.1000   -1.0520    1.0840 hc        1 A9M      0.041200
     33 H5A        -4.1880   -0.3570   -0.5800 hc        1 A9M      0.041200
     34 H6         -2.8320    1.6270    0.1780 hc        1 A9M      0.040200
     35 H6A        -2.7420    0.9290    1.8410 hc        1 A9M      0.040200
     36 H7         -1.6070   -1.1220    0.9200 hc        1 A9M      0.040200
     37 H7A        -1.6960   -0.4250   -0.7430 hc        1 A9M      0.040200
     38 H8         -0.3390    1.5570    0.0150 hc        1 A9M      0.039700
     39 H8A        -0.2490    0.8600    1.6770 hc        1 A9M      0.039700
     40 H9          0.8860   -1.1910    0.7560 hc        1 A9M      0.039700
     41 H9A         0.7960   -0.4940   -0.9070 hc        1 A9M      0.039700
     42 H10         2.1540    1.4880   -0.1490 hc        1 A9M      0.039700
     43 H10A        2.2440    0.7900    1.5140 hc        1 A9M      0.039700
     44 H11         3.3790   -1.2600    0.5920 hc        1 A9M      0.039700
     45 H11A        3.2890   -0.5630   -1.0700 hc        1 A9M      0.039700
     46 H12         4.6460    1.4190   -0.3120 hc        1 A9M      0.039700
     47 H12A        4.7370    0.7210    1.3500 hc        1 A9M      0.039700
     48 H13         5.8720   -1.3300    0.4280 hc        1 A9M      0.039700
     49 H13A        5.7820   -0.6320   -1.2340 hc        1 A9M      0.039700
     50 H14         7.1390    1.3500   -0.4760 hc        1 A9M      0.039700
     51 H14A        7.2290    0.6520    1.1860 hc        1 A9M      0.039700
     52 H15         8.3650   -1.3990    0.2630 hc        1 A9M      0.039700
     53 H15A        8.2740   -0.7010   -1.3990 hc        1 A9M      0.039700
     54 H16         9.6320    1.2810   -0.6410 hc        1 A9M      0.039700
     55 H16A        9.7220    0.5830    1.0220 hc        1 A9M      0.039700
     56 H17        10.8570   -1.4680    0.0980 hc        1 A9M      0.039700
     57 H17A       10.7670   -0.7690   -1.5640 hc        1 A9M      0.039700
     58 H18        12.1250    1.2120   -0.8050 hc        1 A9M      0.039700
     59 H18A       12.2160    0.5130    0.8570 hc        1 A9M      0.039700
     60 H19        13.3490   -1.5360   -0.0660 hc        1 A9M      0.038700
     61 H19A       13.2580   -0.8380   -1.7280 hc        1 A9M      0.038700
     62 H20        15.5010   -0.4490   -0.7070 hc        1 A9M      0.032700
     63 H20A       14.6480    1.1250   -0.9810 hc        1 A9M      0.032700
     64 H20B       14.7380    0.4240    0.6850 hc        1 A9M      0.032700
     65 H22       -12.7230   -0.7460   -1.3350 h1        1 A9M      0.032700
     66 H22A      -11.9600    0.7630   -0.6360 h1        1 A9M      0.032700
     67 H23       -11.1810   -1.3950    0.4710 h1        1 A9M      0.071700
     68 H23A      -10.5590   -1.9770   -1.1560 h1        1 A9M      0.071700
     69 HOAC      -11.8940    0.6950   -2.9410 ho        1 A9M      0.404000
     70 HNAX       -8.9880   -0.1070   -1.0740 hn        1 A9M      0.314500
@<TRIPOS>BOND
     1    1    2 2   
     2    1    3 1   
     3    1   25 1   
     4    3    4 1   
     5    3   26 1   
     6    3   27 1   
     7    4    5 1   
     8    4   28 1   
     9    4   29 1   
    10    5    6 1   
    11    5   30 1   
    12    5   31 1   
    13    6    7 1   
    14    6   32 1   
    15    6   33 1   
    16    7    8 1   
    17    7   34 1   
    18    7   35 1   
    19    8    9 1   
    20    8   36 1   
    21    8   37 1   
    22    9   10 1   
    23    9   38 1   
    24    9   39 1   
    25   10   11 1   
    26   10   40 1   
    27   10   41 1   
    28   11   12 1   
    29   11   42 1   
    30   11   43 1   
    31   12   13 1   
    32   12   44 1   
    33   12   45 1   
    34   13   14 1   
    35   13   46 1   
    36   13   47 1   
    37   14   15 1   
    38   14   48 1   
    39   14   49 1   
    40   15   16 1   
    41   15   50 1   
    42   15   51 1   
    43   16   17 1   
    44   16   52 1   
    45   16   53 1   
    46   17   18 1   
    47   17   54 1   
    48   17   55 1   
    49   18   19 1   
    50   18   56 1   
    51   18   57 1   
    52   19   20 1   
    53   19   58 1   
    54   19   59 1   
    55   20   21 1   
    56   20   60 1   
    57   20   61 1   
    58   21   62 1   
    59   21   63 1   
    60   21   64 1   
    61   22   23 1   
    62   22   24 1   
    63   22   65 1   
    64   22   66 1   
    65   23   25 1   
    66   23   67 1   
    67   23   68 1   
    68   24   69 1   
    69   25   70 1   
@<TRIPOS>SUBSTRUCTURE
     1 A9M         1 TEMP              0 ****  ****    0 ROOT
