@<TRIPOS>MOLECULE
A9M
   71    70     1     0     0
SMALL
bcc


@<TRIPOS>ATOM
      1 C1          0.2690   -0.6870   -0.0770 c         1 A9M      0.550100
      2 O1          1.4070   -1.0760   -0.2680 o         1 A9M     -0.397100
      3 C2         -0.4710   -0.4760    1.2080 c3        1 A9M     -0.150400
      4 C3          0.4800   -0.5500    2.3900 c3        1 A9M     -0.083400
      5 C4         -0.2850   -0.3860    3.6870 c3        1 A9M     -0.080400
      6 C5          0.6530   -0.4510    4.8740 c3        1 A9M     -0.079400
      7 C6         -0.1040   -0.2890    6.1740 c3        1 A9M     -0.079400
      8 C7          0.8320   -0.3540    7.3620 c3        1 A9M     -0.079400
      9 C8          0.0760   -0.1930    8.6640 c3        1 A9M     -0.079400
     10 C9          1.0110   -0.2580    9.8520 c3        1 A9M     -0.079400
     11 C10         0.2560   -0.0970   11.1540 c3        1 A9M     -0.079400
     12 C11         1.1910   -0.1630   12.3420 c3        1 A9M     -0.079400
     13 C12         0.4360   -0.0030   13.6440 c3        1 A9M     -0.079400
     14 C13         1.3700   -0.0690   14.8330 c3        1 A9M     -0.079400
     15 C14         0.6150    0.0910   16.1350 c3        1 A9M     -0.079400
     16 C15         1.5500    0.0230   17.3240 c3        1 A9M     -0.079400
     17 C16         0.7940    0.1830   18.6260 c3        1 A9M     -0.079400
     18 C17         1.7290    0.1160   19.8150 c3        1 A9M     -0.079400
     19 C18         0.9740    0.2760   21.1170 c3        1 A9M     -0.079400
     20 C19         1.9070    0.2090   22.3070 c3        1 A9M     -0.080400
     21 C20         1.1600    0.3680   23.6050 c3        1 A9M     -0.093100
     22 C22        -1.2560    1.3770   -2.9700 c3        1 A9M      0.108400
     23 C23        -0.3690    1.0290   -1.7670 c3        1 A9M      0.102800
     24 OAC        -2.5710    0.9720   -2.6340 oh        1 A9M     -0.634800
     25 NAX        -0.5250   -0.3940   -1.3440 ny        1 A9M     -0.685800
     26 H2         -1.2580   -1.2770    1.3020 hc        1 A9M      0.102700
     27 H2A        -0.9920    0.5210    1.1970 hc        1 A9M      0.102700
     28 H3          1.2580    0.2530    2.3010 hc        1 A9M      0.071700
     29 H3A         1.0160   -1.5360    2.3830 hc        1 A9M      0.071700
     30 H4         -0.8260    0.5970    3.6890 hc        1 A9M      0.049200
     31 H4A        -1.0590   -1.1940    3.7760 hc        1 A9M      0.049200
     32 H5          1.4280    0.3560    4.7870 hc        1 A9M      0.048700
     33 H5A         1.1950   -1.4340    4.8730 hc        1 A9M      0.048700
     34 H6         -0.8790   -1.0960    6.2620 hc        1 A9M      0.043200
     35 H6A        -0.6470    0.6930    6.1760 hc        1 A9M      0.043200
     36 H7          1.3740   -1.3360    7.3620 hc        1 A9M      0.043200
     37 H7A         1.6070    0.4530    7.2750 hc        1 A9M      0.043200
     38 H8         -0.7000   -0.9990    8.7510 hc        1 A9M      0.041200
     39 H8A        -0.4660    0.7900    8.6650 hc        1 A9M      0.041200
     40 H9          1.7870    0.5480    9.7650 hc        1 A9M      0.041200
     41 H9A         1.5540   -1.2400    9.8510 hc        1 A9M      0.041200
     42 H10        -0.5200   -0.9020   11.2410 hc        1 A9M      0.040700
     43 H10A       -0.2860    0.8860   11.1560 hc        1 A9M      0.040700
     44 H11         1.9670    0.6430   12.2560 hc        1 A9M      0.040700
     45 H11A        1.7330   -1.1450   12.3410 hc        1 A9M      0.040700
     46 H12        -0.1060    0.9800   13.6460 hc        1 A9M      0.039700
     47 H12A       -0.3410   -0.8080   13.7310 hc        1 A9M      0.039700
     48 H13         1.9120   -1.0520   14.8310 hc        1 A9M      0.039700
     49 H13A        2.1470    0.7360   14.7470 hc        1 A9M      0.039700
     50 H14        -0.1610   -0.7150   16.2210 hc        1 A9M      0.039700
     51 H14A        0.0730    1.0730   16.1370 hc        1 A9M      0.039700
     52 H15         2.0910   -0.9590   17.3220 hc        1 A9M      0.039700
     53 H15A        2.3260    0.8290   17.2380 hc        1 A9M      0.039700
     54 H16         0.2530    1.1660   18.6280 hc        1 A9M      0.039700
     55 H16A        0.0180   -0.6220   18.7120 hc        1 A9M      0.039700
     56 H17         2.2700   -0.8670   19.8120 hc        1 A9M      0.039700
     57 H17A        2.5050    0.9210   19.7290 hc        1 A9M      0.039700
     58 H18         0.4320    1.2590   21.1200 hc        1 A9M      0.039700
     59 H18A        0.1970   -0.5290   21.2030 hc        1 A9M      0.039700
     60 H19         2.4490   -0.7740   22.3020 hc        1 A9M      0.038700
     61 H19A        2.6840    1.0140   22.2180 hc        1 A9M      0.038700
     62 H20         0.3980   -0.4400   23.7240 hc        1 A9M      0.033033
     63 H20A        1.8660    0.3150   24.4690 hc        1 A9M      0.033033
     64 H20B        0.6330    1.3520   23.6400 hc        1 A9M      0.033033
     65 H22        -1.1930    2.4850   -3.1410 h1        1 A9M      0.076700
     66 H22A       -0.9180    0.8340   -3.8940 h1        1 A9M      0.076700
     67 H23         0.7110    1.2090   -2.0310 hx        1 A9M      0.114200
     68 H23A       -0.6560    1.6790   -0.8910 hx        1 A9M      0.114200
     69 HOAC       -3.1830    1.4270   -3.2270 ho        1 A9M      0.456000
     70 HNAX       -0.2010   -1.0040   -2.1050 hn        1 A9M      0.466800
     71 HAX2       -1.5250   -0.5770   -1.1860 hn        1 A9M      0.466800
@<TRIPOS>BOND
     1    1    2 2   
     2    1    3 1   
     3    1   25 1   
     4    3    4 1   
     5    3   26 1   
     6    3   27 1   
     7    4    5 1   
     8    4   28 1   
     9    4   29 1   
    10    5    6 1   
    11    5   30 1   
    12    5   31 1   
    13    6    7 1   
    14    6   32 1   
    15    6   33 1   
    16    7    8 1   
    17    7   34 1   
    18    7   35 1   
    19    8    9 1   
    20    8   36 1   
    21    8   37 1   
    22    9   10 1   
    23    9   38 1   
    24    9   39 1   
    25   10   11 1   
    26   10   40 1   
    27   10   41 1   
    28   11   12 1   
    29   11   42 1   
    30   11   43 1   
    31   12   13 1   
    32   12   44 1   
    33   12   45 1   
    34   13   14 1   
    35   13   46 1   
    36   13   47 1   
    37   14   15 1   
    38   14   48 1   
    39   14   49 1   
    40   15   16 1   
    41   15   50 1   
    42   15   51 1   
    43   16   17 1   
    44   16   52 1   
    45   16   53 1   
    46   17   18 1   
    47   17   54 1   
    48   17   55 1   
    49   18   19 1   
    50   18   56 1   
    51   18   57 1   
    52   19   20 1   
    53   19   58 1   
    54   19   59 1   
    55   20   21 1   
    56   20   60 1   
    57   20   61 1   
    58   21   62 1   
    59   21   63 1   
    60   21   64 1   
    61   22   23 1   
    62   22   24 1   
    63   22   65 1   
    64   22   66 1   
    65   23   25 1   
    66   23   67 1   
    67   23   68 1   
    68   24   69 1   
    69   25   70 1   
    70   25   71 1   
@<TRIPOS>SUBSTRUCTURE
     1 A9M         1 TEMP              0 ****  ****    0 ROOT
