@<TRIPOS>MOLECULE
A9N
   37    33     1     0     0
SMALL
bcc


@<TRIPOS>ATOM
      1 O3         -0.8180    0.9980    3.1000 o         1 A9N     -0.935000
      2 S           0.1570    1.4350    2.1310 ss        1 A9N      2.855000
      3 O2          1.2670    1.7680    2.9830 o         1 A9N     -0.935000
      4 N2         -0.3790    2.7630    1.2960 n2        1 A9N     -0.870000
      5 C13         0.5800    3.9640    1.0450 cx        1 A9N      0.023000
      6 C15        -0.5330    5.3740    1.0360 cu        1 A9N     -0.197000
      7 C14        -0.2510    5.3250    1.8740 cu        1 A9N     -0.197000
      8 C11         0.5810    0.1150    0.9940 c1        1 A9N     -0.822000
      9 C9          1.8430   -0.4750    1.0510 c2        1 A9N      0.064000
     10 C10         2.8660    0.0060    2.0830 c3        1 A9N     -0.220000
     11 C8          2.1470   -1.5490    0.2190 c1        1 A9N     -0.162000
     12 C7          1.1910   -2.0330   -0.6710 c1        1 A9N     -0.060000
     13 C12        -0.3740   -0.3690    0.1030 c1        1 A9N     -0.020000
     14 C6         -0.0690   -1.4440   -0.7290 c1        1 A9N     -0.032000
     15 C5         -1.1240   -1.9840   -1.7010 c2        1 A9N     -0.148000
     16 C2         -2.0920   -2.9280   -1.4080 c1        1 A9N     -0.081000
     17 C1         -2.2980   -3.6130   -0.0590 c2        1 A9N     -0.165000
     18 C3         -1.2410   -1.6550   -3.0340 c1        1 A9N     -0.011000
     19 C4         -0.3380   -0.6950   -3.8040 c2        1 A9N     -0.165000
     20 O1         -2.2620   -2.3810   -3.5560 os        1 A9N     -0.060000
     21 N1         -2.7920   -3.1740   -2.5400 n2        1 A9N     -0.028000
     22 H2         -1.2470    2.8010    1.0030 hn        1 A9N      0.243000
     23 H13         1.4210    3.5720    0.7380 h1        1 A9N      0.145000
     24 H15        -0.3210    6.1630    0.4920 ha        1 A9N      0.191500
     25 H14        -0.8890    5.1440    2.5950 ha        1 A9N      0.191500
     26 H12        -1.2610    0.0460    0.0620 ha        1 A9N      0.165000
     27 H101        3.6740   -0.5530    2.0300 hc        1 A9N      0.106000
     28 H102        2.4800   -0.0620    2.9840 hc        1 A9N      0.106000
     29 H103        3.1030    0.9420    1.8980 hc        1 A9N      0.106000
     30 H8          3.0350   -1.9640    0.2600 ha        1 A9N      0.141000
     31 H7          1.4060   -2.7900   -1.2580 ha        1 A9N      0.138000
     32 H11C       -1.4710   -4.0710    0.2050 ha        1 A9N      0.105167
     33 H12C       -2.5310   -2.9410    0.6170 ha        1 A9N      0.105167
     34 H13C       -3.0260   -4.2700   -0.1330 ha        1 A9N      0.105167
     35 H41C       -0.2300    0.1350   -3.2910 ha        1 A9N      0.105167
     36 H42C       -0.7450   -0.4900   -4.6750 ha        1 A9N      0.105167
     37 H43C        0.5410   -1.1110   -3.9420 ha        1 A9N      0.105167
@<TRIPOS>BOND
     1    1    2 1   
     2    2    3 1   
     3    4    5 1   
     4    4   22 1   
     5    5    6 1   
     6    5    7 1   
     7    5   23 1   
     8    6    7 1   
     9    6   24 1   
    10    7   25 1   
    11    8    9 1   
    12    8   13 1   
    13    9   10 1   
    14    9   11 1   
    15   10   27 1   
    16   10   28 1   
    17   10   29 1   
    18   11   30 1   
    19   12   14 1   
    20   12   31 1   
    21   13   26 1   
    22   14   15 1   
    23   15   16 1   
    24   15   18 1   
    25   16   21 1   
    26   17   32 1   
    27   17   33 1   
    28   17   34 1   
    29   18   20 1   
    30   19   35 1   
    31   19   36 1   
    32   19   37 1   
    33   20   21 1   
@<TRIPOS>SUBSTRUCTURE
     1 A9N         1 TEMP              0 ****  ****    0 ROOT
