@<TRIPOS>MOLECULE
A9N
   38    40     1     0     0
SMALL
bcc


@<TRIPOS>ATOM
      1 O3          0.8750   -0.7420   -0.1310 o         1 A9N     -0.573800
      2 S           2.0880   -0.0880   -0.1840 sy        1 A9N      1.487200
      3 O2          2.9920   -0.1830    0.8560 o         1 A9N     -0.573800
      4 N2          2.9640   -1.0700   -1.5780 ny        1 A9N     -0.684900
      5 C13         3.6310   -2.2680   -1.0460 cx        1 A9N      0.040900
      6 C15         2.9960   -3.6190   -1.1510 cu        1 A9N     -0.124700
      7 C14         4.0380   -3.4020   -1.9320 cu        1 A9N     -0.124700
      8 C11         2.0920    1.3360   -0.9330 ca        1 A9N     -0.536500
      9 C9          1.1070    1.7540   -1.8600 ca        1 A9N      0.077700
     10 C10        -0.0050    0.8600   -2.2600 c3        1 A9N     -0.102800
     11 C8          1.1640    3.0430   -2.3990 ca        1 A9N     -0.153000
     12 C7          2.1640    3.9340   -2.0300 ca        1 A9N      0.000000
     13 C12         3.1010    2.2640   -0.5730 ca        1 A9N     -0.024000
     14 C6          3.1480    3.5540   -1.0930 ca        1 A9N      0.013000
     15 C5          4.1730    4.4760   -0.6820 cc        1 A9N     -0.329600
     16 C2          4.0450    5.9340   -0.5100 cc        1 A9N      0.346600
     17 C1          2.8250    6.7370   -0.7150 c3        1 A9N     -0.143400
     18 C3          5.4960    4.2070   -0.3450 cd        1 A9N      0.310000
     19 C4          6.3420    3.0180   -0.2650 c3        1 A9N     -0.152400
     20 O1          6.1050    5.4310   -0.0130 os        1 A9N     -0.091100
     21 N1          5.2380    6.4190   -0.1110 nd        1 A9N     -0.329300
     22 H2          2.2800   -1.3450   -2.2810 hn        1 A9N      0.441300
     23 H13         4.2500   -1.9760   -0.1630 hx        1 A9N      0.151700
     24 H15         2.2130   -4.2330   -0.7440 ha        1 A9N      0.232000
     25 H14         4.7680   -3.7110   -2.6570 ha        1 A9N      0.232000
     26 H12         3.8670    1.9620    0.1700 ha        1 A9N      0.170000
     27 H101       -0.6980    0.6910   -1.3920 hc        1 A9N      0.077700
     28 H102       -0.6030    1.3040   -3.0960 hc        1 A9N      0.077700
     29 H103        0.3710   -0.1380   -2.5970 hc        1 A9N      0.077700
     30 H8          0.3970    3.3600   -3.1270 ha        1 A9N      0.171000
     31 H7          2.1950    4.9470   -2.4710 ha        1 A9N      0.174000
     32 H11C        1.9210    6.1260   -0.4740 hc        1 A9N      0.066700
     33 H12C        2.8230    7.6470   -0.0620 hc        1 A9N      0.066700
     34 H13C        2.7660    7.0770   -1.7810 hc        1 A9N      0.066700
     35 H41C        6.2520    2.5550    0.7520 hc        1 A9N      0.073367
     36 H42C        6.0310    2.2710   -1.0360 hc        1 A9N      0.073367
     37 H43C        7.4170    3.2890   -0.4300 hc        1 A9N      0.073367
     38 H22         3.6630   -0.4940   -2.0440 hn        1 A9N      0.441300
@<TRIPOS>BOND
     1    1    2 2   
     2    2    3 2   
     3    2    4 1   
     4    2    8 1   
     5    4    5 1   
     6    4   22 1   
     7    4   38 1   
     8    5    6 1   
     9    5    7 1   
    10    5   23 1   
    11    6    7 2   
    12    6   24 1   
    13    7   25 1   
    14    8    9 ar  
    15    8   13 ar  
    16    9   10 1   
    17    9   11 ar  
    18   10   27 1   
    19   10   28 1   
    20   10   29 1   
    21   11   12 ar  
    22   11   30 1   
    23   12   14 ar  
    24   12   31 1   
    25   13   14 ar  
    26   13   26 1   
    27   14   15 1   
    28   15   16 1   
    29   15   18 2   
    30   16   17 1   
    31   16   21 2   
    32   17   32 1   
    33   17   33 1   
    34   17   34 1   
    35   18   19 1   
    36   18   20 1   
    37   19   35 1   
    38   19   36 1   
    39   19   37 1   
    40   20   21 1   
@<TRIPOS>SUBSTRUCTURE
     1 A9N         1 TEMP              0 ****  ****    0 ROOT
