@<TRIPOS>MOLECULE
A9N
   37    39     1     0     0
SMALL
bcc


@<TRIPOS>ATOM
      1 O3          2.8210   -1.1530    1.7940 o         1 A9N     -0.654300
      2 S           2.2110   -0.0810    1.1100 sy        1 A9N      1.515200
      3 O2          1.7310    0.9830    1.9070 o         1 A9N     -0.654300
      4 N2          3.2460    0.4680   -0.0060 n3        1 A9N     -0.898100
      5 C13         3.2860    1.8110   -0.4630 cx        1 A9N      0.232900
      6 C15         4.4640    2.3710   -1.1990 cu        1 A9N     -0.201700
      7 C14         3.3730    2.1720   -1.9170 cu        1 A9N     -0.201700
      8 C11         0.9170   -0.6750    0.1840 ca        1 A9N     -0.369500
      9 C9          1.0210   -1.7500   -0.7140 ca        1 A9N      0.048700
     10 C10         2.3070   -2.4530   -0.9480 c3        1 A9N     -0.099800
     11 C8         -0.1120   -2.1780   -1.4180 ca        1 A9N     -0.160000
     12 C7         -1.3420   -1.5580   -1.2380 ca        1 A9N     -0.058000
     13 C12        -0.3320   -0.0650    0.3580 ca        1 A9N     -0.023000
     14 C6         -1.4700   -0.4910   -0.3350 ca        1 A9N     -0.028000
     15 C5         -2.7350    0.1650   -0.1260 cc        1 A9N     -0.281600
     16 C2         -4.0760   -0.4440   -0.1310 cc        1 A9N      0.336600
     17 C1         -4.3790   -1.8720   -0.3410 c3        1 A9N     -0.136400
     18 C3         -2.9750    1.5080    0.1350 cd        1 A9N      0.287000
     19 C4         -2.1540    2.7050    0.3030 c3        1 A9N     -0.146400
     20 O1         -4.3720    1.6770    0.2610 os        1 A9N     -0.115100
     21 N1         -4.9870    0.5220    0.1050 nd        1 A9N     -0.362300
     22 H2          3.9080   -0.1350   -0.4350 hn        1 A9N      0.446800
     23 H13         2.7120    2.4740    0.2310 h1        1 A9N      0.104700
     24 H15         5.4800    2.6890   -1.0970 ha        1 A9N      0.192000
     25 H14         2.8390    2.2060   -2.8440 ha        1 A9N      0.192000
     26 H12        -0.4240    0.7770    1.0720 ha        1 A9N      0.165000
     27 H101        2.8850   -2.5770    0.0030 hc        1 A9N      0.064700
     28 H102        2.1290   -3.4720   -1.3750 hc        1 A9N      0.064700
     29 H103        2.9280   -1.8800   -1.6820 hc        1 A9N      0.064700
     30 H8         -0.0260   -3.0180   -2.1250 ha        1 A9N      0.140000
     31 H7         -2.2200   -1.9000   -1.8090 ha        1 A9N      0.142000
     32 H11C       -5.3180   -2.1730    0.1880 hc        1 A9N      0.059700
     33 H12C       -4.5110   -2.0760   -1.4340 hc        1 A9N      0.059700
     34 H13C       -3.5340   -2.4970    0.0430 hc        1 A9N      0.059700
     35 H41C       -2.7380    3.6240    0.0460 hc        1 A9N      0.071033
     36 H42C       -1.8140    2.7870    1.3690 hc        1 A9N      0.071033
     37 H43C       -1.2510    2.6440   -0.3550 hc        1 A9N      0.071033
@<TRIPOS>BOND
     1    1    2 2   
     2    2    3 2   
     3    2    4 1   
     4    2    8 1   
     5    4    5 1   
     6    4   22 1   
     7    5    6 1   
     8    5    7 1   
     9    5   23 1   
    10    6    7 2   
    11    6   24 1   
    12    7   25 1   
    13    8    9 ar  
    14    8   13 ar  
    15    9   10 1   
    16    9   11 ar  
    17   10   27 1   
    18   10   28 1   
    19   10   29 1   
    20   11   12 ar  
    21   11   30 1   
    22   12   14 ar  
    23   12   31 1   
    24   13   14 ar  
    25   13   26 1   
    26   14   15 1   
    27   15   16 1   
    28   15   18 2   
    29   16   17 1   
    30   16   21 2   
    31   17   32 1   
    32   17   33 1   
    33   17   34 1   
    34   18   19 1   
    35   18   20 1   
    36   19   35 1   
    37   19   36 1   
    38   19   37 1   
    39   20   21 1   
@<TRIPOS>SUBSTRUCTURE
     1 A9N         1 TEMP              0 ****  ****    0 ROOT
