@<TRIPOS>MOLECULE
A9O
   27    28     1     0     0
SMALL
bcc


@<TRIPOS>ATOM
      1 C5          0.0090    0.4240   -0.1070 c3        1 A9O     -0.135400
      2 C4          1.4820    0.3450   -0.1190 cc        1 A9O      0.335600
      3 N           2.2860    0.4400    0.9590 nd        1 A9O     -0.366300
      4 O           3.5430    0.3260    0.5800 os        1 A9O     -0.117100
      5 C6          2.3190    0.1450   -1.3130 cc        1 A9O     -0.273600
      6 C3          3.6160    0.1400   -0.8200 cd        1 A9O      0.279000
      7 C2          4.9550   -0.0090   -1.4050 c3        1 A9O     -0.119700
      8 C1          5.8690    1.1410   -1.0530 c3        1 A9O     -0.093100
      9 C7          1.8670   -0.0110   -2.6730 ca        1 A9O     -0.006000
     10 C12         0.8450    0.8030   -3.1840 ca        1 A9O     -0.120000
     11 C11         0.4170    0.6520   -4.5010 ca        1 A9O     -0.129000
     12 C10         1.0000   -0.3120   -5.3230 ca        1 A9O     -0.126000
     13 C9          2.0150   -1.1270   -4.8230 ca        1 A9O     -0.129000
     14 C8          2.4480   -0.9800   -3.5070 ca        1 A9O     -0.120000
     15 H51C       -0.3130    1.4940   -0.1750 hc        1 A9O      0.059700
     16 H52C       -0.4160   -0.0140    0.8290 hc        1 A9O      0.059700
     17 H53C       -0.4040   -0.1300   -0.9870 hc        1 A9O      0.059700
     18 H21C        4.8470   -0.0880   -2.5210 hc        1 A9O      0.067200
     19 H22C        5.4030   -0.9730   -1.0340 hc        1 A9O      0.067200
     20 H11C        6.8860    0.9580   -1.4770 hc        1 A9O      0.045700
     21 H12C        5.9550    1.2470    0.0560 hc        1 A9O      0.045700
     22 H13C        5.4760    2.0990   -1.4700 hc        1 A9O      0.045700
     23 H12         0.3870    1.5680   -2.5380 ha        1 A9O      0.135500
     24 H8          3.2440   -1.6300   -3.1140 ha        1 A9O      0.135500
     25 H11        -0.3830    1.2980   -4.8920 ha        1 A9O      0.133500
     26 H10         0.6600   -0.4290   -6.3620 ha        1 A9O      0.133000
     27 H9          2.4750   -1.8900   -5.4680 ha        1 A9O      0.133500
@<TRIPOS>BOND
     1    1    2 1   
     2    1   15 1   
     3    1   16 1   
     4    1   17 1   
     5    2    3 2   
     6    2    5 1   
     7    3    4 1   
     8    4    6 1   
     9    5    6 2   
    10    5    9 1   
    11    6    7 1   
    12    7    8 1   
    13    7   18 1   
    14    7   19 1   
    15    8   20 1   
    16    8   21 1   
    17    8   22 1   
    18    9   10 ar  
    19    9   14 ar  
    20   10   11 ar  
    21   10   23 1   
    22   11   12 ar  
    23   11   25 1   
    24   12   13 ar  
    25   12   26 1   
    26   13   14 ar  
    27   13   27 1   
    28   14   24 1   
@<TRIPOS>SUBSTRUCTURE
     1 A9O         1 TEMP              0 ****  ****    0 ROOT
