@<TRIPOS>MOLECULE
A9O
   27    28     1     0     0
SMALL
bcc


@<TRIPOS>ATOM
      1 C5          0.0240    0.2870   -0.0790 c3        1 A9O     -0.135400
      2 C4          1.4980    0.2650   -0.1060 cc        1 A9O      0.335600
      3 N           2.3100    0.3680    0.9660 nd        1 A9O     -0.366300
      4 O           3.5660    0.3090    0.5710 os        1 A9O     -0.117100
      5 C6          2.3300    0.1230   -1.3130 cc        1 A9O     -0.273600
      6 C3          3.6310    0.1570   -0.8330 cd        1 A9O      0.279000
      7 C2          4.9690    0.0710   -1.4340 c3        1 A9O     -0.119700
      8 C1          5.8410    1.2500   -1.0700 c3        1 A9O     -0.093100
      9 C7          1.8700   -0.0220   -2.6710 ca        1 A9O     -0.006000
     10 C12         0.8130    0.7640   -3.1540 ca        1 A9O     -0.120000
     11 C11         0.3760    0.6260   -4.4690 ca        1 A9O     -0.129000
     12 C10         0.9860   -0.2980   -5.3180 ca        1 A9O     -0.126000
     13 C9          2.0360   -1.0850   -4.8460 ca        1 A9O     -0.129000
     14 C8          2.4780   -0.9500   -3.5320 ca        1 A9O     -0.120000
     15 H51C       -0.3390    1.3460   -0.1180 hc        1 A9O      0.059700
     16 H52C       -0.3740   -0.1880    0.8520 hc        1 A9O      0.059700
     17 H53C       -0.3760   -0.2630   -0.9670 hc        1 A9O      0.059700
     18 H21C        4.8520    0.0090   -2.5500 hc        1 A9O      0.067200
     19 H22C        5.4590   -0.8800   -1.0860 hc        1 A9O      0.067200
     20 H11C        6.8590    1.1160   -1.5070 hc        1 A9O      0.045700
     21 H12C        5.9340    1.3390    0.0400 hc        1 A9O      0.045700
     22 H13C        5.4060    2.2000   -1.4640 hc        1 A9O      0.045700
     23 H12         0.3330    1.4970   -2.4870 ha        1 A9O      0.135500
     24 H8          3.3010   -1.5780   -3.1600 ha        1 A9O      0.135500
     25 H11        -0.4510    1.2490   -4.8390 ha        1 A9O      0.133500
     26 H10         0.6390   -0.4060   -6.3560 ha        1 A9O      0.133000
     27 H9          2.5170   -1.8170   -5.5120 ha        1 A9O      0.133500
@<TRIPOS>BOND
     1    1    2 1   
     2    1   15 1   
     3    1   16 1   
     4    1   17 1   
     5    2    3 2   
     6    2    5 1   
     7    3    4 1   
     8    4    6 1   
     9    5    6 2   
    10    5    9 1   
    11    6    7 1   
    12    7    8 1   
    13    7   18 1   
    14    7   19 1   
    15    8   20 1   
    16    8   21 1   
    17    8   22 1   
    18    9   10 ar  
    19    9   14 ar  
    20   10   11 ar  
    21   10   23 1   
    22   11   12 ar  
    23   11   25 1   
    24   12   13 ar  
    25   12   26 1   
    26   13   14 ar  
    27   13   27 1   
    28   14   24 1   
@<TRIPOS>SUBSTRUCTURE
     1 A9O         1 TEMP              0 ****  ****    0 ROOT
