@<TRIPOS>MOLECULE
A9O
   27    24     1     0     0
SMALL
bcc


@<TRIPOS>ATOM
      1 C5         -2.4840    0.0240    1.9990 c3        1 A9O     -0.159000
      2 C4         -0.9710    0.0100    1.9830 c2        1 A9O     -0.087000
      3 N          -0.1670   -0.0180    3.0670 n2        1 A9O     -0.031000
      4 O           1.1500   -0.0360    2.6240 os        1 A9O     -0.060000
      5 C6         -0.1720    0.0110    0.8590 c1        1 A9O     -0.143000
      6 C3          1.1380   -0.0170    1.2710 c1        1 A9O     -0.010000
      7 C2          2.3530   -0.0270    0.3700 c2        1 A9O     -0.104000
      8 C1          3.6030    0.1360    1.2070 c3        1 A9O     -0.211000
      9 C7         -0.6550   -0.0200   -0.5740 c1        1 A9O     -0.006000
     10 C12        -0.9930    1.1610   -1.2170 c1        1 A9O     -0.118000
     11 C11        -1.3960    1.1370   -2.5430 c1        1 A9O     -0.127500
     12 C10        -1.4600   -0.0670   -3.2260 c1        1 A9O     -0.127500
     13 C9         -1.1220   -1.2470   -2.5840 c1        1 A9O     -0.129000
     14 C8         -0.7190   -1.2240   -1.2580 c2        1 A9O     -0.122000
     15 H51C       -2.8090    0.7770    1.4610 hc        1 A9O      0.099000
     16 H52C       -2.8000    0.1220    2.9210 hc        1 A9O      0.099000
     17 H53C       -2.8220   -0.8160    1.6240 hc        1 A9O      0.099000
     18 H21C        2.2900    0.7100   -0.2700 ha        1 A9O      0.106500
     19 H22C        2.3930   -0.8760   -0.1140 ha        1 A9O      0.106500
     20 H11C        3.5270    0.9470    1.7520 hc        1 A9O      0.085000
     21 H12C        4.3830    0.2110    0.6180 hc        1 A9O      0.085000
     22 H13C        3.7080   -0.6430    1.7920 hc        1 A9O      0.085000
     23 H12        -0.9480    2.0090   -0.7350 ha        1 A9O      0.137000
     24 H8         -0.4800   -2.0550   -0.8060 ha        1 A9O      0.134000
     25 H11        -1.6350    1.9690   -2.9950 ha        1 A9O      0.133500
     26 H10        -1.7440   -0.0830   -4.1600 ha        1 A9O      0.133500
     27 H9         -1.1670   -2.0950   -3.0650 ha        1 A9O      0.133000
@<TRIPOS>BOND
     1    1    2 1   
     2    1   15 1   
     3    1   16 1   
     4    1   17 1   
     5    2    3 1   
     6    2    5 1   
     7    3    4 1   
     8    4    6 1   
     9    5    6 1   
    10    7    8 1   
    11    7   18 1   
    12    7   19 1   
    13    8   20 1   
    14    8   21 1   
    15    8   22 1   
    16    9   10 1   
    17    9   14 1   
    18   10   23 1   
    19   11   12 1   
    20   11   25 1   
    21   12   26 1   
    22   13   14 1   
    23   13   27 1   
    24   14   24 1   
@<TRIPOS>SUBSTRUCTURE
     1 A9O         1 TEMP              0 ****  ****    0 ROOT
