@<TRIPOS>MOLECULE
A9O
   27    28     1     0     0
SMALL
bcc


@<TRIPOS>ATOM
      1 C5          0.8420    2.8130   -0.3930 c3        1 A9O     -0.135400
      2 C4          1.3160    1.4270   -0.2200 cc        1 A9O      0.335600
      3 N           2.6040    1.0270   -0.2200 nd        1 A9O     -0.366300
      4 O           2.6580   -0.2770   -0.0390 os        1 A9O     -0.117100
      5 C6          0.4590    0.2480   -0.0130 cc        1 A9O     -0.273600
      6 C3          1.3530   -0.8070    0.0950 cd        1 A9O      0.279000
      7 C2          1.2400   -2.2560    0.3070 c3        1 A9O     -0.119700
      8 C1          1.9380   -3.0520   -0.7690 c3        1 A9O     -0.093100
      9 C7         -0.9810    0.2240    0.0600 ca        1 A9O     -0.006000
     10 C12        -1.7530    0.9760   -0.8390 ca        1 A9O     -0.120000
     11 C11        -3.1440    0.9450   -0.7690 ca        1 A9O     -0.129000
     12 C10        -3.7810    0.1670    0.1980 ca        1 A9O     -0.126000
     13 C9         -3.0210   -0.5810    1.0970 ca        1 A9O     -0.129000
     14 C8         -1.6300   -0.5550    1.0310 ca        1 A9O     -0.120000
     15 H51C        0.7350    3.0430   -1.4830 hc        1 A9O      0.059700
     16 H52C       -0.1570    2.9320    0.0980 hc        1 A9O      0.059700
     17 H53C        1.5560    3.5480    0.0550 hc        1 A9O      0.059700
     18 H21C        1.6840   -2.5080    1.3100 hc        1 A9O      0.067200
     19 H22C        0.1480   -2.5240    0.3390 hc        1 A9O      0.067200
     20 H11C        3.0170   -2.7660   -0.8290 hc        1 A9O      0.045700
     21 H12C        1.8670   -4.1420   -0.5390 hc        1 A9O      0.045700
     22 H13C        1.4690   -2.8670   -1.7650 hc        1 A9O      0.045700
     23 H12        -1.2530    1.5870   -1.6060 ha        1 A9O      0.135500
     24 H8         -1.0340   -1.1400    1.7470 ha        1 A9O      0.135500
     25 H11        -3.7400    1.5350   -1.4800 ha        1 A9O      0.133500
     26 H10        -4.8790    0.1440    0.2520 ha        1 A9O      0.133000
     27 H9         -3.5200   -1.1930    1.8630 ha        1 A9O      0.133500
@<TRIPOS>BOND
     1    1    2 1   
     2    1   15 1   
     3    1   16 1   
     4    1   17 1   
     5    2    3 2   
     6    2    5 1   
     7    3    4 1   
     8    4    6 1   
     9    5    6 2   
    10    5    9 1   
    11    6    7 1   
    12    7    8 1   
    13    7   18 1   
    14    7   19 1   
    15    8   20 1   
    16    8   21 1   
    17    8   22 1   
    18    9   10 ar  
    19    9   14 ar  
    20   10   11 ar  
    21   10   23 1   
    22   11   12 ar  
    23   11   25 1   
    24   12   13 ar  
    25   12   26 1   
    26   13   14 ar  
    27   13   27 1   
    28   14   24 1   
@<TRIPOS>SUBSTRUCTURE
     1 A9O         1 TEMP              0 ****  ****    0 ROOT
