@<TRIPOS>MOLECULE
A9P
   24    25     1     0     0
SMALL
bcc


@<TRIPOS>ATOM
      1 C5          1.2270    2.5300   -0.1600 c3        1 A9P     -0.135400
      2 C4          1.6040    1.1090   -0.0400 cc        1 A9P      0.336600
      3 N           2.8640    0.6320    0.0190 nd        1 A9P     -0.365300
      4 O           2.8330   -0.6810    0.1150 os        1 A9P     -0.119100
      5 C6          0.6690   -0.0270    0.0250 cc        1 A9P     -0.272600
      6 C3          1.4950   -1.1390    0.1170 cd        1 A9P      0.277000
      7 C2          1.2970   -2.5830    0.2140 c3        1 A9P     -0.141400
      8 C7         -0.7710    0.0160   -0.0080 ca        1 A9P     -0.005000
      9 C12        -1.4890   -0.9780   -0.6930 ca        1 A9P     -0.121000
     10 C11        -2.8810   -0.9450   -0.7250 ca        1 A9P     -0.128500
     11 C10        -3.5750    0.0740   -0.0730 ca        1 A9P     -0.126000
     12 C9         -2.8690    1.0620    0.6140 ca        1 A9P     -0.128500
     13 C8         -1.4770    1.0360    0.6480 ca        1 A9P     -0.121000
     14 H51C        2.0010    3.1130   -0.7180 hc        1 A9P      0.059700
     15 H52C        0.2510    2.6150   -0.6990 hc        1 A9P      0.059700
     16 H53C        1.1160    2.9790    0.8600 hc        1 A9P      0.059700
     17 H21C        1.3390   -3.0430   -0.8070 hc        1 A9P      0.067033
     18 H22C        2.0950   -3.0500    0.8440 hc        1 A9P      0.067033
     19 H23C        0.2960   -2.7990    0.6640 hc        1 A9P      0.067033
     20 H12        -0.9430   -1.7820   -1.2090 ha        1 A9P      0.135000
     21 H8         -0.9250    1.8130    1.1990 ha        1 A9P      0.135000
     22 H11        -3.4340   -1.7270   -1.2670 ha        1 A9P      0.133500
     23 H10        -4.6740    0.0990   -0.1000 ha        1 A9P      0.133000
     24 H9         -3.4130    1.8660    1.1330 ha        1 A9P      0.133500
@<TRIPOS>BOND
     1    1    2 1   
     2    1   14 1   
     3    1   15 1   
     4    1   16 1   
     5    2    3 2   
     6    2    5 1   
     7    3    4 1   
     8    4    6 1   
     9    5    6 2   
    10    5    8 1   
    11    6    7 1   
    12    7   17 1   
    13    7   18 1   
    14    7   19 1   
    15    8    9 ar  
    16    8   13 ar  
    17    9   10 ar  
    18    9   20 1   
    19   10   11 ar  
    20   10   22 1   
    21   11   12 ar  
    22   11   23 1   
    23   12   13 ar  
    24   12   24 1   
    25   13   21 1   
@<TRIPOS>SUBSTRUCTURE
     1 A9P         1 TEMP              0 ****  ****    0 ROOT
