@<TRIPOS>MOLECULE
A9P
   24    25     1     0     0
SMALL
bcc


@<TRIPOS>ATOM
      1 C5          0.0530   -0.3440   -0.0150 c3        1 A9P     -0.135400
      2 C4          1.5160   -0.1570   -0.0130 cc        1 A9P      0.336600
      3 N           2.2970   -0.0840    1.0840 nd        1 A9P     -0.365300
      4 O           3.5510    0.0940    0.7190 os        1 A9P     -0.119100
      5 C6          2.3660   -0.0080   -1.2060 cc        1 A9P     -0.272600
      6 C3          3.6450    0.1530   -0.6910 cd        1 A9P      0.277000
      7 C2          4.9800    0.3530   -1.2500 c3        1 A9P     -0.141400
      8 C7          1.9540   -0.0210   -2.5870 ca        1 A9P     -0.005000
      9 C12         2.5690    0.8370   -3.5130 ca        1 A9P     -0.121000
     10 C11         2.1790    0.8270   -4.8500 ca        1 A9P     -0.128500
     11 C10         1.1760   -0.0400   -5.2820 ca        1 A9P     -0.126000
     12 C9          0.5630   -0.8990   -4.3700 ca        1 A9P     -0.128500
     13 C8          0.9480   -0.8930   -3.0310 ca        1 A9P     -0.121000
     14 H51C       -0.4180    0.1010    0.8970 hc        1 A9P      0.059700
     15 H52C       -0.1890   -1.4380   -0.0380 hc        1 A9P      0.059700
     16 H53C       -0.3860    0.1400   -0.9220 hc        1 A9P      0.059700
     17 H21C        5.2150    1.4480   -1.2940 hc        1 A9P      0.067033
     18 H22C        5.0230   -0.0660   -2.2870 hc        1 A9P      0.067033
     19 H23C        5.7530   -0.1480   -0.6160 hc        1 A9P      0.067033
     20 H12         3.3600    1.5230   -3.1730 ha        1 A9P      0.135000
     21 H8          0.4680   -1.5790   -2.3170 ha        1 A9P      0.135000
     22 H11         2.6650    1.5060   -5.5660 ha        1 A9P      0.133500
     23 H10         0.8690   -0.0470   -6.3380 ha        1 A9P      0.133000
     24 H9         -0.2260   -1.5880   -4.7070 ha        1 A9P      0.133500
@<TRIPOS>BOND
     1    1    2 1   
     2    1   14 1   
     3    1   15 1   
     4    1   16 1   
     5    2    3 2   
     6    2    5 1   
     7    3    4 1   
     8    4    6 1   
     9    5    6 2   
    10    5    8 1   
    11    6    7 1   
    12    7   17 1   
    13    7   18 1   
    14    7   19 1   
    15    8    9 ar  
    16    8   13 ar  
    17    9   10 ar  
    18    9   20 1   
    19   10   11 ar  
    20   10   22 1   
    21   11   12 ar  
    22   11   23 1   
    23   12   13 ar  
    24   12   24 1   
    25   13   21 1   
@<TRIPOS>SUBSTRUCTURE
     1 A9P         1 TEMP              0 ****  ****    0 ROOT
