@<TRIPOS>MOLECULE
A9P
   24    25     1     0     0
SMALL
bcc


@<TRIPOS>ATOM
      1 C5          0.0340   -0.2430   -0.0200 c3        1 A9P     -0.135400
      2 C4          1.5040   -0.1190   -0.0140 cc        1 A9P      0.336600
      3 N           2.2840   -0.0710    1.0850 nd        1 A9P     -0.365300
      4 O           3.5450    0.0510    0.7230 os        1 A9P     -0.119100
      5 C6          2.3630   -0.0140   -1.2050 cc        1 A9P     -0.272600
      6 C3          3.6460    0.0960   -0.6870 cd        1 A9P      0.277000
      7 C2          4.9900    0.2360   -1.2430 c3        1 A9P     -0.141400
      8 C7          1.9560   -0.0190   -2.5870 ca        1 A9P     -0.005000
      9 C12         2.6100    0.8050   -3.5170 ca        1 A9P     -0.121000
     10 C11         2.2240    0.8020   -4.8550 ca        1 A9P     -0.128500
     11 C10         1.1860   -0.0240   -5.2850 ca        1 A9P     -0.126000
     12 C9          0.5340   -0.8490   -4.3690 ca        1 A9P     -0.128500
     13 C8          0.9140   -0.8500   -3.0290 ca        1 A9P     -0.121000
     14 H51C       -0.4200    0.2270    0.8870 hc        1 A9P      0.059700
     15 H52C       -0.2540   -1.3260   -0.0370 hc        1 A9P      0.059700
     16 H53C       -0.3820    0.2530   -0.9320 hc        1 A9P      0.059700
     17 H21C        5.2700    1.3200   -1.2950 hc        1 A9P      0.067033
     18 H22C        5.0190   -0.1930   -2.2760 hc        1 A9P      0.067033
     19 H23C        5.7390   -0.2910   -0.6010 hc        1 A9P      0.067033
     20 H12         3.4280    1.4590   -3.1790 ha        1 A9P      0.135000
     21 H8          0.4030   -1.5100   -2.3120 ha        1 A9P      0.135000
     22 H11         2.7410    1.4550   -5.5740 ha        1 A9P      0.133500
     23 H10         0.8820   -0.0240   -6.3410 ha        1 A9P      0.133000
     24 H9         -0.2830   -1.5060   -4.7050 ha        1 A9P      0.133500
@<TRIPOS>BOND
     1    1    2 1   
     2    1   14 1   
     3    1   15 1   
     4    1   16 1   
     5    2    3 2   
     6    2    5 1   
     7    3    4 1   
     8    4    6 1   
     9    5    6 2   
    10    5    8 1   
    11    6    7 1   
    12    7   17 1   
    13    7   18 1   
    14    7   19 1   
    15    8    9 ar  
    16    8   13 ar  
    17    9   10 ar  
    18    9   20 1   
    19   10   11 ar  
    20   10   22 1   
    21   11   12 ar  
    22   11   23 1   
    23   12   13 ar  
    24   12   24 1   
    25   13   21 1   
@<TRIPOS>SUBSTRUCTURE
     1 A9P         1 TEMP              0 ****  ****    0 ROOT
