@<TRIPOS>MOLECULE
A9P
   24    21     1     0     0
SMALL
bcc


@<TRIPOS>ATOM
      1 C5         -1.9860   -0.0870    2.1850 c3        1 A9P     -0.159000
      2 C4         -0.4730   -0.0590    2.1700 c2        1 A9P     -0.086000
      3 N           0.3300   -0.0270    3.2540 n2        1 A9P     -0.030000
      4 O           1.6480    0.0130    2.8120 os        1 A9P     -0.062000
      5 C6          0.3260   -0.0400    1.0460 c1        1 A9P     -0.142000
      6 C3          1.6350    0.0050    1.4580 c1        1 A9P     -0.012000
      7 C2          2.8490    0.0750    0.5580 c2        1 A9P     -0.165000
      8 C7         -0.1560   -0.0150   -0.3870 c1        1 A9P     -0.005000
      9 C12        -0.3430   -1.2040   -1.0760 c2        1 A9P     -0.123000
     10 C11        -0.7370   -1.1800   -2.4040 c1        1 A9P     -0.128000
     11 C10        -0.9450    0.0310   -3.0440 c1        1 A9P     -0.127500
     12 C9         -0.7580    1.2190   -2.3560 c1        1 A9P     -0.127500
     13 C8         -0.3630    1.1960   -1.0270 c1        1 A9P     -0.119000
     14 H51C       -2.3020   -0.9080    1.7520 hc        1 A9P      0.099000
     15 H52C       -2.3040   -0.0630    3.1110 hc        1 A9P      0.099000
     16 H53C       -2.3320    0.6920    1.7000 hc        1 A9P      0.099000
     17 H21C        3.6620    0.0860    1.1050 ha        1 A9P      0.106333
     18 H22C        2.8080    0.8930    0.0180 ha        1 A9P      0.106333
     19 H23C        2.8630   -0.7060   -0.0340 ha        1 A9P      0.106333
     20 H12        -0.1970   -2.0570   -0.6250 ha        1 A9P      0.133000
     21 H8         -0.2310    2.0330   -0.5430 ha        1 A9P      0.137000
     22 H11        -0.8690   -2.0180   -2.8890 ha        1 A9P      0.133000
     23 H10        -1.2230    0.0480   -3.9790 ha        1 A9P      0.133500
     24 H9         -0.9040    2.0730   -2.8060 ha        1 A9P      0.133500
@<TRIPOS>BOND
     1    1    2 1   
     2    1   14 1   
     3    1   15 1   
     4    1   16 1   
     5    2    3 1   
     6    2    5 1   
     7    3    4 1   
     8    4    6 1   
     9    5    6 1   
    10    7   17 1   
    11    7   18 1   
    12    7   19 1   
    13    8    9 1   
    14    8   13 1   
    15    9   10 1   
    16    9   20 1   
    17   10   22 1   
    18   11   12 1   
    19   11   23 1   
    20   12   24 1   
    21   13   21 1   
@<TRIPOS>SUBSTRUCTURE
     1 A9P         1 TEMP              0 ****  ****    0 ROOT
