@<TRIPOS>MOLECULE
A9S
   38    33     1     0     0
SMALL
bcc


@<TRIPOS>ATOM
      1 O3         -1.0140    1.2540    3.7370 o         1 A9S     -0.571000
      2 C10         0.2450    1.2540    3.7370 c1        1 A9S      0.344000
      3 O1          0.8750    1.2540    4.8270 os        1 A9S     -0.571000
      4 C11         1.0020    1.2580    2.4260 c2        1 A9S     -0.105000
      5 C12         1.5080    0.1100    1.9360 c1        1 A9S     -0.153000
      6 C15         1.3190   -1.1850    2.6970 c2        1 A9S     -0.183000
      7 C8          2.2640    0.1140    0.6260 c2        1 A9S     -0.032000
      8 C9          1.5960   -0.0100   -0.5380 c1        1 A9S     -0.237000
      9 C5          0.0160   -0.1610   -0.5340 c2        1 A9S      0.160000
     10 O4         -0.2720    0.0700    0.8240 oh        1 A9S     -0.272000
     11 C6         -0.6070    0.8810   -1.3850 c3        1 A9S     -0.067000
     12 C14        -0.2120    2.2300   -0.8250 c3        1 A9S     -0.206000
     13 C13        -0.0110    0.7610   -2.7710 c3        1 A9S     -0.206000
     14 C1         -2.0690    0.8670   -1.5250 c3        1 A9S     -0.212000
     15 C4         -0.3890   -1.5850   -0.9390 c1        1 A9S     -0.030000
     16 C7          0.2810   -2.7760   -0.2900 c2        1 A9S     -0.183000
     17 C3         -1.7360   -1.7680   -1.6960 c1        1 A9S     -0.269000
     18 C2         -2.5920   -0.4860   -1.9920 c1        1 A9S      0.267000
     19 O2         -3.6520   -0.5710   -2.5800 o         1 A9S     -0.324000
     20 H2          1.1230    2.0940    1.9360 ha        1 A9S      0.105000
     21 H3          1.7140   -1.9200    2.1900 ha        1 A9S      0.085167
     22 H4          1.7570   -1.1180    3.5670 ha        1 A9S      0.085167
     23 H5          0.3660   -1.3520    2.8240 ha        1 A9S      0.085167
     24 H6          3.2360    0.2070    0.6240 ha        1 A9S      0.094000
     25 H7          2.0840   -0.0070   -1.3830 ha        1 A9S      0.101000
     26 H8         -1.0960   -0.2070    1.0030 ho        1 A9S      0.194000
     27 H9         -0.6430    2.3620    0.0410 hc        1 A9S      0.081667
     28 H10        -0.4950    2.9330   -1.4390 hc        1 A9S      0.081667
     29 H11         0.7570    2.2650   -0.7140 hc        1 A9S      0.081667
     30 H12        -0.6080    1.1800   -3.4190 hc        1 A9S      0.081667
     31 H13         0.1020   -0.1830   -2.9950 hc        1 A9S      0.081667
     32 H14         0.8570    1.2060   -2.7920 hc        1 A9S      0.081667
     33 H15        -2.5080    1.2700   -0.7520 hc        1 A9S      0.109000
     34 H16        -2.3280    1.5050   -2.2170 hc        1 A9S      0.109000
     35 H17        -0.1200   -2.9380    0.5850 ha        1 A9S      0.085167
     36 H18         1.2350   -2.5940   -0.1820 ha        1 A9S      0.085167
     37 H19         0.1620   -3.5640   -0.8530 ha        1 A9S      0.085167
     38 H20        -2.1440   -2.6530   -1.7600 ha        1 A9S      0.139000
@<TRIPOS>BOND
     1    1    2 1   
     2    2    4 1   
     3    4    5 1   
     4    4   20 1   
     5    5    7 1   
     6    6   21 1   
     7    6   22 1   
     8    6   23 1   
     9    7    8 1   
    10    7   24 1   
    11    8   25 1   
    12    9   10 1   
    13    9   11 1   
    14    9   15 1   
    15   10   26 1   
    16   11   12 1   
    17   11   13 1   
    18   11   14 1   
    19   12   27 1   
    20   12   28 1   
    21   12   29 1   
    22   13   30 1   
    23   13   31 1   
    24   13   32 1   
    25   14   18 1   
    26   14   33 1   
    27   14   34 1   
    28   15   17 1   
    29   16   35 1   
    30   16   36 1   
    31   16   37 1   
    32   17   38 1   
    33   18   19 1   
@<TRIPOS>SUBSTRUCTURE
     1 A9S         1 TEMP              0 ****  ****    0 ROOT
