@<TRIPOS>MOLECULE
A9S
   38    38     1     0     0
SMALL
bcc


@<TRIPOS>ATOM
      1 O3          1.2460    0.2490    1.1300 o         1 A9S     -0.829300
      2 C10         1.0250   -0.5140    0.1480 c         1 A9S      0.896800
      3 O1          1.3160   -1.7440    0.1190 o         1 A9S     -0.829300
      4 C11         0.3370    0.0970   -1.0560 ce        1 A9S     -0.152200
      5 C12         0.8010    0.0540   -2.3140 cf        1 A9S     -0.183200
      6 C15         2.0890   -0.5960   -2.6730 c3        1 A9S     -0.048900
      7 C8          0.1540    0.7340   -3.4310 cf        1 A9S     -0.063000
      8 C9         -1.0120    0.5010   -4.0420 c2        1 A9S     -0.247200
      9 C5         -2.0680   -0.5290   -3.7710 c3        1 A9S      0.244200
     10 O4         -2.0790   -1.0020   -2.4260 oh        1 A9S     -0.599800
     11 C6         -3.4940    0.0790   -3.9810 c3        1 A9S     -0.029000
     12 C14        -3.6460    0.7200   -5.3530 c3        1 A9S     -0.088100
     13 C13        -3.7540    1.1260   -2.9080 c3        1 A9S     -0.088100
     14 C1         -4.5210   -1.0450   -3.8350 c3        1 A9S     -0.175400
     15 C4         -1.8680   -1.7330   -4.6860 c2        1 A9S     -0.044400
     16 C7         -0.4670   -2.1080   -4.9810 c3        1 A9S     -0.080900
     17 C3         -2.9020   -2.4510   -5.1560 ce        1 A9S     -0.269200
     18 C2         -4.3020   -2.1380   -4.8410 c         1 A9S      0.579300
     19 O2         -5.2460   -2.7560   -5.3540 o         1 A9S     -0.570100
     20 H2         -0.6070    0.6140   -0.8210 ha        1 A9S      0.113000
     21 H3          1.9880   -1.1830   -3.6200 hc        1 A9S      0.038033
     22 H4          2.8810    0.1780   -2.8290 hc        1 A9S      0.038033
     23 H5          2.4120   -1.2860   -1.8500 hc        1 A9S      0.038033
     24 H6          0.7820    1.5530   -3.8400 ha        1 A9S      0.104000
     25 H7         -1.2610    1.1380   -4.9100 ha        1 A9S      0.110000
     26 H8         -1.1770   -1.2790   -2.2020 ho        1 A9S      0.441000
     27 H9         -4.7290    0.8580   -5.5880 hc        1 A9S      0.038533
     28 H10        -3.1910    0.0740   -6.1410 hc        1 A9S      0.038533
     29 H11        -3.1590    1.7250   -5.3820 hc        1 A9S      0.038533
     30 H12        -3.6980    0.6600   -1.8940 hc        1 A9S      0.038533
     31 H13        -4.7650    1.5780   -3.0490 hc        1 A9S      0.038533
     32 H14        -2.9830    1.9310   -2.9690 hc        1 A9S      0.038533
     33 H15        -5.5580   -0.6330   -3.9340 hc        1 A9S      0.078200
     34 H16        -4.4200   -1.4980   -2.8100 hc        1 A9S      0.078200
     35 H17        -0.4050   -3.0770   -5.5320 hc        1 A9S      0.056700
     36 H18         0.1060   -2.1990   -4.0200 hc        1 A9S      0.056700
     37 H19         0.0220   -1.3110   -5.5960 hc        1 A9S      0.056700
     38 H20        -2.7470   -3.3300   -5.8030 ha        1 A9S      0.137000
@<TRIPOS>BOND
     1    1    2 1   
     2    2    3 1   
     3    2    4 1   
     4    4    5 2   
     5    4   20 1   
     6    5    6 1   
     7    5    7 1   
     8    6   21 1   
     9    6   22 1   
    10    6   23 1   
    11    7    8 2   
    12    7   24 1   
    13    8    9 1   
    14    8   25 1   
    15    9   10 1   
    16    9   11 1   
    17    9   15 1   
    18   10   26 1   
    19   11   12 1   
    20   11   13 1   
    21   11   14 1   
    22   12   27 1   
    23   12   28 1   
    24   12   29 1   
    25   13   30 1   
    26   13   31 1   
    27   13   32 1   
    28   14   18 1   
    29   14   33 1   
    30   14   34 1   
    31   15   16 1   
    32   15   17 2   
    33   16   35 1   
    34   16   36 1   
    35   16   37 1   
    36   17   18 1   
    37   17   38 1   
    38   18   19 2   
@<TRIPOS>SUBSTRUCTURE
     1 A9S         1 TEMP              0 ****  ****    0 ROOT
