@<TRIPOS>MOLECULE
A9S
   38    38     1     0     0
SMALL
bcc


@<TRIPOS>ATOM
      1 O3          2.7140    1.5880    0.5440 o         1 A9S     -0.826800
      2 C10         2.6180    0.5620   -0.1890 c         1 A9S      0.893800
      3 O1          3.5950   -0.1610   -0.5320 o         1 A9S     -0.826800
      4 C11         1.2210    0.1880   -0.6380 ce        1 A9S     -0.128200
      5 C12         0.8370   -0.1240   -1.8910 cf        1 A9S     -0.164200
      6 C15         1.7910   -0.1880   -3.0250 c3        1 A9S     -0.046900
      7 C8         -0.5590   -0.4190   -2.1680 cf        1 A9S     -0.051000
      8 C9         -1.0560   -0.7290   -3.3750 c2        1 A9S     -0.291200
      9 C5         -2.4990   -1.0490   -3.6350 c3        1 A9S      0.234200
     10 O4         -3.1940   -1.4200   -2.4370 oh        1 A9S     -0.599800
     11 C6         -3.2500    0.1980   -4.1890 c3        1 A9S     -0.025000
     12 C14        -2.4750    0.7990   -5.3520 c3        1 A9S     -0.089100
     13 C13        -3.3850    1.2420   -3.0890 c3        1 A9S     -0.089100
     14 C1         -4.6480   -0.2120   -4.6480 c3        1 A9S     -0.175400
     15 C4         -2.5980   -2.2230   -4.5990 c2        1 A9S     -0.049400
     16 C7         -1.5700   -3.2800   -4.4460 c3        1 A9S     -0.070900
     17 C3         -3.5740   -2.3200   -5.5170 ce        1 A9S     -0.263200
     18 C2         -4.6250   -1.3070   -5.6740 c         1 A9S      0.577300
     19 O2         -5.4670   -1.3710   -6.5820 o         1 A9S     -0.564100
     20 H2          0.4780    0.2250    0.1780 ha        1 A9S      0.098000
     21 H3          1.5460    0.5960   -3.7850 hc        1 A9S      0.037367
     22 H4          2.8390   -0.0310   -2.6610 hc        1 A9S      0.037367
     23 H5          1.7360   -1.1870   -3.5250 hc        1 A9S      0.037367
     24 H6         -1.2360   -0.3760   -1.2930 ha        1 A9S      0.112000
     25 H7         -0.4190   -0.7490   -4.2720 ha        1 A9S      0.133000
     26 H8         -2.6240   -2.0450   -1.9700 ho        1 A9S      0.407000
     27 H9         -3.0620    1.6340   -5.8070 hc        1 A9S      0.042200
     28 H10        -2.2850    0.0270   -6.1360 hc        1 A9S      0.042200
     29 H11        -1.4960    1.2040   -4.9990 hc        1 A9S      0.042200
     30 H12        -2.3760    1.5000   -2.6860 hc        1 A9S      0.042200
     31 H13        -3.8640    2.1650   -3.4940 hc        1 A9S      0.042200
     32 H14        -4.0090    0.8440   -2.2530 hc        1 A9S      0.042200
     33 H15        -5.1890    0.6810   -5.0550 hc        1 A9S      0.073700
     34 H16        -5.2230   -0.5940   -3.7600 hc        1 A9S      0.073700
     35 H17        -1.8720   -4.2240   -4.9610 hc        1 A9S      0.052367
     36 H18        -0.5980   -2.9330   -4.8810 hc        1 A9S      0.052367
     37 H19        -1.4010   -3.4970   -3.3610 hc        1 A9S      0.052367
     38 H20        -3.6350   -3.1780   -6.2060 ha        1 A9S      0.138000
@<TRIPOS>BOND
     1    1    2 1   
     2    2    3 1   
     3    2    4 1   
     4    4    5 2   
     5    4   20 1   
     6    5    6 1   
     7    5    7 1   
     8    6   21 1   
     9    6   22 1   
    10    6   23 1   
    11    7    8 2   
    12    7   24 1   
    13    8    9 1   
    14    8   25 1   
    15    9   10 1   
    16    9   11 1   
    17    9   15 1   
    18   10   26 1   
    19   11   12 1   
    20   11   13 1   
    21   11   14 1   
    22   12   27 1   
    23   12   28 1   
    24   12   29 1   
    25   13   30 1   
    26   13   31 1   
    27   13   32 1   
    28   14   18 1   
    29   14   33 1   
    30   14   34 1   
    31   15   16 1   
    32   15   17 2   
    33   16   35 1   
    34   16   36 1   
    35   16   37 1   
    36   17   18 1   
    37   17   38 1   
    38   18   19 2   
@<TRIPOS>SUBSTRUCTURE
     1 A9S         1 TEMP              0 ****  ****    0 ROOT
