@<TRIPOS>MOLECULE
A9S
   38    38     1     0     0
SMALL
bcc


@<TRIPOS>ATOM
      1 O3          2.3760   -0.1720    1.8330 o         1 A9S     -0.842300
      2 C10         3.4550   -0.7110    1.4320 c         1 A9S      0.896800
      3 O1          4.4350   -0.9450    2.1930 o         1 A9S     -0.842300
      4 C11         3.5960   -1.1100   -0.0200 ce        1 A9S     -0.183200
      5 C12         2.6960   -0.8170   -0.9740 cf        1 A9S     -0.144200
      6 C15         2.8390   -1.2220   -2.3910 c3        1 A9S     -0.038900
      7 C8          1.5040   -0.0580   -0.6050 cf        1 A9S     -0.026000
      8 C9          0.2630   -0.5550   -0.5770 c2        1 A9S     -0.260200
      9 C5         -0.8700    0.1490    0.1170 c3        1 A9S      0.239200
     10 O4         -0.4090    1.2540    0.8990 oh        1 A9S     -0.620800
     11 C6         -1.8880    0.7290   -0.9040 c3        1 A9S     -0.029000
     12 C14        -2.2510   -0.3220   -1.9420 c3        1 A9S     -0.084600
     13 C13        -1.2720    1.9310   -1.6070 c3        1 A9S     -0.084600
     14 C1         -3.1460    1.1830   -0.1660 c3        1 A9S     -0.174400
     15 C4         -1.5320   -0.8360    1.0750 c2        1 A9S     -0.018400
     16 C7         -0.6080   -1.7410    1.7960 c3        1 A9S     -0.100900
     17 C3         -2.8590   -0.8520    1.2860 ce        1 A9S     -0.294200
     18 C2         -3.7810    0.0710    0.6210 c         1 A9S      0.581300
     19 O2         -5.0140   -0.0280    0.7240 o         1 A9S     -0.581100
     20 H2          4.5110   -1.6750   -0.2540 ha        1 A9S      0.108000
     21 H3          1.9400   -1.8000   -2.7210 hc        1 A9S      0.023367
     22 H4          2.9330   -0.3210   -3.0460 hc        1 A9S      0.023367
     23 H5          3.7450   -1.8600   -2.5410 hc        1 A9S      0.023367
     24 H6          1.7210    0.9520   -0.2030 ha        1 A9S      0.147000
     25 H7          0.0200   -1.5520   -0.9710 ha        1 A9S      0.117000
     26 H8          0.3570    0.9380    1.4130 ho        1 A9S      0.458000
     27 H9         -2.6070   -1.2540   -1.4430 hc        1 A9S      0.036533
     28 H10        -3.0620    0.0630   -2.6060 hc        1 A9S      0.036533
     29 H11        -1.3630   -0.5690   -2.5720 hc        1 A9S      0.036533
     30 H12        -0.3040    1.6350   -2.0790 hc        1 A9S      0.036533
     31 H13        -1.9640    2.3140   -2.3940 hc        1 A9S      0.036533
     32 H14        -1.0680    2.7450   -0.8690 hc        1 A9S      0.036533
     33 H15        -2.8630    1.9930    0.5620 hc        1 A9S      0.070200
     34 H16        -3.8830    1.6080   -0.8940 hc        1 A9S      0.070200
     35 H17         0.3690   -1.2210    2.0140 hc        1 A9S      0.070367
     36 H18        -1.0550   -2.1000    2.7540 hc        1 A9S      0.070367
     37 H19        -0.3780   -2.6300    1.1550 hc        1 A9S      0.070367
     38 H20        -3.3200   -1.5650    1.9880 ha        1 A9S      0.136000
@<TRIPOS>BOND
     1    1    2 1   
     2    2    3 1   
     3    2    4 1   
     4    4    5 2   
     5    4   20 1   
     6    5    6 1   
     7    5    7 1   
     8    6   21 1   
     9    6   22 1   
    10    6   23 1   
    11    7    8 2   
    12    7   24 1   
    13    8    9 1   
    14    8   25 1   
    15    9   10 1   
    16    9   11 1   
    17    9   15 1   
    18   10   26 1   
    19   11   12 1   
    20   11   13 1   
    21   11   14 1   
    22   12   27 1   
    23   12   28 1   
    24   12   29 1   
    25   13   30 1   
    26   13   31 1   
    27   13   32 1   
    28   14   18 1   
    29   14   33 1   
    30   14   34 1   
    31   15   16 1   
    32   15   17 2   
    33   16   35 1   
    34   16   36 1   
    35   16   37 1   
    36   17   18 1   
    37   17   38 1   
    38   18   19 2   
@<TRIPOS>SUBSTRUCTURE
     1 A9S         1 TEMP              0 ****  ****    0 ROOT
