@<TRIPOS>MOLECULE
A9T
   62    65     1     0     0
SMALL
bcc


@<TRIPOS>ATOM
      1 C1         -1.4680   -1.9280    1.0060 c2        1 A9T      0.321000
      2 N1         -1.0140   -3.2960    0.5000 nz        1 A9T     -0.149000
      3 O1         -7.8060    3.1230    9.1220 os        1 A9T     -0.025000
      4 C2         -2.3580   -1.9080    2.1490 ca        1 A9T     -0.226000
      5 C3         -2.7570   -0.6280    2.5820 ca        1 A9T      0.047000
      6 N3         -4.1690    0.5830    4.3190 n2        1 A9T     -0.105000
      7 C4         -3.6120   -0.5380    3.6760 ca        1 A9T     -0.092000
      8 N4         -4.8960   -1.3410    5.3690 na        1 A9T     -0.211000
      9 C5         -4.9270    0.0850    5.3220 c2        1 A9T      0.104000
     10 C6         -4.0710   -1.7560    4.3430 ca        1 A9T      0.036000
     11 C7         -3.6590   -3.0230    3.8930 ca        1 A9T     -0.113000
     12 C8         -2.8100   -3.0800    2.8060 ca        1 A9T     -0.093000
     13 C9         -5.7060    0.8640    6.2850 ca        1 A9T     -0.074000
     14 C10        -5.2010    2.0890    6.7450 ca        1 A9T     -0.072000
     15 C11        -5.9230    2.8360    7.6730 ca        1 A9T     -0.137000
     16 C12        -7.1540    2.3480    8.1250 ca        1 A9T     -0.036000
     17 C13        -7.6760    1.1370    7.6630 ca        1 A9T     -0.137000
     18 C14        -6.9470    0.3950    6.7380 ca        1 A9T     -0.072000
     19 C20       -12.0240   -1.3960   11.2570 c3        1 A9T     -0.077500
     20 C19       -11.9750   -0.5790   12.5470 c3        1 A9T     -0.192500
     21 C18       -11.4310    0.8090   12.2830 c3        1 A9T     -0.155000
     22 C17       -10.1050    0.7470   11.5560 c3        1 A9T     -0.192500
     23 C16       -10.2020   -0.1340   10.3100 c3        1 A9T     -0.077500
     24 NBG       -10.7780   -1.4590   10.5020 n3        1 A9T     -0.247000
     25 CAS        -9.0630    3.1300    9.3310 c1        1 A9T      0.006000
     26 OAB        -1.0010   -1.0060    0.3510 o         1 A9T     -0.197000
     27 C22        -8.7550   -2.8080   10.0660 ca        1 A9T     -0.059000
     28 C23        -7.4070   -2.7090   10.4270 ca        1 A9T     -0.107500
     29 C24        -6.4060   -3.0960    9.5370 ca        1 A9T     -0.126500
     30 C25        -6.7650   -3.5780    8.2760 ca        1 A9T     -0.079000
     31 C26        -8.1070   -3.6940    7.9040 ca        1 A9T     -0.126500
     32 Cl1        -5.5410   -4.0440    7.1730 cl        1 A9T     -0.065000
     33 C21        -9.8280   -2.4250   11.0460 c3        1 A9T     -0.045000
     34 C27        -9.0980   -3.3060    8.8030 ca        1 A9T     -0.107500
     35 H23        -7.1280   -2.3270   11.4220 ha        1 A9T      0.154000
     36 H24        -5.3480   -3.0250    9.8310 ha        1 A9T      0.148000
     37 H26        -8.3840   -4.0960    6.9180 ha        1 A9T      0.148000
     38 H21        -9.3450   -2.0490   11.9960 h1        1 A9T      0.089500
     39 H22       -10.3960   -3.3660   11.3080 h1        1 A9T      0.089500
     40 H27       -10.1590   -3.3900    8.5210 ha        1 A9T      0.154000
     41 H11N       -0.5100   -3.7890    1.2420 hn        1 A9T      0.259000
     42 H12N       -1.8270   -3.8500    0.2220 hn        1 A9T      0.259000
     43 HAS1      -11.3050    1.3580   13.2520 hc        1 A9T      0.088500
     44 HAS2       -9.7620    2.5150    8.7240 ha        1 A9T      0.041000
     45 H3         -2.4020    0.2810    2.0650 ha        1 A9T      0.186000
     46 H8         -2.4950   -4.0780    2.4660 ha        1 A9T      0.118000
     47 H4         -5.3490   -1.9160    6.0420 hn        1 A9T      0.290000
     48 H7         -4.0040   -3.9400    4.3950 ha        1 A9T      0.167000
     49 H10        -4.2330    2.4660    6.3750 ha        1 A9T      0.152000
     50 H14        -7.3630   -0.5530    6.3640 ha        1 A9T      0.152000
     51 H11        -5.5390    3.7950    8.0530 ha        1 A9T      0.164000
     52 H13        -8.6480    0.7660    8.0250 ha        1 A9T      0.164000
     53 H161      -10.8530    0.3880    9.5520 h1        1 A9T      0.088250
     54 H162       -9.1750   -0.2550    9.8660 h1        1 A9T      0.088250
     55 H171       -9.7900    1.7790   11.2450 hc        1 A9T      0.089250
     56 H172       -9.3160    0.3450   12.2450 hc        1 A9T      0.089250
     57 H18       -12.1680    1.3870   11.6650 hc        1 A9T      0.088500
     58 H191      -13.0090   -0.5100   12.9710 hc        1 A9T      0.089250
     59 H192      -11.3320   -1.1000   13.3030 hc        1 A9T      0.089250
     60 H201      -12.3650   -2.4420   11.4910 h1        1 A9T      0.088250
     61 H202      -12.7840   -0.9330   10.5650 h1        1 A9T      0.088250
     62 H131       -0.3930   -3.1730   -0.3080 hn        1 A9T      0.259000
@<TRIPOS>BOND
     1    1    2 1   
     2    1    4 1   
     3    1   26 1   
     4    2   41 1   
     5    2   42 1   
     6    2   62 1   
     7    3   16 1   
     8    3   25 1   
     9    4    5 1   
    10    4   12 1   
    11    5    7 1   
    12    5   45 1   
    13    6    7 1   
    14    6    9 1   
    15    7   10 1   
    16    8    9 1   
    17    8   10 1   
    18    8   47 1   
    19    9   13 1   
    20   10   11 1   
    21   11   12 1   
    22   11   48 1   
    23   12   46 1   
    24   13   14 1   
    25   13   18 1   
    26   14   15 1   
    27   14   49 1   
    28   15   16 1   
    29   15   51 1   
    30   16   17 1   
    31   17   18 1   
    32   17   52 1   
    33   18   50 1   
    34   19   20 1   
    35   19   24 1   
    36   19   60 1   
    37   19   61 1   
    38   20   21 1   
    39   20   58 1   
    40   20   59 1   
    41   21   22 1   
    42   21   43 1   
    43   21   57 1   
    44   22   23 1   
    45   22   55 1   
    46   22   56 1   
    47   23   24 1   
    48   23   53 1   
    49   23   54 1   
    50   24   33 1   
    51   25   44 1   
    52   27   28 1   
    53   27   33 1   
    54   27   34 1   
    55   28   29 1   
    56   28   35 1   
    57   29   30 1   
    58   29   36 1   
    59   30   31 1   
    60   30   32 1   
    61   31   34 1   
    62   31   37 1   
    63   33   38 1   
    64   33   39 1   
    65   34   40 1   
@<TRIPOS>SUBSTRUCTURE
     1 A9T         1 TEMP              0 ****  ****    0 ROOT
