@<TRIPOS>MOLECULE
A9T
   62    65     1     0     0
SMALL
bcc


@<TRIPOS>ATOM
      1 C1         -2.1450   -2.0240    0.8460 c2        1 A9T      0.321000
      2 N1         -1.9820   -3.3900    0.1830 n4        1 A9T     -0.149000
      3 O1         -6.5170    3.2530   10.0300 os        1 A9T     -0.022000
      4 C2         -2.8600   -1.9800    2.1050 ca        1 A9T     -0.225000
      5 C3         -2.9880   -0.7030    2.6850 ca        1 A9T      0.046000
      6 N3         -3.9430    0.5320    4.6940 n2        1 A9T     -0.107000
      7 C4         -3.6630   -0.5930    3.8960 ca        1 A9T     -0.090000
      8 N4         -4.8230   -1.3540    5.6950 na        1 A9T     -0.213000
      9 C5         -4.6300    0.0590    5.7600 c2        1 A9T      0.107000
     10 C6         -4.2190   -1.7870    4.5310 ca        1 A9T      0.036000
     11 C7         -4.0810   -3.0520    3.9320 ca        1 A9T     -0.113000
     12 C8         -3.4050   -3.1300    2.7320 ca        1 A9T     -0.094000
     13 C9         -5.1380    0.8550    6.8780 ca        1 A9T     -0.075000
     14 C10        -4.4450    2.0140    7.2610 ca        1 A9T     -0.073000
     15 C11        -4.9130    2.7880    8.3200 ca        1 A9T     -0.137000
     16 C12        -6.0780    2.3940    8.9860 ca        1 A9T     -0.035000
     17 C13        -6.7850    1.2500    8.6070 ca        1 A9T     -0.137000
     18 C14        -6.3100    0.4790    7.5500 ca        1 A9T     -0.073000
     19 C20       -11.9920   -0.3570   10.0870 c3        1 A9T     -0.078500
     20 C19       -12.4730   -0.3410   11.5380 c3        1 A9T     -0.189500
     21 C18       -11.5330    0.4690   12.4060 c3        1 A9T     -0.157000
     22 C17       -10.1010    0.0050   12.2430 c3        1 A9T     -0.189500
     23 C16        -9.7050   -0.0430   10.7670 c3        1 A9T     -0.078500
     24 NBG       -10.6090   -0.7730    9.8870 n3        1 A9T     -0.249000
     25 CAS        -7.2680    2.9000   10.9960 c1        1 A9T      0.009000
     26 OAB        -1.6300   -1.1220    0.1980 o         1 A9T     -0.197000
     27 C22        -9.1840   -2.6970    9.2710 ca        1 A9T     -0.059000
     28 C23        -8.2830   -3.5240    9.9480 ca        1 A9T     -0.105500
     29 C24        -7.1490   -4.0160    9.3020 ca        1 A9T     -0.134000
     30 C25        -6.9200   -3.6700    7.9690 ca        1 A9T     -0.078000
     31 C26        -7.8110   -2.8430    7.2780 ca        1 A9T     -0.134000
     32 CL1        -5.5310   -4.2640    7.1700 cl        1 A9T     -0.052000
     33 C21       -10.4330   -2.2200    9.9580 c3        1 A9T     -0.046000
     34 C27        -8.9420   -2.3600    7.9330 ca        1 A9T     -0.105500
     35 H23        -8.4660   -3.7970   11.0000 ha        1 A9T      0.154500
     36 H24        -6.4470   -4.6720    9.8390 ha        1 A9T      0.145000
     37 H26        -7.6410   -2.5910    6.2210 ha        1 A9T      0.145000
     38 H21       -11.3070   -2.7110    9.4370 h1        1 A9T      0.090500
     39 H22       -10.4310   -2.5900   11.0260 h1        1 A9T      0.090500
     40 H27        -9.6520   -1.7110    7.3970 ha        1 A9T      0.154500
     41 H11N       -1.4700   -4.0190    0.8070 hn        1 A9T      0.259000
     42 H12N       -1.4600   -3.2840   -0.6950 hn        1 A9T      0.259000
     43 HAS1      -11.8390    0.3800   13.4810 hc        1 A9T      0.089000
     44 HAS2       -7.6520    1.8610   11.0950 ha        1 A9T      0.037000
     45 H3         -2.5630    0.1890    2.1910 ha        1 A9T      0.186000
     46 H8         -3.3030   -4.1270    2.2760 ha        1 A9T      0.118000
     47 H4         -5.2730   -1.9170    6.3790 hn        1 A9T      0.288000
     48 H7         -4.5010   -3.9500    4.4110 ha        1 A9T      0.169000
     49 H10        -3.5310    2.3200    6.7260 ha        1 A9T      0.153500
     50 H14        -6.8810   -0.4150    7.2480 ha        1 A9T      0.153500
     51 H11        -4.3840    3.7030    8.6310 ha        1 A9T      0.165000
     52 H13        -7.7150    0.9600    9.1240 ha        1 A9T      0.165000
     53 H161       -9.6680    1.0140   10.3740 h1        1 A9T      0.089000
     54 H162       -8.6760   -0.4890   10.6760 h1        1 A9T      0.089000
     55 H171       -9.9780   -1.0090   12.7040 hc        1 A9T      0.088500
     56 H172       -9.4090    0.7060   12.7780 hc        1 A9T      0.088500
     57 H18       -11.6080    1.5530   12.1250 hc        1 A9T      0.089000
     58 H191      -13.5020    0.1000   11.5730 hc        1 A9T      0.088500
     59 H192      -12.5390   -1.3900   11.9280 hc        1 A9T      0.088500
     60 H201      -12.0690    0.6880    9.6690 h1        1 A9T      0.089000
     61 H202      -12.6680   -1.0200    9.4780 h1        1 A9T      0.089000
     62 H131       -2.9010   -3.7910   -0.0150 hn        1 A9T      0.259000
@<TRIPOS>BOND
     1    1    2 1   
     2    1    4 1   
     3    1   26 1   
     4    2   41 1   
     5    2   42 1   
     6    2   62 1   
     7    3   16 1   
     8    3   25 1   
     9    4    5 1   
    10    4   12 1   
    11    5    7 1   
    12    5   45 1   
    13    6    7 1   
    14    6    9 1   
    15    7   10 1   
    16    8    9 1   
    17    8   10 1   
    18    8   47 1   
    19    9   13 1   
    20   10   11 1   
    21   11   12 1   
    22   11   48 1   
    23   12   46 1   
    24   13   14 1   
    25   13   18 1   
    26   14   15 1   
    27   14   49 1   
    28   15   16 1   
    29   15   51 1   
    30   16   17 1   
    31   17   18 1   
    32   17   52 1   
    33   18   50 1   
    34   19   20 1   
    35   19   24 1   
    36   19   60 1   
    37   19   61 1   
    38   20   21 1   
    39   20   58 1   
    40   20   59 1   
    41   21   22 1   
    42   21   43 1   
    43   21   57 1   
    44   22   23 1   
    45   22   55 1   
    46   22   56 1   
    47   23   24 1   
    48   23   53 1   
    49   23   54 1   
    50   24   33 1   
    51   25   44 1   
    52   27   28 1   
    53   27   33 1   
    54   27   34 1   
    55   28   29 1   
    56   28   35 1   
    57   29   30 1   
    58   29   36 1   
    59   30   31 1   
    60   30   32 1   
    61   31   34 1   
    62   31   37 1   
    63   33   38 1   
    64   33   39 1   
    65   34   40 1   
@<TRIPOS>SUBSTRUCTURE
     1 A9T         1 TEMP              0 ****  ****    0 ROOT
