@<TRIPOS>MOLECULE
A9T
   61    65     1     0     0
SMALL
bcc


@<TRIPOS>ATOM
      1 C1        -10.6240    0.7430   -0.5220 c         1 A9T      0.672700
      2 N1        -11.6650    0.4110    0.3150 n         1 A9T     -0.676000
      3 O1          0.6670   -1.3230   -0.9060 os        1 A9T     -0.325900
      4 C2         -9.2360    0.6540    0.0120 ca        1 A9T     -0.168600
      5 C3         -8.2420    0.2020   -0.8530 ca        1 A9T     -0.011000
      6 N3         -5.7410   -0.3080   -0.9880 nc        1 A9T     -0.552100
      7 C4         -6.9310    0.1150   -0.3670 ca        1 A9T      0.057400
      8 N4         -5.2820    0.3070    1.1850 na        1 A9T     -0.282300
      9 C5         -4.7760   -0.1790   -0.0490 cd        1 A9T      0.479400
     10 C6         -6.6480    0.5110    1.0040 ca        1 A9T     -0.055200
     11 C7         -7.6610    0.9800    1.8500 ca        1 A9T     -0.145000
     12 C8         -8.9470    1.0430    1.3360 ca        1 A9T     -0.091000
     13 C9         -3.3560   -0.4890   -0.2290 ca        1 A9T     -0.157900
     14 C10        -2.7640   -0.2980   -1.4880 ca        1 A9T     -0.064500
     15 C11        -1.4210   -0.5860   -1.6820 ca        1 A9T     -0.188500
     16 C12        -0.6540   -1.0750   -0.6060 ca        1 A9T      0.147100
     17 C13        -1.2390   -1.2770    0.6510 ca        1 A9T     -0.188500
     18 C14        -2.5890   -0.9840    0.8310 ca        1 A9T     -0.064500
     19 C20         5.0990   -3.1120   -0.0270 c3        1 A9T      0.161300
     20 C19         3.6660   -2.9700    0.4910 c3        1 A9T     -0.108900
     21 C18         2.8630   -2.0570   -0.4210 c3        1 A9T     -0.067700
     22 C17         3.5780   -0.7290   -0.6100 c3        1 A9T     -0.108900
     23 C16         5.0150   -0.9510   -1.0830 c3        1 A9T      0.161300
     24 NBG         5.8100   -1.8660   -0.2760 n3        1 A9T     -0.718600
     25 CAS         1.4680   -1.8510    0.1600 c3        1 A9T      0.129400
     26 OAB       -10.8640    1.1000   -1.6940 o         1 A9T     -0.609100
     27 C22         7.3100   -0.1460    0.7010 ca        1 A9T     -0.085300
     28 C23         7.1560    1.0680    1.3780 ca        1 A9T     -0.110500
     29 C24         8.0790    2.0970    1.2040 ca        1 A9T     -0.127500
     30 C25         9.1630    1.9110    0.3410 ca        1 A9T      0.017400
     31 C26         9.3260    0.7020   -0.3440 ca        1 A9T     -0.127500
     32 CL1        10.2930    3.1630    0.1230 cl        1 A9T     -0.096400
     33 C21         6.3390   -1.2640    0.9450 c3        1 A9T      0.207100
     34 C27         8.3990   -0.3220   -0.1600 ca        1 A9T     -0.110500
     35 H23         6.3020    1.2180    2.0560 ha        1 A9T      0.143500
     36 H24         7.9530    3.0490    1.7420 ha        1 A9T      0.147000
     37 H26        10.1790    0.5580   -1.0230 ha        1 A9T      0.147000
     38 H21         5.5090   -0.8920    1.6160 h1        1 A9T      0.039200
     39 H22         6.8910   -2.0720    1.5100 h1        1 A9T      0.039200
     40 H27         8.5220   -1.2740   -0.6980 ha        1 A9T      0.143500
     41 H11N      -11.4960    0.0340    1.2100 hn        1 A9T      0.310500
     42 H12N      -12.5890    0.4190   -0.0360 hn        1 A9T      0.310500
     43 HAS1        1.4850   -1.1230    1.0120 h1        1 A9T      0.042200
     44 HAS2        1.0330   -2.8270    0.5020 h1        1 A9T      0.042200
     45 H3         -8.4820   -0.0700   -1.8930 ha        1 A9T      0.171000
     46 H8         -9.7540    1.4270    1.9790 ha        1 A9T      0.135000
     47 H4         -4.7520    0.5340    1.9830 hn        1 A9T      0.306700
     48 H7         -7.4450    1.2920    2.8800 ha        1 A9T      0.139000
     49 H10        -3.3690    0.0790   -2.3290 ha        1 A9T      0.146000
     50 H14        -3.0440   -1.1650    1.8160 ha        1 A9T      0.146000
     51 H11        -0.9440   -0.4400   -2.6630 ha        1 A9T      0.149000
     52 H13        -0.6540   -1.6670    1.4940 ha        1 A9T      0.149000
     53 H161        4.9890   -1.3830   -2.1240 h1        1 A9T      0.056700
     54 H162        5.5440    0.0410   -1.1310 h1        1 A9T      0.056700
     55 H171        3.0290   -0.1150   -1.3690 hc        1 A9T      0.049200
     56 H172        3.5780   -0.1570    0.3550 hc        1 A9T      0.049200
     57 H18         2.7560   -2.5500   -1.4290 hc        1 A9T      0.072700
     58 H191        3.1940   -3.9850    0.5310 hc        1 A9T      0.049200
     59 H192        3.6740   -2.5540    1.5320 hc        1 A9T      0.049200
     60 H201        5.6890   -3.7360    0.7000 h1        1 A9T      0.056700
     61 H202        5.0710   -3.6610   -1.0110 h1        1 A9T      0.056700
@<TRIPOS>BOND
     1    1    2 1   
     2    1    4 1   
     3    1   26 2   
     4    2   41 1   
     5    2   42 1   
     6    3   16 1   
     7    3   25 1   
     8    4    5 ar  
     9    4   12 ar  
    10    5    7 ar  
    11    5   45 1   
    12    6    7 1   
    13    6    9 2   
    14    7   10 ar  
    15    8    9 1   
    16    8   10 1   
    17    8   47 1   
    18    9   13 1   
    19   10   11 ar  
    20   11   12 ar  
    21   11   48 1   
    22   12   46 1   
    23   13   14 ar  
    24   13   18 ar  
    25   14   15 ar  
    26   14   49 1   
    27   15   16 ar  
    28   15   51 1   
    29   16   17 ar  
    30   17   18 ar  
    31   17   52 1   
    32   18   50 1   
    33   19   20 1   
    34   19   24 1   
    35   19   60 1   
    36   19   61 1   
    37   20   21 1   
    38   20   58 1   
    39   20   59 1   
    40   21   22 1   
    41   21   25 1   
    42   21   57 1   
    43   22   23 1   
    44   22   55 1   
    45   22   56 1   
    46   23   24 1   
    47   23   53 1   
    48   23   54 1   
    49   24   33 1   
    50   25   43 1   
    51   25   44 1   
    52   27   28 ar  
    53   27   33 1   
    54   27   34 ar  
    55   28   29 ar  
    56   28   35 1   
    57   29   30 ar  
    58   29   36 1   
    59   30   31 ar  
    60   30   32 1   
    61   31   34 ar  
    62   31   37 1   
    63   33   38 1   
    64   33   39 1   
    65   34   40 1   
@<TRIPOS>SUBSTRUCTURE
     1 A9T         1 TEMP              0 ****  ****    0 ROOT
