@<TRIPOS>MOLECULE
A9T
   62    65     1     0     0
SMALL
bcc


@<TRIPOS>ATOM
      1 C1         -1.3690   -1.9190    1.0870 c2        1 A9T      0.321000
      2 N1         -0.8120   -3.2770    0.6670 n4        1 A9T     -0.149000
      3 O1         -8.1180    3.1420    8.8590 os        1 A9T     -0.025000
      4 C2         -2.2670   -1.8940    2.2230 ca        1 A9T     -0.226000
      5 C3         -2.7600   -0.6230    2.5760 ca        1 A9T      0.047000
      6 N3         -4.2700    0.5860    4.2310 n2        1 A9T     -0.105000
      7 C4         -3.6280   -0.5290    3.6600 ca        1 A9T     -0.092000
      8 N4         -4.8660   -1.3190    5.3930 na        1 A9T     -0.211000
      9 C5         -4.9980    0.0950    5.2590 c2        1 A9T      0.104000
     10 C6         -4.0050   -1.7340    4.3970 ca        1 A9T      0.036000
     11 C7         -3.4990   -2.9940    4.0260 ca        1 A9T     -0.113000
     12 C8         -2.6400   -3.0540    2.9480 ca        1 A9T     -0.093000
     13 C9         -5.8390    0.8730    6.1710 ca        1 A9T     -0.074000
     14 C10        -5.4270    2.1570    6.5570 ca        1 A9T     -0.072000
     15 C11        -6.2080    2.9050    7.4350 ca        1 A9T     -0.137000
     16 C12        -7.4030    2.3570    7.9130 ca        1 A9T     -0.036000
     17 C13        -7.8330    1.0850    7.5240 ca        1 A9T     -0.137000
     18 C14        -7.0450    0.3430    6.6490 ca        1 A9T     -0.072000
     19 C20       -11.9940   -1.5260   11.2900 c3        1 A9T     -0.077500
     20 C19       -12.0040   -0.6260   12.5250 c3        1 A9T     -0.192500
     21 C18       -11.5640    0.7790   12.1680 c3        1 A9T     -0.155000
     22 C17       -10.2380    0.7670   11.4390 c3        1 A9T     -0.192500
     23 C16       -10.2720   -0.1980   10.2530 c3        1 A9T     -0.077500
     24 NBG       -10.7480   -1.5460   10.5340 n3        1 A9T     -0.247000
     25 CAS        -9.3730    3.0690    9.0620 c1        1 A9T      0.006000
     26 OAB        -0.9630   -1.0060    0.3790 o         1 A9T     -0.197000
     27 C22        -8.6300   -2.7680   10.1750 ca        1 A9T     -0.059000
     28 C23        -7.2930   -2.5500   10.5230 ca        1 A9T     -0.107500
     29 C24        -6.2670   -2.9200    9.6540 ca        1 A9T     -0.126500
     30 C25        -6.5900   -3.5040    8.4280 ca        1 A9T     -0.079000
     31 C26        -7.9200   -3.7390    8.0690 ca        1 A9T     -0.126500
     32 CL1        -5.3360   -3.9500    7.3510 cl        1 A9T     -0.065000
     33 C21        -9.7290   -2.4020   11.1330 c3        1 A9T     -0.045000
     34 C27        -8.9370   -3.3670    8.9470 ca        1 A9T     -0.107500
     35 H23        -7.0430   -2.0870   11.4900 ha        1 A9T      0.154000
     36 H24        -5.2170   -2.7550    9.9390 ha        1 A9T      0.148000
     37 H26        -8.1670   -4.2210    7.1120 ha        1 A9T      0.148000
     38 H21       -10.2250   -3.3630   11.4580 h1        1 A9T      0.089500
     39 H22        -9.2740   -1.9300   12.0540 h1        1 A9T      0.089500
     40 H27        -9.9890   -3.5460    8.6750 ha        1 A9T      0.154000
     41 H11N       -0.1950   -3.1590   -0.1450 hn        1 A9T      0.259000
     42 H12N       -1.5810   -3.9050    0.4190 hn        1 A9T      0.259000
     43 HAS1      -10.0210    2.3700    8.4930 ha        1 A9T      0.041000
     44 HAS2      -11.4770    1.3970   13.0990 hc        1 A9T      0.088500
     45 H3         -2.4670    0.2780    2.0070 ha        1 A9T      0.186000
     46 H8         -2.2510   -4.0460    2.6700 ha        1 A9T      0.118000
     47 H4         -5.2820   -1.8840    6.0970 hn        1 A9T      0.290000
     48 H7         -3.7830   -3.9010    4.5810 ha        1 A9T      0.167000
     49 H10        -4.4870    2.5800    6.1680 ha        1 A9T      0.152000
     50 H14        -7.3900   -0.6530    6.3320 ha        1 A9T      0.152000
     51 H11        -5.8970    3.9100    7.7570 ha        1 A9T      0.164000
     52 H13        -8.7780    0.6670    7.9060 ha        1 A9T      0.164000
     53 H161       -9.2390   -0.2710    9.8100 h1        1 A9T      0.088250
     54 H162      -10.9610    0.2250    9.4660 h1        1 A9T      0.088250
     55 H171       -9.4210    0.4690   12.1470 hc        1 A9T      0.089250
     56 H172      -10.0000    1.7970   11.0600 hc        1 A9T      0.089250
     57 H18       -12.3420    1.2590   11.5180 hc        1 A9T      0.088500
     58 H191      -11.3230   -1.0480   13.3090 hc        1 A9T      0.089250
     59 H192      -13.0400   -0.6060   12.9500 hc        1 A9T      0.089250
     60 H201      -12.2570   -2.5770   11.5940 h1        1 A9T      0.088250
     61 H202      -12.7870   -1.1660   10.5740 h1        1 A9T      0.088250
     62 H131       -0.2810   -3.6880    1.4390 hn        1 A9T      0.259000
@<TRIPOS>BOND
     1    1    2 1   
     2    1    4 1   
     3    1   26 1   
     4    2   41 1   
     5    2   42 1   
     6    2   62 1   
     7    3   16 1   
     8    3   25 1   
     9    4    5 1   
    10    4   12 1   
    11    5    7 1   
    12    5   45 1   
    13    6    7 1   
    14    6    9 1   
    15    7   10 1   
    16    8    9 1   
    17    8   10 1   
    18    8   47 1   
    19    9   13 1   
    20   10   11 1   
    21   11   12 1   
    22   11   48 1   
    23   12   46 1   
    24   13   14 1   
    25   13   18 1   
    26   14   15 1   
    27   14   49 1   
    28   15   16 1   
    29   15   51 1   
    30   16   17 1   
    31   17   18 1   
    32   17   52 1   
    33   18   50 1   
    34   19   20 1   
    35   19   24 1   
    36   19   60 1   
    37   19   61 1   
    38   20   21 1   
    39   20   58 1   
    40   20   59 1   
    41   21   22 1   
    42   21   44 1   
    43   21   57 1   
    44   22   23 1   
    45   22   55 1   
    46   22   56 1   
    47   23   24 1   
    48   23   53 1   
    49   23   54 1   
    50   24   33 1   
    51   25   43 1   
    52   27   28 1   
    53   27   33 1   
    54   27   34 1   
    55   28   29 1   
    56   28   35 1   
    57   29   30 1   
    58   29   36 1   
    59   30   31 1   
    60   30   32 1   
    61   31   34 1   
    62   31   37 1   
    63   33   38 1   
    64   33   39 1   
    65   34   40 1   
@<TRIPOS>SUBSTRUCTURE
     1 A9T         1 TEMP              0 ****  ****    0 ROOT
