@<TRIPOS>MOLECULE
A9T
   61    55     1     0     0
SMALL
bcc


@<TRIPOS>ATOM
      1 C1          4.9170    4.9020   -8.1050 c1        1 A9T      0.346000
      2 N1          5.8360    6.0030   -8.3290 n2        1 A9T     -0.436000
      3 O1         -0.2660   -1.9670   -0.3670 os        1 A9T     -0.206000
      4 C2          4.6400    4.4090   -6.6680 c2        1 A9T     -0.148000
      5 C3          3.8480    3.2630   -6.5610 c1        1 A9T     -0.011000
      6 N3          2.8400    1.6470   -4.9060 n2        1 A9T     -0.181500
      7 C4          3.6200    2.6800   -5.2970 c1        1 A9T     -0.045500
      8 N4          3.7300    2.5400   -3.0980 n2        1 A9T     -0.181500
      9 C5          2.9070    1.5580   -3.5420 c1        1 A9T      0.069000
     10 C6          4.1740    3.2370   -4.1770 c1        1 A9T     -0.045500
     11 C7          4.9740    4.3960   -4.2870 c1        1 A9T     -0.145000
     12 C8          5.2000    4.9720   -5.5370 c2        1 A9T     -0.090000
     13 C9          2.0480    0.6110   -2.7080 c1        1 A9T     -0.074000
     14 C10         0.7950    1.0170   -2.2620 c2        1 A9T     -0.051000
     15 C11         0.0540    0.1900   -1.4340 c1        1 A9T     -0.164000
     16 C12         0.5640   -1.0530   -1.0460 c1        1 A9T      0.101000
     17 C13         1.8150   -1.4570   -1.4920 c1        1 A9T     -0.212000
     18 C14         2.5580   -0.6270   -2.3230 c1        1 A9T     -0.079000
     19 C20        -1.2890   -1.5990    4.3510 c3        1 A9T     -0.075000
     20 C19        -0.3990   -2.2340    3.2860 c3        1 A9T     -0.185500
     21 C18        -0.4750   -1.5450    1.9050 c3        1 A9T     -0.137000
     22 C17        -2.0130   -1.5030    1.6450 c3        1 A9T     -0.185500
     23 C16        -2.8240   -0.9030    2.7920 c3        1 A9T     -0.075000
     24 NBG        -2.6050   -1.4960    3.9840 n3        1 A9T     -0.244000
     25 CAS         0.2010   -2.3280    0.9010 c3        1 A9T     -0.022000
     26 OAB         4.4510    4.2940   -9.0570 o         1 A9T     -0.369000
     27 C22        -4.4530   -2.7990    5.0030 c1        1 A9T     -0.079000
     28 C23        -5.6570   -3.3870    4.6210 c1        1 A9T     -0.124000
     29 C24        -6.7810   -3.2620    5.4320 c1        1 A9T     -0.124000
     30 C25        -6.7030   -2.5470    6.6270 c1        1 A9T     -0.061000
     31 C26        -5.5050   -1.9610    7.0080 c1        1 A9T     -0.128000
     32 CL1        -8.1380   -2.3140    7.6010 cl        1 A9T     -0.018000
     33 C21        -3.2120   -2.7970    3.9920 c3        1 A9T     -0.037000
     34 C27        -4.3770   -2.0870    6.1960 c1        1 A9T     -0.100000
     35 H23        -5.7120   -3.8860    3.7860 ha        1 A9T      0.141000
     36 H24        -7.6480   -3.6860    5.1560 ha        1 A9T      0.141000
     37 H26        -5.4490   -1.4430    7.8760 ha        1 A9T      0.148000
     38 H21        -2.5640   -3.4520    4.2760 h1        1 A9T      0.079000
     39 H22        -3.5230   -3.0160    3.0960 h1        1 A9T      0.079000
     40 H27        -3.5290   -1.6710    6.4670 ha        1 A9T      0.151000
     41 H11N        6.0810    6.2320   -9.1910 hn        1 A9T      0.224000
     42 H12N        6.2180    6.4400   -7.6080 hn        1 A9T      0.224000
     43 HAS1        0.0230   -3.2860    1.0560 h1        1 A9T      0.100000
     44 HAS2        1.1780   -2.1610    0.9540 h1        1 A9T      0.100000
     45 H3          3.3790    2.9150   -7.3540 ha        1 A9T      0.171000
     46 H8          5.8240    5.7260   -5.6240 ha        1 A9T      0.135000
     47 H4          3.9490    2.7040   -2.2240 DU        1 A9T      0.258000
     48 H7          5.3690    4.7940   -3.4880 ha        1 A9T      0.139000
     49 H10         0.4390    1.8820   -2.5310 ha        1 A9T      0.161000
     50 H14         3.4340   -0.9090   -2.6350 ha        1 A9T      0.131000
     51 H11        -0.8280    0.4770   -1.1190 ha        1 A9T      0.156000
     52 H13         2.1800   -2.3400   -1.2170 ha        1 A9T      0.142000
     53 H161       -2.6020    0.0380    2.8680 h1        1 A9T      0.095500
     54 H162       -3.7730   -0.9820    2.5760 h1        1 A9T      0.095500
     55 H171       -2.1800   -0.9680    0.8320 hc        1 A9T      0.088250
     56 H172       -2.3250   -2.4130    1.4870 hc        1 A9T      0.088250
     57 H18        -0.1020   -0.6290    1.9490 hc        1 A9T      0.103000
     58 H191        0.5390   -2.2040    3.6010 hc        1 A9T      0.088250
     59 H192       -0.6650   -3.1810    3.1780 hc        1 A9T      0.088250
     60 H201       -0.9520   -0.7140    4.5470 h1        1 A9T      0.095500
     61 H202       -1.2370   -2.1210    5.1360 h1        1 A9T      0.095500
@<TRIPOS>BOND
     1    1    4 1   
     2    1   26 1   
     3    2   41 1   
     4    2   42 1   
     5    3   16 1   
     6    3   25 1   
     7    4    5 1   
     8    4   12 1   
     9    5   45 1   
    10    6    7 1   
    11    6    9 1   
    12    7   10 1   
    13    8    9 1   
    14    8   10 1   
    15   11   12 1   
    16   11   48 1   
    17   12   46 1   
    18   13   14 1   
    19   13   18 1   
    20   14   15 1   
    21   14   49 1   
    22   15   51 1   
    23   16   17 1   
    24   17   52 1   
    25   18   50 1   
    26   19   20 1   
    27   19   24 1   
    28   19   60 1   
    29   19   61 1   
    30   20   21 1   
    31   20   58 1   
    32   20   59 1   
    33   21   22 1   
    34   21   25 1   
    35   21   57 1   
    36   22   23 1   
    37   22   55 1   
    38   22   56 1   
    39   23   24 1   
    40   23   53 1   
    41   23   54 1   
    42   24   33 1   
    43   25   43 1   
    44   25   44 1   
    45   27   33 1   
    46   27   34 1   
    47   28   29 1   
    48   28   35 1   
    49   29   36 1   
    50   30   31 1   
    51   30   32 1   
    52   31   37 1   
    53   33   38 1   
    54   33   39 1   
    55   34   40 1   
@<TRIPOS>SUBSTRUCTURE
     1 A9T         1 TEMP              0 ****  ****    0 ROOT
