@<TRIPOS>MOLECULE
A9U
   62    66     1     0     0
SMALL
bcc


@<TRIPOS>ATOM
      1 C1          0.4290    0.2230    0.3500 c         1 A9U      0.579700
      2 N1          1.9110   -0.1250    0.4630 nz        1 A9U     -0.761400
      3 O1         -9.3330    0.0430    6.3440 os        1 A9U     -0.312900
      4 C2         -0.4020   -0.0490    1.5010 ca        1 A9U     -0.232600
      5 C3         -1.7640    0.2880    1.3610 ca        1 A9U     -0.002000
      6 N3         -3.9670    0.2490    2.6500 na        1 A9U     -0.263300
      7 C4         -2.5990    0.0470    2.4410 ca        1 A9U     -0.120200
      8 N4         -3.1380   -0.6730    4.5950 nc        1 A9U     -0.573100
      9 C5         -4.2540   -0.1960    3.9570 cd        1 A9U      0.573400
     10 C6         -2.0970   -0.5380    3.6880 ca        1 A9U      0.168400
     11 C7         -0.7290   -0.8620    3.7850 ca        1 A9U     -0.077000
     12 C8          0.0910   -0.6160    2.7040 ca        1 A9U     -0.111000
     13 C9         -5.5920   -0.1330    4.5320 ca        1 A9U     -0.215900
     14 C10        -5.7370   -0.1030    5.9320 ca        1 A9U     -0.042500
     15 C11        -6.9970   -0.0420    6.5050 ca        1 A9U     -0.194000
     16 C12        -8.1400   -0.0180    5.6760 ca        1 A9U      0.186100
     17 C13        -8.0030   -0.0580    4.2790 ca        1 A9U     -0.194000
     18 C14        -6.7330   -0.1160    3.7170 ca        1 A9U     -0.042500
     19 C20       -14.1690   -0.1310    6.7520 c3        1 A9U      0.162800
     20 C19       -12.9720   -0.2820    5.8090 c3        1 A9U     -0.109400
     21 C18       -11.6900    0.1310    6.5160 c3        1 A9U     -0.067700
     22 C17       -11.8310    1.5260    7.1030 c3        1 A9U     -0.109400
     23 C16       -13.0700    1.6110    7.9950 c3        1 A9U      0.162800
     24 NBH       -14.3160    1.1690    7.3870 n3        1 A9U     -0.717600
     25 CAS       -10.5240    0.0610    5.5360 c3        1 A9U      0.127400
     26 OAB         0.1400    0.7020   -0.7410 o         1 A9U     -0.448100
     27 C22       -15.3140    3.4370    7.2040 ca        1 A9U     -0.092300
     28 C23       -14.9220    4.6650    6.6620 ca        1 A9U     -0.118500
     29 C24       -15.3180    5.8570    7.2680 ca        1 A9U     -0.132000
     30 C25       -16.1020    5.8290    8.4210 ca        1 A9U     -0.125000
     31 C26       -16.4930    4.6060    8.9660 ca        1 A9U     -0.132000
     32 C21       -14.9350    2.1600    6.5120 c3        1 A9U      0.209100
     33 C27       -16.1030    3.4130    8.3600 ca        1 A9U     -0.118500
     34 H25       -16.4140    6.7700    8.8980 ha        1 A9U      0.134000
     35 H23       -14.3040    4.6940    5.7530 ha        1 A9U      0.136000
     36 H24       -15.0100    6.8200    6.8350 ha        1 A9U      0.133000
     37 H26       -17.1130    4.5820    9.8740 ha        1 A9U      0.133000
     38 H21       -14.2700    2.4030    5.6300 h1        1 A9U      0.037700
     39 H22       -15.8830    1.7020    6.1040 h1        1 A9U      0.037700
     40 H27       -16.4120    2.4470    8.7890 ha        1 A9U      0.136000
     41 H11N        2.0180   -1.1260    0.6450 hn        1 A9U      0.464133
     42 H12N        2.3890    0.1160   -0.4130 hn        1 A9U      0.464133
     43 HAS1      -10.5010    0.9560    4.8620 h1        1 A9U      0.046200
     44 HAS2      -10.5670   -0.8800    4.9280 h1        1 A9U      0.046200
     45 H3         -2.1360    0.7270    0.4200 ha        1 A9U      0.170000
     46 H8          1.1550   -0.8780    2.8090 ha        1 A9U      0.117000
     47 HA         -4.6050    0.6480    2.0100 hn        1 A9U      0.325700
     48 H7         -0.3350   -1.3040    4.7150 ha        1 A9U      0.179000
     49 H10        -4.8480   -0.1270    6.5830 ha        1 A9U      0.146000
     50 H14        -6.6480   -0.1680    2.6210 ha        1 A9U      0.146000
     51 H11        -7.1250   -0.0150    7.5980 ha        1 A9U      0.161000
     52 H13        -8.8860   -0.0510    3.6240 ha        1 A9U      0.161000
     53 H161      -13.1970    2.6720    8.3480 h1        1 A9U      0.059450
     54 H162      -12.9060    0.9600    8.9010 h1        1 A9U      0.059450
     55 H171      -11.9050    2.2800    6.2770 hc        1 A9U      0.047950
     56 H172      -10.9220    1.7700    7.7090 hc        1 A9U      0.047950
     57 H18       -11.4900   -0.5920    7.3580 hc        1 A9U      0.074700
     58 H191      -12.9040   -1.3500    5.4790 hc        1 A9U      0.047950
     59 H192      -13.1220    0.3510    4.8960 hc        1 A9U      0.047950
     60 H201      -14.0630   -0.8820    7.5860 h1        1 A9U      0.059450
     61 H202      -15.1100   -0.3760    6.1860 h1        1 A9U      0.059450
     62 H131        2.3320    0.4000    1.2340 hn        1 A9U      0.464133
@<TRIPOS>BOND
     1    1    2 1   
     2    1    4 1   
     3    1   26 2   
     4    2   41 1   
     5    2   42 1   
     6    2   62 1   
     7    3   16 1   
     8    3   25 1   
     9    4    5 ar  
    10    4   12 ar  
    11    5    7 ar  
    12    5   45 1   
    13    6    7 1   
    14    6    9 1   
    15    6   47 1   
    16    7   10 ar  
    17    8    9 2   
    18    8   10 1   
    19    9   13 1   
    20   10   11 ar  
    21   11   12 ar  
    22   11   48 1   
    23   12   46 1   
    24   13   14 ar  
    25   13   18 ar  
    26   14   15 ar  
    27   14   49 1   
    28   15   16 ar  
    29   15   51 1   
    30   16   17 ar  
    31   17   18 ar  
    32   17   52 1   
    33   18   50 1   
    34   19   20 1   
    35   19   24 1   
    36   19   60 1   
    37   19   61 1   
    38   20   21 1   
    39   20   58 1   
    40   20   59 1   
    41   21   22 1   
    42   21   25 1   
    43   21   57 1   
    44   22   23 1   
    45   22   55 1   
    46   22   56 1   
    47   23   24 1   
    48   23   53 1   
    49   23   54 1   
    50   24   32 1   
    51   25   43 1   
    52   25   44 1   
    53   27   28 ar  
    54   27   32 1   
    55   27   33 ar  
    56   28   29 ar  
    57   28   35 1   
    58   29   30 ar  
    59   29   36 1   
    60   30   31 ar  
    61   30   34 1   
    62   31   33 ar  
    63   31   37 1   
    64   32   38 1   
    65   32   39 1   
    66   33   40 1   
@<TRIPOS>SUBSTRUCTURE
     1 A9U         1 TEMP              0 ****  ****    0 ROOT
