@<TRIPOS>MOLECULE
A9U
   62    66     1     0     0
SMALL
bcc


@<TRIPOS>ATOM
      1 C1          0.4620    0.2760    0.4130 c         1 A9U      0.579700
      2 N1          1.9400   -0.0880    0.5300 n4        1 A9U     -0.761400
      3 O1         -9.3570    0.0110    6.3100 os        1 A9U     -0.312900
      4 C2         -0.3820   -0.0220    1.5490 ca        1 A9U     -0.232600
      5 C3         -1.7400    0.3300    1.4060 ca        1 A9U     -0.002000
      6 N3         -3.9560    0.2740    2.6720 na        1 A9U     -0.263300
      7 C4         -2.5880    0.0650    2.4700 ca        1 A9U     -0.120200
      8 N4         -3.1530   -0.7130    4.5980 nc        1 A9U     -0.573100
      9 C5         -4.2590   -0.2070    3.9630 cd        1 A9U      0.573400
     10 C6         -2.1020   -0.5600    3.7040 ca        1 A9U      0.168400
     11 C7         -0.7380   -0.8990    3.8040 ca        1 A9U     -0.077000
     12 C8          0.0950   -0.6280    2.7390 ca        1 A9U     -0.111000
     13 C9         -5.6010   -0.1480    4.5280 ca        1 A9U     -0.215900
     14 C10        -5.7600   -0.1570    5.9270 ca        1 A9U     -0.042500
     15 C11        -7.0240   -0.1010    6.4900 ca        1 A9U     -0.194000
     16 C12        -8.1590   -0.0420    5.6520 ca        1 A9U      0.186100
     17 C13        -8.0090   -0.0440    4.2550 ca        1 A9U     -0.194000
     18 C14        -6.7350   -0.0980    3.7030 ca        1 A9U     -0.042500
     19 C20       -14.1990   -0.1150    6.6680 c3        1 A9U      0.163300
     20 C19       -12.9960   -0.2540    5.7330 c3        1 A9U     -0.109400
     21 C18       -11.7150    0.1220    6.4630 c3        1 A9U     -0.067700
     22 C17       -11.8440    1.5020    7.0880 c3        1 A9U     -0.109400
     23 C16       -13.0910    1.5770    7.9710 c3        1 A9U      0.163300
     24 NBH       -14.3360    1.1690    7.3390 n3        1 A9U     -0.717600
     25 CAS       -10.5410    0.0650    5.4920 c3        1 A9U      0.127400
     26 OAB         0.1870    0.7890   -0.6650 o         1 A9U     -0.448100
     27 C22       -15.3010    3.4550    7.2100 ca        1 A9U     -0.092300
     28 C23       -14.8890    4.6920    6.7050 ca        1 A9U     -0.118500
     29 C24       -15.2740    5.8720    7.3400 ca        1 A9U     -0.132000
     30 C25       -16.0680    5.8240    8.4850 ca        1 A9U     -0.125000
     31 C26       -16.4790    4.5910    8.9940 ca        1 A9U     -0.132000
     32 C21       -14.9330    2.1930    6.4870 c3        1 A9U      0.209100
     33 C27       -16.0990    3.4090    8.3590 ca        1 A9U     -0.118500
     34 H25       -16.3710    6.7550    8.9850 ha        1 A9U      0.134000
     35 H23       -14.2630    4.7370    5.8010 ha        1 A9U      0.136000
     36 H24       -14.9500    6.8420    6.9350 ha        1 A9U      0.133000
     37 H26       -17.1060    4.5510    9.8970 ha        1 A9U      0.133000
     38 H21       -14.2580    2.4500    5.6170 h1        1 A9U      0.037700
     39 H22       -15.8840    1.7580    6.0570 h1        1 A9U      0.037700
     40 H27       -16.4250    2.4370    8.7600 ha        1 A9U      0.136000
     41 H11N        2.3570    0.4100    1.3200 hn        1 A9U      0.464133
     42 H12N        2.0370   -1.0950    0.6830 hn        1 A9U      0.464133
     43 HAS1      -10.5010    0.9780    4.8430 h1        1 A9U      0.046200
     44 HAS2      -10.5890   -0.8590    4.8580 h1        1 A9U      0.046200
     45 H3         -2.1000    0.8000    0.4750 ha        1 A9U      0.170000
     46 H8          1.1550   -0.9040    2.8460 ha        1 A9U      0.117000
     47 HA         -4.5850    0.6970    2.0390 hn        1 A9U      0.325700
     48 H7         -0.3570   -1.3710    4.7240 ha        1 A9U      0.179000
     49 H10        -4.8770   -0.2080    6.5850 ha        1 A9U      0.146000
     50 H14        -6.6400   -0.1190    2.6070 ha        1 A9U      0.146000
     51 H11        -7.1620   -0.1040    7.5820 ha        1 A9U      0.161000
     52 H13        -8.8860   -0.0100    3.5930 ha        1 A9U      0.161000
     53 H161      -13.2070    2.6300    8.3520 h1        1 A9U      0.059450
     54 H162      -12.9430    0.8980    8.8590 h1        1 A9U      0.059450
     55 H171      -10.9380    1.7170    7.7090 hc        1 A9U      0.047950
     56 H172      -11.9000    2.2800    6.2830 hc        1 A9U      0.047950
     57 H18       -11.5320   -0.6270    7.2850 hc        1 A9U      0.074700
     58 H191      -12.9370   -1.3130    5.3740 hc        1 A9U      0.047950
     59 H192      -13.1290    0.4060    4.8370 hc        1 A9U      0.047950
     60 H201      -14.1110   -0.8900    7.4820 h1        1 A9U      0.059450
     61 H202      -15.1380   -0.3310    6.0870 h1        1 A9U      0.059450
     62 H131        2.4280    0.1740   -0.3340 hn        1 A9U      0.464133
@<TRIPOS>BOND
     1    1    2 1   
     2    1    4 1   
     3    1   26 2   
     4    2   41 1   
     5    2   42 1   
     6    2   62 1   
     7    3   16 1   
     8    3   25 1   
     9    4    5 ar  
    10    4   12 ar  
    11    5    7 ar  
    12    5   45 1   
    13    6    7 1   
    14    6    9 1   
    15    6   47 1   
    16    7   10 ar  
    17    8    9 2   
    18    8   10 1   
    19    9   13 1   
    20   10   11 ar  
    21   11   12 ar  
    22   11   48 1   
    23   12   46 1   
    24   13   14 ar  
    25   13   18 ar  
    26   14   15 ar  
    27   14   49 1   
    28   15   16 ar  
    29   15   51 1   
    30   16   17 ar  
    31   17   18 ar  
    32   17   52 1   
    33   18   50 1   
    34   19   20 1   
    35   19   24 1   
    36   19   60 1   
    37   19   61 1   
    38   20   21 1   
    39   20   58 1   
    40   20   59 1   
    41   21   22 1   
    42   21   25 1   
    43   21   57 1   
    44   22   23 1   
    45   22   55 1   
    46   22   56 1   
    47   23   24 1   
    48   23   53 1   
    49   23   54 1   
    50   24   32 1   
    51   25   43 1   
    52   25   44 1   
    53   27   28 ar  
    54   27   32 1   
    55   27   33 ar  
    56   28   29 ar  
    57   28   35 1   
    58   29   30 ar  
    59   29   36 1   
    60   30   31 ar  
    61   30   34 1   
    62   31   33 ar  
    63   31   37 1   
    64   32   38 1   
    65   32   39 1   
    66   33   40 1   
@<TRIPOS>SUBSTRUCTURE
     1 A9U         1 TEMP              0 ****  ****    0 ROOT
