@<TRIPOS>MOLECULE
A9U
   61    65     1     0     0
SMALL
bcc


@<TRIPOS>ATOM
      1 C1         -9.7980   -0.4040   -0.9000 c         1 A9U      0.671700
      2 N1        -10.9350   -0.1630   -0.1680 n         1 A9U     -0.673000
      3 O1          1.4910    1.3160    0.5110 os        1 A9U     -0.325900
      4 C2         -8.4870   -0.4320   -0.1890 ca        1 A9U     -0.130600
      5 C3         -7.3780    0.0460   -0.8830 ca        1 A9U     -0.076000
      6 N3         -4.8620    0.4140   -0.6020 na        1 A9U     -0.277300
      7 C4         -6.1470    0.0220   -0.2220 ca        1 A9U     -0.085200
      8 N4         -4.6820   -0.3960    1.5480 nc        1 A9U     -0.567100
      9 C5         -4.0130    0.1440    0.4990 cd        1 A9U      0.489400
     10 C6         -6.0210   -0.4890    1.1340 ca        1 A9U      0.088400
     11 C7         -7.1610   -0.9790    1.7880 ca        1 A9U     -0.080000
     12 C8         -8.3750   -0.9430    1.1210 ca        1 A9U     -0.130000
     13 C9         -2.5800    0.4400    0.4590 ca        1 A9U     -0.160900
     14 C10        -1.9220    0.8220    1.6390 ca        1 A9U     -0.063500
     15 C11        -0.5640    1.1060    1.6240 ca        1 A9U     -0.188500
     16 C12         0.1530    1.0040    0.4150 ca        1 A9U      0.149100
     17 C13        -0.4950    0.6160   -0.7650 ca        1 A9U     -0.188500
     18 C14        -1.8590    0.3340   -0.7350 ca        1 A9U     -0.063500
     19 C20         5.9530    2.0990   -1.2470 c3        1 A9U      0.162300
     20 C19         4.4880    1.8230   -1.5910 c3        1 A9U     -0.108900
     21 C18         3.6920    1.5450   -0.3250 c3        1 A9U     -0.067700
     22 C17         4.3480    0.4390    0.4840 c3        1 A9U     -0.108900
     23 C16         5.8180    0.7630    0.7490 c3        1 A9U      0.162300
     24 NBH         6.6130    1.0950   -0.4250 n3        1 A9U     -0.717600
     25 CAS         2.2580    1.1790   -0.6940 c3        1 A9U      0.129400
     26 OAB        -9.8820   -0.5760   -2.1350 o         1 A9U     -0.616100
     27 C22         7.9450   -1.0010   -0.4380 ca        1 A9U     -0.087300
     28 C23         7.6570   -2.3700   -0.4000 ca        1 A9U     -0.118000
     29 C24         8.5200   -3.2480    0.2540 ca        1 A9U     -0.133500
     30 C25         9.6710   -2.7660    0.8770 ca        1 A9U     -0.129000
     31 C26         9.9590   -1.4020    0.8430 ca        1 A9U     -0.133500
     32 C21         7.0420   -0.0700   -1.1940 c3        1 A9U      0.208100
     33 C27         9.1010   -0.5210    0.1860 ca        1 A9U     -0.118000
     34 H25        10.3500   -3.4600    1.3930 ha        1 A9U      0.131000
     35 H23         6.7500   -2.7560   -0.8870 ha        1 A9U      0.137000
     36 H24         8.2900   -4.3240    0.2800 ha        1 A9U      0.131000
     37 H26        10.8650   -1.0190    1.3340 ha        1 A9U      0.131000
     38 H21         6.1570   -0.6530   -1.5890 h1        1 A9U      0.037700
     39 H22         7.6200    0.3100   -2.0870 h1        1 A9U      0.037700
     40 H27         9.3270    0.5560    0.1610 ha        1 A9U      0.137000
     41 H11N      -10.8900    0.0300    0.7980 hn        1 A9U      0.313500
     42 H12N      -11.8090   -0.1230   -0.6290 hn        1 A9U      0.313500
     43 HAS1        2.1890    0.1230   -1.0660 h1        1 A9U      0.042200
     44 HAS2        1.8550    1.8830   -1.4690 h1        1 A9U      0.042200
     45 H3         -7.4810    0.4130   -1.9150 ha        1 A9U      0.159000
     46 H8         -9.2660   -1.3460    1.6260 ha        1 A9U      0.134000
     47 HA         -4.5990    0.8200   -1.4590 hn        1 A9U      0.309700
     48 H7         -7.0830   -1.3840    2.8070 ha        1 A9U      0.152000
     49 H10        -2.4850    0.8930    2.5840 ha        1 A9U      0.146000
     50 H14        -2.3530    0.0100   -1.6630 ha        1 A9U      0.146000
     51 H11        -0.0360    1.4070    2.5410 ha        1 A9U      0.149000
     52 H13         0.0550    0.5250   -1.7120 ha        1 A9U      0.149000
     53 H161        5.8720    1.6560    1.4350 h1        1 A9U      0.056450
     54 H162        6.2990   -0.1090    1.2740 h1        1 A9U      0.056450
     55 H171        3.8120    0.3250    1.4610 hc        1 A9U      0.048950
     56 H172        4.2650   -0.5350   -0.0660 hc        1 A9U      0.048950
     57 H18         3.6670    2.4800    0.3030 hc        1 A9U      0.071700
     58 H191        4.0660    2.7140   -2.1220 hc        1 A9U      0.048950
     59 H192        4.4160    0.9450   -2.2840 hc        1 A9U      0.048950
     60 H201        6.5320    2.2340   -2.2020 h1        1 A9U      0.056450
     61 H202        6.0090    3.0660   -0.6700 h1        1 A9U      0.056450
@<TRIPOS>BOND
     1    1    2 1   
     2    1    4 1   
     3    1   26 2   
     4    2   41 1   
     5    2   42 1   
     6    3   16 1   
     7    3   25 1   
     8    4    5 ar  
     9    4   12 ar  
    10    5    7 ar  
    11    5   45 1   
    12    6    7 1   
    13    6    9 1   
    14    6   47 1   
    15    7   10 ar  
    16    8    9 2   
    17    8   10 1   
    18    9   13 1   
    19   10   11 ar  
    20   11   12 ar  
    21   11   48 1   
    22   12   46 1   
    23   13   14 ar  
    24   13   18 ar  
    25   14   15 ar  
    26   14   49 1   
    27   15   16 ar  
    28   15   51 1   
    29   16   17 ar  
    30   17   18 ar  
    31   17   52 1   
    32   18   50 1   
    33   19   20 1   
    34   19   24 1   
    35   19   60 1   
    36   19   61 1   
    37   20   21 1   
    38   20   58 1   
    39   20   59 1   
    40   21   22 1   
    41   21   25 1   
    42   21   57 1   
    43   22   23 1   
    44   22   55 1   
    45   22   56 1   
    46   23   24 1   
    47   23   53 1   
    48   23   54 1   
    49   24   32 1   
    50   25   43 1   
    51   25   44 1   
    52   27   28 ar  
    53   27   32 1   
    54   27   33 ar  
    55   28   29 ar  
    56   28   35 1   
    57   29   30 ar  
    58   29   36 1   
    59   30   31 ar  
    60   30   34 1   
    61   31   33 ar  
    62   31   37 1   
    63   32   38 1   
    64   32   39 1   
    65   33   40 1   
@<TRIPOS>SUBSTRUCTURE
     1 A9U         1 TEMP              0 ****  ****    0 ROOT
