@<TRIPOS>MOLECULE
A9U
   62    66     1     0     0
SMALL
bcc


@<TRIPOS>ATOM
      1 C1          0.4640   -0.5840    0.3690 c         1 A9U      0.579700
      2 N1          1.9680   -0.3830    0.5360 n4        1 A9U     -0.761400
      3 O1         -9.3860    0.0180    6.1890 os        1 A9U     -0.312900
      4 C2         -0.3670   -0.3260    1.5240 ca        1 A9U     -0.232600
      5 C3         -1.7500   -0.5260    1.3340 ca        1 A9U     -0.002000
      6 N3         -3.9720   -0.3860    2.5840 na        1 A9U     -0.263300
      7 C4         -2.5870   -0.2930    2.4150 ca        1 A9U     -0.120200
      8 N4         -3.1110    0.3070    4.6100 nc        1 A9U     -0.573100
      9 C5         -4.2490   -0.0170    3.9170 cd        1 A9U      0.573400
     10 C6         -2.0650    0.1470    3.7120 ca        1 A9U      0.168400
     11 C7         -0.6760    0.3370    3.8580 ca        1 A9U     -0.077000
     12 C8          0.1450    0.1000    2.7760 ca        1 A9U     -0.111000
     13 C9         -5.6010   -0.0030    4.4620 ca        1 A9U     -0.215900
     14 C10        -5.7830   -0.1280    5.8530 ca        1 A9U     -0.042500
     15 C11        -7.0560   -0.1190    6.3970 ca        1 A9U     -0.194000
     16 C12        -8.1770    0.0260    5.5490 ca        1 A9U      0.186100
     17 C13        -8.0030    0.1620    4.1620 ca        1 A9U     -0.194000
     18 C14        -6.7190    0.1470    3.6280 ca        1 A9U     -0.042500
     19 C20       -14.2350   -0.0590    6.4530 c3        1 A9U      0.163300
     20 C19       -13.0170   -0.1140    5.5270 c3        1 A9U     -0.109400
     21 C18       -11.7440    0.1540    6.3150 c3        1 A9U     -0.067700
     22 C17       -11.8620    1.4580    7.0880 c3        1 A9U     -0.109400
     23 C16       -13.1230    1.4570    7.9540 c3        1 A9U      0.163300
     24 NBH       -14.3630    1.1440    7.2610 n3        1 A9U     -0.717600
     25 CAS       -10.5530    0.1850    5.3630 c3        1 A9U      0.127400
     26 OAB         0.1600   -0.9500   -0.7600 o         1 A9U     -0.448100
     27 C22       -15.2930    3.4440    7.3760 ca        1 A9U     -0.092300
     28 C23       -14.8490    4.7230    7.0250 ca        1 A9U     -0.118500
     29 C24       -15.2290    5.8300    7.7840 ca        1 A9U     -0.132000
     30 C25       -16.0500    5.6650    8.8980 ca        1 A9U     -0.125000
     31 C26       -16.4930    4.3910    9.2520 ca        1 A9U     -0.132000
     32 C21       -14.9290    2.2670    6.5200 c3        1 A9U      0.209100
     33 C27       -16.1190    3.2830    8.4940 ca        1 A9U     -0.118500
     34 H25       -16.3490    6.5390    9.4960 ha        1 A9U      0.134000
     35 H23       -14.2010    4.8600    6.1460 ha        1 A9U      0.136000
     36 H24       -14.8790    6.8340    7.5010 ha        1 A9U      0.133000
     37 H26       -17.1420    4.2580   10.1310 ha        1 A9U      0.133000
     38 H21       -15.8770    1.8990    6.0270 h1        1 A9U      0.037200
     39 H22       -14.2330    2.6100    5.6970 h1        1 A9U      0.037200
     40 H27       -16.4690    2.2770    8.7730 ha        1 A9U      0.136000
     41 H11N        2.4440   -0.5990   -0.3480 hn        1 A9U      0.464133
     42 H12N        2.3200   -1.0010    1.2710 hn        1 A9U      0.464133
     43 HAS1      -10.6050   -0.6620    4.6300 h1        1 A9U      0.046200
     44 HAS2      -10.4880    1.1630    4.8200 h1        1 A9U      0.046200
     45 H3         -2.1370   -0.8570    0.3560 ha        1 A9U      0.170000
     46 H8          1.2250    0.2570    2.9200 ha        1 A9U      0.117000
     47 HA         -4.6270   -0.6750    1.9040 hn        1 A9U      0.325700
     48 H7         -0.2670    0.6690    4.8260 ha        1 A9U      0.179000
     49 H10        -4.9110   -0.2360    6.5190 ha        1 A9U      0.146000
     50 H14        -6.6030    0.2760    2.5410 ha        1 A9U      0.146000
     51 H11        -7.2130   -0.2190    7.4820 ha        1 A9U      0.161000
     52 H13        -8.8670    0.2840    3.4940 ha        1 A9U      0.161000
     53 H161      -13.0020    0.6810    8.7630 h1        1 A9U      0.059450
     54 H162      -13.2290    2.4620    8.4490 h1        1 A9U      0.059450
     55 H171      -10.9640    1.5860    7.7440 hc        1 A9U      0.047950
     56 H172      -11.8910    2.3220    6.3740 hc        1 A9U      0.047950
     57 H18       -11.5880   -0.6840    7.0520 hc        1 A9U      0.074700
     58 H191      -13.1230    0.6440    4.7090 hc        1 A9U      0.047950
     59 H192      -12.9690   -1.1270    5.0520 hc        1 A9U      0.047950
     60 H201      -14.1730   -0.9220    7.1760 h1        1 A9U      0.059450
     61 H202      -15.1660   -0.1920    5.8360 h1        1 A9U      0.059450
     62 H131        2.1600    0.5870    0.7960 hn        1 A9U      0.464133
@<TRIPOS>BOND
     1    1    2 1   
     2    1    4 1   
     3    1   26 2   
     4    2   41 1   
     5    2   42 1   
     6    2   62 1   
     7    3   16 1   
     8    3   25 1   
     9    4    5 ar  
    10    4   12 ar  
    11    5    7 ar  
    12    5   45 1   
    13    6    7 1   
    14    6    9 1   
    15    6   47 1   
    16    7   10 ar  
    17    8    9 2   
    18    8   10 1   
    19    9   13 1   
    20   10   11 ar  
    21   11   12 ar  
    22   11   48 1   
    23   12   46 1   
    24   13   14 ar  
    25   13   18 ar  
    26   14   15 ar  
    27   14   49 1   
    28   15   16 ar  
    29   15   51 1   
    30   16   17 ar  
    31   17   18 ar  
    32   17   52 1   
    33   18   50 1   
    34   19   20 1   
    35   19   24 1   
    36   19   60 1   
    37   19   61 1   
    38   20   21 1   
    39   20   58 1   
    40   20   59 1   
    41   21   22 1   
    42   21   25 1   
    43   21   57 1   
    44   22   23 1   
    45   22   55 1   
    46   22   56 1   
    47   23   24 1   
    48   23   53 1   
    49   23   54 1   
    50   24   32 1   
    51   25   43 1   
    52   25   44 1   
    53   27   28 ar  
    54   27   32 1   
    55   27   33 ar  
    56   28   29 ar  
    57   28   35 1   
    58   29   30 ar  
    59   29   36 1   
    60   30   31 ar  
    61   30   34 1   
    62   31   33 ar  
    63   31   37 1   
    64   32   38 1   
    65   32   39 1   
    66   33   40 1   
@<TRIPOS>SUBSTRUCTURE
     1 A9U         1 TEMP              0 ****  ****    0 ROOT
