@<TRIPOS>MOLECULE
A9U
   61    55     1     0     0
SMALL
bcc


@<TRIPOS>ATOM
      1 C1          9.2000   -4.2680   -3.8300 c1        1 A9U      0.345000
      2 N1         10.5740   -4.7490   -3.5280 n2        1 A9U     -0.433000
      3 O1         -0.2230    1.0530    0.6330 os        1 A9U     -0.209000
      4 C2          8.3830   -3.5310   -2.7460 c2        1 A9U     -0.110000
      5 C3          7.0870   -3.1480   -3.1010 c1        1 A9U     -0.076000
      6 N3          5.0470   -1.8740   -2.2860 n2        1 A9U     -0.187000
      7 C4          6.2870   -2.4050   -2.1830 c1        1 A9U     -0.045500
      8 N4          5.8410   -1.3290   -0.3210 n2        1 A9U     -0.187000
      9 C5          4.7770   -1.2080   -1.1300 c1        1 A9U      0.079000
     10 C6          6.7840   -2.0720   -0.9690 c1        1 A9U     -0.045500
     11 C7          8.1020   -2.4610   -0.6100 c1        1 A9U     -0.080000
     12 C8          8.8870   -3.1900   -1.5110 c2        1 A9U     -0.130000
     13 C9          3.4340   -0.6050   -0.6710 c1        1 A9U     -0.077000
     14 C10         2.4830   -1.4140   -0.0520 c2        1 A9U     -0.050000
     15 C11         1.2500   -0.8800    0.3180 c1        1 A9U     -0.165000
     16 C12         0.9700    0.4540    0.0720 c1        1 A9U      0.104000
     17 C13         1.9300    1.2660   -0.5520 c1        1 A9U     -0.212000
     18 C14         3.1540    0.7350   -0.9200 c1        1 A9U     -0.077000
     19 C20        -4.9740    1.1390   -0.2830 c3        1 A9U     -0.074500
     20 C19        -3.5920    1.6370   -0.7030 c3        1 A9U     -0.187500
     21 C18        -2.4180    0.8250   -0.1060 c3        1 A9U     -0.107000
     22 C17        -2.7680    0.8210    1.4300 c3        1 A9U     -0.187500
     23 C16        -4.1830    0.3630    1.7440 c3        1 A9U     -0.074500
     24 NBH        -5.1450    1.0580    1.0800 n3        1 A9U     -0.243000
     25 CAS        -1.1770    1.4770   -0.3420 c3        1 A9U     -0.021000
     26 OAB         8.6920   -4.4900   -4.9510 o         1 A9U     -0.377000
     27 C22        -6.6120    2.5390    2.3380 c1        1 A9U     -0.080000
     28 C23        -6.6650    3.0240    3.6310 c1        1 A9U     -0.131000
     29 C24        -7.8740    3.0540    4.3130 c1        1 A9U     -0.131000
     30 C25        -9.0230    2.5980    3.7030 c1        1 A9U     -0.131000
     31 C26        -8.9730    2.1120    2.4110 c1        1 A9U     -0.131000
     32 C21        -5.2510    2.3840    1.6310 c3        1 A9U     -0.036000
     33 C27        -7.7620    2.0830    1.7260 c1        1 A9U     -0.108000
     34 H25        -9.8560    2.6190    4.1750 ha        1 A9U      0.130500
     35 H23        -5.8630    3.3410    4.0580 ha        1 A9U      0.130500
     36 H24        -7.9090    3.3900    5.2060 ha        1 A9U      0.130500
     37 H26        -9.7900    1.7880    1.9770 ha        1 A9U      0.130500
     38 H21        -5.1810    3.0500    0.9060 h1        1 A9U      0.077000
     39 H22        -4.5210    2.5290    2.2850 h1        1 A9U      0.077000
     40 H27        -7.7250    1.7320    0.7930 ha        1 A9U      0.145000
     41 H11N       10.9420   -4.6230   -2.6600 hn        1 A9U      0.227000
     42 H12N       11.0860   -5.1680   -4.2000 hn        1 A9U      0.227000
     43 HAS1       -0.8570    1.2500   -1.2280 h1        1 A9U      0.081500
     44 HAS2       -1.3010    2.4410   -0.2780 h1        1 A9U      0.081500
     45 H3          6.7490   -3.3360   -4.0090 ha        1 A9U      0.159000
     46 H8          9.7930   -3.4300   -1.2770 ha        1 A9U      0.134000
     47 HA          4.4820   -1.9500   -3.0120 DU        1 A9U      0.260000
     48 H7          8.4650   -2.2180    0.2770 ha        1 A9U      0.152000
     49 H10         2.6820   -2.3670    0.1240 ha        1 A9U      0.160000
     50 H14         3.8240    1.3040   -1.3550 ha        1 A9U      0.132000
     51 H11         0.5830   -1.4480    0.7530 ha        1 A9U      0.156000
     52 H13         1.7360    2.2020   -0.7260 ha        1 A9U      0.142000
     53 H161       -4.2610   -0.5600    1.5170 h1        1 A9U      0.095750
     54 H162       -4.3320    0.4610    2.6850 h1        1 A9U      0.095750
     55 H171       -2.6500    1.7260    1.7780 hc        1 A9U      0.088250
     56 H172       -2.1140    0.2010    1.9090 hc        1 A9U      0.088250
     57 H18        -2.4080   -0.1140   -0.4750 hc        1 A9U      0.111000
     58 H191       -3.4970    2.5930   -0.4160 hc        1 A9U      0.088250
     59 H192       -3.5300    1.5960   -1.7070 hc        1 A9U      0.088250
     60 H201       -5.1170    0.2280   -0.6760 h1        1 A9U      0.095750
     61 H202       -5.6730    1.7690   -0.6600 h1        1 A9U      0.095750
@<TRIPOS>BOND
     1    1    4 1   
     2    1   26 1   
     3    2   41 1   
     4    2   42 1   
     5    3   16 1   
     6    3   25 1   
     7    4    5 1   
     8    4   12 1   
     9    5   45 1   
    10    6    7 1   
    11    6    9 1   
    12    7   10 1   
    13    8    9 1   
    14    8   10 1   
    15   11   12 1   
    16   11   48 1   
    17   12   46 1   
    18   13   14 1   
    19   13   18 1   
    20   14   15 1   
    21   14   49 1   
    22   15   51 1   
    23   16   17 1   
    24   17   52 1   
    25   18   50 1   
    26   19   20 1   
    27   19   24 1   
    28   19   60 1   
    29   19   61 1   
    30   20   21 1   
    31   20   58 1   
    32   20   59 1   
    33   21   22 1   
    34   21   25 1   
    35   21   57 1   
    36   22   23 1   
    37   22   55 1   
    38   22   56 1   
    39   23   24 1   
    40   23   53 1   
    41   23   54 1   
    42   24   32 1   
    43   25   43 1   
    44   25   44 1   
    45   27   32 1   
    46   27   33 1   
    47   28   29 1   
    48   28   35 1   
    49   29   36 1   
    50   30   31 1   
    51   30   34 1   
    52   31   37 1   
    53   32   38 1   
    54   32   39 1   
    55   33   40 1   
@<TRIPOS>SUBSTRUCTURE
     1 A9U         1 TEMP              0 ****  ****    0 ROOT
