@<TRIPOS>MOLECULE
A9V
   43    44     1     0     0
SMALL
bcc


@<TRIPOS>ATOM
      1 O1         -0.0120    0.0380    0.2060 oh        1 A9V     -0.600800
      2 C2          1.3920    0.0460   -0.0350 c3        1 A9V      0.187400
      3 C1          2.0730   -0.1030    1.3240 c3        1 A9V     -0.075400
      4 C           1.7490   -1.4540    1.9360 c3        1 A9V      0.132400
      5 O           2.4430   -1.5270    3.1720 oh        1 A9V     -0.603800
      6 C3          1.8400    1.3060   -0.7190 ca        1 A9V     -0.098300
      7 C15         2.9480    1.2710   -1.5630 ca        1 A9V     -0.149000
      8 C7          3.3700    2.4550   -2.1970 ca        1 A9V      0.129100
      9 C6          2.6880    3.6600   -1.9910 ca        1 A9V     -0.201000
     10 C5          1.5810    3.6740   -1.1420 ca        1 A9V     -0.095000
     11 C4          1.1560    2.5110   -0.5080 ca        1 A9V     -0.154000
     12 O2          4.4730    2.3040   -3.0140 os        1 A9V     -0.330900
     13 C8          4.9570    3.5000   -3.6380 c3        1 A9V      0.130400
     14 C9          6.1860    3.0910   -4.4440 c3        1 A9V     -0.067700
     15 C14         6.5260    4.1880   -5.4420 c3        1 A9V     -0.073400
     16 C13         7.7650    3.8320   -6.2380 c3        1 A9V     -0.075400
     17 C12         8.9420    3.5380   -5.3300 c3        1 A9V     -0.078400
     18 C11         8.6040    2.4560   -4.3250 c3        1 A9V     -0.075400
     19 C10         7.3670    2.8140   -3.5270 c3        1 A9V     -0.073400
     20 H1         -0.4410    0.2700   -0.6260 ho        1 A9V      0.406000
     21 H2          1.6450   -0.8420   -0.6870 h1        1 A9V      0.040700
     22 H3          3.1800    0.0000    1.1910 hc        1 A9V      0.068200
     23 H4          1.7270    0.7100    2.0120 hc        1 A9V      0.068200
     24 H5          2.0910   -2.2870    1.2640 h1        1 A9V      0.028200
     25 H6          0.6420   -1.5480    2.0990 h1        1 A9V      0.028200
     26 H7          2.1390   -2.3300    3.6090 ho        1 A9V      0.399000
     27 H8          3.5010    0.3370   -1.7410 ha        1 A9V      0.150000
     28 H9          3.0090    4.5880   -2.4830 ha        1 A9V      0.138000
     29 H10         1.0420    4.6180   -0.9720 ha        1 A9V      0.134000
     30 H11         0.2870    2.5260    0.1680 ha        1 A9V      0.146000
     31 H12         5.2210    4.2560   -2.8520 h1        1 A9V      0.040200
     32 H13         4.1600    3.9140   -4.3110 h1        1 A9V      0.040200
     33 H14         5.9410    2.1470   -5.0080 hc        1 A9V      0.068700
     34 H15         6.6940    5.1520   -4.8940 hc        1 A9V      0.043450
     35 H16         5.6630    4.3420   -6.1420 hc        1 A9V      0.043450
     36 H17         7.5530    2.9330   -6.8750 hc        1 A9V      0.041450
     37 H18         8.0220    4.6800   -6.9250 hc        1 A9V      0.041450
     38 H19         9.2360    4.4740   -4.7850 hc        1 A9V      0.039700
     39 H20         9.8200    3.2170   -5.9470 hc        1 A9V      0.039700
     40 H21         9.4680    2.3080   -3.6270 hc        1 A9V      0.041450
     41 H22         8.4340    1.4860   -4.8620 hc        1 A9V      0.041450
     42 H23         7.1010    1.9740   -2.8330 hc        1 A9V      0.043450
     43 H24         7.5750    3.7200   -2.8990 hc        1 A9V      0.043450
@<TRIPOS>BOND
     1    1    2 1   
     2    1   20 1   
     3    2    3 1   
     4    2    6 1   
     5    2   21 1   
     6    3    4 1   
     7    3   22 1   
     8    3   23 1   
     9    4    5 1   
    10    4   24 1   
    11    4   25 1   
    12    5   26 1   
    13    6    7 ar  
    14    6   11 ar  
    15    7    8 ar  
    16    7   27 1   
    17    8    9 ar  
    18    8   12 1   
    19    9   10 ar  
    20    9   28 1   
    21   10   11 ar  
    22   10   29 1   
    23   11   30 1   
    24   12   13 1   
    25   13   14 1   
    26   13   31 1   
    27   13   32 1   
    28   14   15 1   
    29   14   19 1   
    30   14   33 1   
    31   15   16 1   
    32   15   34 1   
    33   15   35 1   
    34   16   17 1   
    35   16   36 1   
    36   16   37 1   
    37   17   18 1   
    38   17   38 1   
    39   17   39 1   
    40   18   19 1   
    41   18   40 1   
    42   18   41 1   
    43   19   42 1   
    44   19   43 1   
@<TRIPOS>SUBSTRUCTURE
     1 A9V         1 TEMP              0 ****  ****    0 ROOT
