@<TRIPOS>MOLECULE
A9Z
   46    49     1     0     0
SMALL
bcc


@<TRIPOS>ATOM
      1 OP1        -3.4860    1.5220   -1.2780 o         1 A9Z     -0.916500
      2 P          -3.7770    0.1750   -0.6610 p5        1 A9Z      1.350900
      3 OP2        -2.7430   -0.8460   -1.0970 o         1 A9Z     -0.916500
      4 O5'        -3.2080    0.5410    0.9340 os        1 A9Z     -0.570200
      5 C5'        -2.0910   -0.0990    1.3900 c3        1 A9Z      0.226400
      6 C4'        -0.8110    0.7500    1.1880 c3        1 A9Z      0.056100
      7 C3'        -0.6130    1.2020   -0.2730 c3        1 A9Z      0.097100
      8 O3'        -1.0220    2.5250   -0.4720 oh        1 A9Z     -0.674800
      9 C2'         0.8870    0.9500   -0.5740 c3        1 A9Z      0.015000
     10 N1T         1.7850    2.0830   -0.3960 na        1 A9Z      0.086400
     11 C5T         1.4950    3.2720    0.2770 cc        1 A9Z     -0.156600
     12 C4T         2.6880    4.0230    0.1850 cd        1 A9Z      0.185600
     13 C6T         2.9550    5.3760    0.7020 c3        1 A9Z     -0.074700
     14 C7T         4.0600    5.3930    1.7310 c3        1 A9Z     -0.086100
     15 N3T         3.6100    3.2260   -0.5330 nd        1 A9Z     -0.384000
     16 N2T         3.0640    2.1210   -0.8490 nc        1 A9Z     -0.202800
     17 C1'         1.2250   -0.2060    0.4540 c3        1 A9Z      0.243800
     18 O4'         0.3410   -0.0420    1.5570 os        1 A9Z     -0.428600
     19 N9          1.1140   -1.5260   -0.1420 na        1 A9Z     -0.283000
     20 C4          2.1460   -2.4790   -0.1300 ca        1 A9Z      0.428800
     21 C5          1.5820   -3.6670   -0.7710 ca        1 A9Z     -0.192200
     22 N7          0.2510   -3.4230   -1.1340 nc        1 A9Z     -0.600100
     23 C8         -0.0080   -2.1620   -0.7460 cd        1 A9Z      0.465700
     24 N3          3.4370   -2.4190    0.3170 nb        1 A9Z     -0.712000
     25 C2          4.1280   -3.5570    0.0890 ca        1 A9Z      0.633900
     26 N1          3.7370   -4.7230   -0.4980 nb        1 A9Z     -0.801000
     27 C6          2.4350   -4.8010   -0.9220 ca        1 A9Z      0.682200
     28 N6          1.9210   -5.9940   -1.4380 nh        1 A9Z     -0.927500
     29 OP3        -5.1850   -0.2800   -0.4880 o         1 A9Z     -0.916500
     30 H2         -2.1890   -0.2670    2.5030 h1        1 A9Z      0.004200
     31 H3         -1.9460   -1.0960    0.8870 h1        1 A9Z      0.004200
     32 H4         -0.8080    1.6310    1.8820 h1        1 A9Z      0.045700
     33 H5         -1.2330    0.5080   -0.9470 h1        1 A9Z      0.164700
     34 H6         -1.9860    2.4550   -0.7370 ho        1 A9Z      0.517000
     35 H7          0.9990    0.5980   -1.6380 h1        1 A9Z      0.098700
     36 H8          0.5090    3.4820    0.7030 h4        1 A9Z      0.229000
     37 H9          3.2300    6.0560   -0.1490 hc        1 A9Z      0.038200
     38 H10         2.0090    5.7760    1.1580 hc        1 A9Z      0.038200
     39 H11         5.0150    5.0200    1.2880 hc        1 A9Z      0.027367
     40 H12         4.2220    6.4330    2.1040 hc        1 A9Z      0.027367
     41 H13         3.8000    4.7410    2.5990 hc        1 A9Z      0.027367
     42 H14         2.2650   -0.1170    0.8860 h2        1 A9Z      0.100700
     43 H15        -1.0140   -1.6430   -0.8820 h5        1 A9Z      0.213800
     44 H16         5.1830   -3.5450    0.4300 h5        1 A9Z      0.025100
     45 H17         1.0730   -5.8790   -1.9470 hn        1 A9Z      0.404800
     46 H18         2.5810   -6.6060   -1.8600 hn        1 A9Z      0.404800
@<TRIPOS>BOND
     1    1    2 1   
     2    2    3 1   
     3    2    4 1   
     4    2   29 1   
     5    4    5 1   
     6    5    6 1   
     7    5   30 1   
     8    5   31 1   
     9    6    7 1   
    10    6   18 1   
    11    6   32 1   
    12    7    8 1   
    13    7    9 1   
    14    7   33 1   
    15    8   34 1   
    16    9   10 1   
    17    9   17 1   
    18    9   35 1   
    19   10   11 1   
    20   10   16 1   
    21   11   12 2   
    22   11   36 1   
    23   12   13 1   
    24   12   15 1   
    25   13   14 1   
    26   13   37 1   
    27   13   38 1   
    28   14   39 1   
    29   14   40 1   
    30   14   41 1   
    31   15   16 2   
    32   17   18 1   
    33   17   19 1   
    34   17   42 1   
    35   19   20 1   
    36   19   23 1   
    37   20   21 ar  
    38   20   24 ar  
    39   21   22 1   
    40   21   27 ar  
    41   22   23 2   
    42   23   43 1   
    43   24   25 ar  
    44   25   26 ar  
    45   25   44 1   
    46   26   27 ar  
    47   27   28 1   
    48   28   45 1   
    49   28   46 1   
@<TRIPOS>SUBSTRUCTURE
     1 A9Z         1 TEMP              0 ****  ****    0 ROOT
