@<TRIPOS>MOLECULE
A9Z
   46    41     1     0     0
SMALL
bcc


@<TRIPOS>ATOM
      1 OP1        -1.4110    3.6030    6.2810 o         1 A9Z     -1.236000
      2 P          -1.3560    3.9220    4.8110 p3        1 A9Z      2.543000
      3 OP2        -0.1630    4.8380    4.5300 o         1 A9Z     -1.236000
      4 O5'        -1.2010    2.5840    3.9930 o         1 A9Z     -0.732000
      5 C5'        -0.8130    2.6570    2.6070 c3        1 A9Z      0.076000
      6 C4'        -0.6170    1.2060    2.0510 c3        1 A9Z     -0.055000
      7 C3'         0.8600    1.0060    1.5610 c3        1 A9Z     -0.014000
      8 O3'         1.4990    0.2040    2.3640 oh        1 A9Z     -0.402000
      9 C2'         0.7450    0.3630    0.1190 c3        1 A9Z     -0.005000
     10 N1T         1.6420   -0.8500    0.0110 n3        1 A9Z     -0.127000
     11 C5T         2.8290   -0.8990   -0.6000 c1        1 A9Z     -0.067000
     12 C4T         3.2880   -2.2110   -0.5410 c1        1 A9Z     -0.237000
     13 C6T         4.6480   -2.7090   -1.0190 c2        1 A9Z     -0.059000
     14 C7T         4.6470   -4.2370   -1.0550 c3        1 A9Z     -0.204000
     15 N3T         2.3730   -2.9350    0.1050 n2        1 A9Z     -0.121000
     16 N2T         1.3450   -2.1050    0.4550 n2        1 A9Z     -0.033000
     17 C1'        -0.4780    0.0120    0.0110 c3        1 A9Z      0.152000
     18 O4'        -1.3430    1.0260    1.0120 os        1 A9Z     -0.285000
     19 N9         -0.9140    0.1620   -1.3300 n3        1 A9Z     -0.200000
     20 C4         -2.2770    0.2890   -1.5160 c1        1 A9Z      0.023500
     21 C5         -2.5750   -0.1700   -2.7570 c1        1 A9Z     -0.201000
     22 N7         -1.3970   -0.5840   -3.3520 n1        1 A9Z     -0.179500
     23 C8         -0.3800   -0.3760   -2.4650 c1        1 A9Z      0.023500
     24 N3         -3.2670    0.7920   -0.7170 n1        1 A9Z     -0.179500
     25 C2         -4.5670    0.8350   -1.1700 c1        1 A9Z     -0.029000
     26 N1         -4.8750    0.3710   -2.4280 n1        1 A9Z     -0.275000
     27 C6         -3.9040   -0.1260   -3.2200 c1        1 A9Z      0.161000
     28 N6         -4.4490   -0.7980   -4.4050 n3        1 A9Z     -0.325000
     29 OP3        -2.6350    4.6180    4.4030 o         1 A9Z     -1.236000
     30 H2          0.0350    3.1590    2.5260 h1        1 A9Z      0.043500
     31 H3         -1.5300    3.1250    2.0810 h1        1 A9Z      0.043500
     32 H4         -0.8360    0.5560    2.7280 h1        1 A9Z      0.085000
     33 H5          1.3370    1.9030    1.5090 h1        1 A9Z      0.204000
     34 H6          1.8880    0.6680    2.9870 ho        1 A9Z      0.316000
     35 H7          0.9810    1.0370   -0.5850 h1        1 A9Z      0.138000
     36 H8          3.2930   -0.1470   -1.0130 DU        1 A9Z      0.286000
     37 H9          5.3370   -2.4020   -0.4120 ha        1 A9Z      0.077500
     38 H10         4.8250   -2.3630   -1.9130 ha        1 A9Z      0.077500
     39 H11         4.4900   -4.5810   -0.1670 hc        1 A9Z      0.066667
     40 H12         3.9500   -4.5450   -1.6460 hc        1 A9Z      0.066667
     41 H13         5.5200   -4.5590   -1.3820 hc        1 A9Z      0.066667
     42 H14        -0.5900   -0.9430    0.3050 h2        1 A9Z      0.140000
     43 H15         0.5830   -0.5340   -2.6360 DU        1 A9Z      0.286000
     44 H16        -5.2850    1.2010   -0.5860 ha        1 A9Z      0.162000
     45 H17        -3.8840   -1.0670   -5.0820 hn        1 A9Z      0.200000
     46 H18        -5.3670   -0.9990   -4.4510 hn        1 A9Z      0.200000
@<TRIPOS>BOND
     1    1    2 1   
     2    2    3 1   
     3    2   29 1   
     4    4    5 1   
     5    5    6 1   
     6    5   30 1   
     7    5   31 1   
     8    6    7 1   
     9    6   18 1   
    10    6   32 1   
    11    7    8 1   
    12    7    9 1   
    13    7   33 1   
    14    8   34 1   
    15    9   10 1   
    16    9   17 1   
    17    9   35 1   
    18   10   11 1   
    19   10   16 1   
    20   11   12 1   
    21   12   15 1   
    22   13   14 1   
    23   13   37 1   
    24   13   38 1   
    25   14   39 1   
    26   14   40 1   
    27   14   41 1   
    28   15   16 1   
    29   17   18 1   
    30   17   19 1   
    31   17   42 1   
    32   19   20 1   
    33   19   23 1   
    34   20   24 1   
    35   21   27 1   
    36   22   23 1   
    37   25   26 1   
    38   25   44 1   
    39   27   28 1   
    40   28   45 1   
    41   28   46 1   
@<TRIPOS>SUBSTRUCTURE
     1 A9Z         1 TEMP              0 ****  ****    0 ROOT
