@<TRIPOS>MOLECULE
AA
   26    28     1     0     0
SMALL
bcc


@<TRIPOS>ATOM
      1 C1          0.0600   -0.0300   -0.0370 ca        1 AA      -0.066000
      2 C2          1.4360   -0.0440   -0.0400 ca        1 AA      -0.138000
      3 C3          2.1510   -0.0440    1.1760 ca        1 AA      -0.022000
      4 C4          1.4810   -0.0290    2.3780 ca        1 AA      -0.184000
      5 C5         -2.6150    0.0320    4.9740 ca        1 AA      -0.184000
      6 C6         -3.9880    0.0470    5.0670 ca        1 AA      -0.022000
      7 C7         -4.7830    0.0480    3.9010 ca        1 AA      -0.138000
      8 C8         -4.1920    0.0330    2.6590 ca        1 AA      -0.066000
      9 C9         -2.1250    0.0010    1.2180 ca        1 AA       0.363600
     10 N10        -0.6060    0.0010    3.6140 na        1 AA      -0.198100
     11 C11        -1.9840    0.0160    3.6940 ca        1 AA       0.117700
     12 C12        -2.7790    0.0170    2.5110 ca        1 AA      -0.176000
     13 C13        -0.6760   -0.0140    1.1780 ca        1 AA      -0.176000
     14 C14         0.0550   -0.0140    2.4020 ca        1 AA       0.117700
     15 N9         -2.8450    0.0010    0.0820 nh        1 AA      -0.784200
     16 H1         -0.4550   -0.0310   -1.0100 ha        1 AA       0.143000
     17 H2          1.9920   -0.0560   -0.9930 ha        1 AA       0.170000
     18 H3          3.2550   -0.0560    1.1560 ha        1 AA       0.171000
     19 H4          2.0460   -0.0290    3.3250 ha        1 AA       0.165000
     20 H5         -2.0000    0.0310    5.8890 ha        1 AA       0.165000
     21 H6         -4.4770    0.0590    6.0570 ha        1 AA       0.171000
     22 H7         -5.8810    0.0600    3.9970 ha        1 AA       0.170000
     23 H8         -4.8530    0.0340    1.7780 ha        1 AA       0.143000
     24 H10        -0.0700    0.0010    4.4590 hn        1 AA       0.324700
     25 H91        -2.4050   -0.0100   -0.8100 hn        1 AA       0.466800
     26 H92        -3.8400    0.0120    0.1000 hn        1 AA       0.466800
@<TRIPOS>BOND
     1    1    2 ar  
     2    1   13 ar  
     3    1   16 1   
     4    2    3 ar  
     5    2   17 1   
     6    3    4 ar  
     7    3   18 1   
     8    4   14 ar  
     9    4   19 1   
    10    5    6 ar  
    11    5   11 ar  
    12    5   20 1   
    13    6    7 ar  
    14    6   21 1   
    15    7    8 ar  
    16    7   22 1   
    17    8   12 ar  
    18    8   23 1   
    19    9   12 ar  
    20    9   13 ar  
    21    9   15 1   
    22   10   11 2   
    23   10   14 1   
    24   10   24 1   
    25   11   12 ar  
    26   13   14 ar  
    27   15   25 1   
    28   15   26 1   
@<TRIPOS>SUBSTRUCTURE
     1 AA          1 TEMP              0 ****  ****    0 ROOT
