@<TRIPOS>MOLECULE
AA
   26    21     1     0     0
SMALL
bcc


@<TRIPOS>ATOM
      1 C1          1.5350   -0.0030   -2.1860 c1        1 AA      -0.037500
      2 C2          2.9250   -0.0030   -2.1860 c1        1 AA      -0.037500
      3 C3          3.6220   -0.0030   -0.9790 c1        1 AA      -0.037500
      4 C4          2.9280   -0.0030    0.2250 c1        1 AA      -0.037500
      5 C5         -1.2610   -0.0030    2.6520 c1        1 AA      -0.067500
      6 C6         -2.6510   -0.0030    2.6540 c1        1 AA      -0.037500
      7 C7         -3.3500   -0.0030    1.4490 c1        1 AA      -0.037500
      8 C8         -2.6590   -0.0030    0.2430 c1        1 AA      -0.067500
      9 C9         -0.5580   -0.0030   -0.9650 c1        1 AA       0.282000
     10 N10         0.8280   -0.0030    1.4290 n2        1 AA      -0.661800
     11 C11        -0.5590   -0.0030    1.4310 cg        1 AA      -0.017000
     12 C12        -1.2510   -0.0030    0.2390 cg        1 AA      -0.017000
     13 C13         0.8310   -0.0030   -0.9670 c1        1 AA      -0.176000
     14 C14         1.5210   -0.0030    0.2270 c1        1 AA       0.362400
     15 N9         -1.2770    0.0210   -2.1890 n3        1 AA      -0.392400
     16 H1          1.0470   -0.0030   -3.0310 ha        1 AA       0.107500
     17 H2          3.4130   -0.0030   -3.0310 ha        1 AA       0.107500
     18 H3          4.5980   -0.0030   -0.9800 ha        1 AA       0.107500
     19 H4          3.4170   -0.0030    1.0700 ha        1 AA       0.107500
     20 H5         -0.7710   -0.0030    3.4960 ha        1 AA       0.096500
     21 H6         -3.1370   -0.0030    3.5010 ha        1 AA       0.107500
     22 H7         -4.3260   -0.0030    1.4510 ha        1 AA       0.107500
     23 H8         -3.1490   -0.0030   -0.6010 ha        1 AA       0.096500
     24 H10         1.2850   -0.0030    2.2180 hn        1 AA       0.519400
     25 H91        -1.4940    0.8190   -2.5740 hn        1 AA       0.311700
     26 H92        -1.5080   -0.7610   -2.5980 hn        1 AA       0.311700
@<TRIPOS>BOND
     1    1    2 3   
     2    1   16 1   
     3    2   17 1   
     4    3    4 3   
     5    3   18 1   
     6    4   19 1   
     7    5   11 3   
     8    5   20 1   
     9    6    7 3   
    10    6   21 1   
    11    7   22 1   
    12    8   12 3   
    13    8   23 1   
    14    9   13 2   
    15    9   15 2   
    16   10   14 2   
    17   10   24 1   
    18   11   12 1   
    19   13   14 2   
    20   15   25 1   
    21   15   26 1   
@<TRIPOS>SUBSTRUCTURE
     1 AA          1 TEMP              0 ****  ****    0 ROOT
