@<TRIPOS>MOLECULE
AA
   26    28     1     0     0
SMALL
bcc


@<TRIPOS>ATOM
      1 C1         -2.5180    1.1760   -0.0000 ca        1 AA      -0.066000
      2 C2         -3.6820    0.4430    0.0000 ca        1 AA      -0.138000
      3 C3         -3.6350   -0.9680   -0.0000 ca        1 AA      -0.022000
      4 C4         -2.4250   -1.6240   -0.0010 ca        1 AA      -0.184000
      5 C5          2.4250   -1.6240   -0.0010 ca        1 AA      -0.184000
      6 C6          3.6350   -0.9680   -0.0000 ca        1 AA      -0.022000
      7 C7          3.6820    0.4430    0.0000 ca        1 AA      -0.138000
      8 C8          2.5180    1.1760    0.0000 ca        1 AA      -0.066000
      9 C9          0.0000    1.2860   -0.0010 ca        1 AA       0.363600
     10 N10         0.0000   -1.5510   -0.0010 na        1 AA      -0.198100
     11 C11         1.2070   -0.8810   -0.0010 ca        1 AA       0.117700
     12 C12         1.2450    0.5440   -0.0010 ca        1 AA      -0.176000
     13 C13        -1.2450    0.5440   -0.0010 ca        1 AA      -0.176000
     14 C14        -1.2070   -0.8810   -0.0010 ca        1 AA       0.117700
     15 N9          0.0000    2.6310   -0.0020 nh        1 AA      -0.784200
     16 H1         -2.6040    2.2740    0.0000 ha        1 AA       0.143000
     17 H2         -4.6610    0.9490    0.0010 ha        1 AA       0.170000
     18 H3         -4.5770   -1.5420   -0.0000 ha        1 AA       0.171000
     19 H4         -2.3950   -2.7270   -0.0010 ha        1 AA       0.165000
     20 H5          2.3950   -2.7270   -0.0010 ha        1 AA       0.165000
     21 H6          4.5770   -1.5420    0.0000 ha        1 AA       0.171000
     22 H7          4.6610    0.9490    0.0010 ha        1 AA       0.170000
     23 H8          2.6040    2.2740    0.0010 ha        1 AA       0.143000
     24 H10         0.0000   -2.5510   -0.0010 hn        1 AA       0.324700
     25 H91         0.8500    3.1490   -0.0020 hn        1 AA       0.466800
     26 H92        -0.8500    3.1490   -0.0020 hn        1 AA       0.466800
@<TRIPOS>BOND
     1    1    2 ar  
     2    1   13 ar  
     3    1   16 1   
     4    2    3 ar  
     5    2   17 1   
     6    3    4 ar  
     7    3   18 1   
     8    4   14 ar  
     9    4   19 1   
    10    5    6 ar  
    11    5   11 ar  
    12    5   20 1   
    13    6    7 ar  
    14    6   21 1   
    15    7    8 ar  
    16    7   22 1   
    17    8   12 ar  
    18    8   23 1   
    19    9   12 ar  
    20    9   13 ar  
    21    9   15 1   
    22   10   11 2   
    23   10   14 1   
    24   10   24 1   
    25   11   12 ar  
    26   13   14 ar  
    27   15   25 1   
    28   15   26 1   
@<TRIPOS>SUBSTRUCTURE
     1 AA          1 TEMP              0 ****  ****    0 ROOT
