@<TRIPOS>MOLECULE
AA
   27    29     1     0     0
SMALL
bcc


@<TRIPOS>ATOM
      1 C1          0.0710   -0.0210   -0.0370 ca        1 AA      -0.150000
      2 C2          1.4400   -0.0260   -0.0340 ca        1 AA      -0.041000
      3 C3          2.1640   -0.0030    1.1930 ca        1 AA      -0.006000
      4 C4          1.5020    0.0150    2.3920 ca        1 AA      -0.156000
      5 C5         -2.6130    0.0130    4.9860 ca        1 AA      -0.156000
      6 C6         -3.9800   -0.0060    5.0670 ca        1 AA      -0.006000
      7 C7         -4.7750   -0.0300    3.8850 ca        1 AA      -0.041000
      8 C8         -4.1880   -0.0240    2.6470 ca        1 AA      -0.150000
      9 C9         -2.0870    0.0340    1.2600 ca        1 AA       0.088600
     10 N10        -0.6000    0.0260    3.6180 na        1 AA      -0.074100
     11 C11        -1.9680    0.0150    3.7050 ca        1 AA       0.088700
     12 C12        -2.7670    0.0090    2.4990 ca        1 AA      -0.051000
     13 C13        -0.6760    0.0100    1.1810 ca        1 AA      -0.051000
     14 C14         0.0680    0.0160    2.4210 ca        1 AA       0.088700
     15 N9         -2.8690    0.0870    0.0200 n4        1 AA      -0.726000
     16 H1         -0.4430   -0.0600   -1.0120 ha        1 AA       0.152000
     17 H2          2.0070   -0.0520   -0.9850 ha        1 AA       0.202000
     18 H3          3.2720   -0.0020    1.1630 ha        1 AA       0.208000
     19 H4          2.0700    0.0270    3.3410 ha        1 AA       0.195000
     20 H5         -2.0010    0.0240    5.9080 ha        1 AA       0.195000
     21 H6         -4.4850   -0.0070    6.0540 ha        1 AA       0.208000
     22 H7         -5.8780   -0.0570    3.9860 ha        1 AA       0.202000
     23 H8         -4.8450   -0.0630    1.7640 ha        1 AA       0.152000
     24 H10        -0.0600    0.0370    4.4750 hn        1 AA       0.358700
     25 H91        -3.0720   -0.8720   -0.3030 hn        1 AA       0.489467
     26 H92        -3.7580    0.5850    0.1780 hn        1 AA       0.489467
     27 H93        -2.3430    0.5860   -0.7140 hn        1 AA       0.489467
@<TRIPOS>BOND
     1    1    2 ar  
     2    1   13 ar  
     3    1   16 1   
     4    2    3 ar  
     5    2   17 1   
     6    3    4 ar  
     7    3   18 1   
     8    4   14 ar  
     9    4   19 1   
    10    5    6 ar  
    11    5   11 ar  
    12    5   20 1   
    13    6    7 ar  
    14    6   21 1   
    15    7    8 ar  
    16    7   22 1   
    17    8   12 ar  
    18    8   23 1   
    19    9   12 ar  
    20    9   13 ar  
    21    9   15 1   
    22   10   11 2   
    23   10   14 1   
    24   10   24 1   
    25   11   12 ar  
    26   13   14 ar  
    27   15   25 1   
    28   15   26 1   
    29   15   27 1   
@<TRIPOS>SUBSTRUCTURE
     1 AA          1 TEMP              0 ****  ****    0 ROOT
