@<TRIPOS>MOLECULE
AA0
   73    78     1     0     0
SMALL
bcc


@<TRIPOS>ATOM
      1 C3         -0.4830   -0.1670   -0.1080 ca        1 AA0     -0.149000
      2 C4          0.8050   -0.6680   -0.0730 ca        1 AA0     -0.093000
      3 C5          1.5750   -0.5970    1.1090 ca        1 AA0      0.141400
      4 N6          2.8810   -1.1050    1.1480 nc        1 AA0     -0.605100
      5 C9          1.7560    0.0930    3.5130 c         1 AA0      0.712100
      6 N10         3.0780   -0.4090    3.4600 n         1 AA0     -0.322500
      7 C11         3.9290   -0.4370    4.6050 ca        1 AA0      0.052600
      8 C12         4.3210   -1.6900    5.1180 ca        1 AA0     -0.151000
      9 C13         5.1770   -1.7700    6.2310 ca        1 AA0      0.065600
     10 N14         5.5820   -2.9970    6.7850 n         1 AA0     -0.469100
     11 C15         5.5960   -4.2260    6.1410 c         1 AA0      0.676700
     12 O16         5.2300   -4.3790    4.9620 o         1 AA0     -0.577100
     13 C17         6.1010   -5.3780    6.9520 ca        1 AA0     -0.087600
     14 C18         5.7540   -5.5470    8.2950 ca        1 AA0     -0.260300
     15 C19         6.2630   -6.6760    8.9590 ca        1 AA0      0.424200
     16 N20         7.0680   -7.5900    8.3980 nb        1 AA0     -0.699000
     17 C21         7.3980   -7.4340    7.0760 ca        1 AA0      0.621200
     18 C22         6.9140   -6.3190    6.3220 ca        1 AA0     -0.220300
     19 N23         8.1590   -8.4280    6.3980 nh        1 AA0     -0.728300
     20 C28         8.4390   -9.6580    7.1310 c3        1 AA0      0.150300
     21 C27         9.1340  -10.7010    6.2450 c3        1 AA0      0.122400
     22 O26        10.2950  -10.1700    5.6160 os        1 AA0     -0.412600
     23 C25        10.0010   -9.0130    4.8440 c3        1 AA0      0.122400
     24 C24         9.3310   -7.9220    5.6920 c3        1 AA0      0.150300
     25 C29         5.6230   -0.5700    6.8350 ca        1 AA0     -0.168000
     26 C30         5.2280    0.6550    6.3220 ca        1 AA0     -0.104000
     27 C31         4.3930    0.7550    5.2030 ca        1 AA0     -0.065300
     28 C20         3.5390   -1.0050    2.2740 cd        1 AA0      0.489800
     29 C32         4.0150    2.0910    4.6910 c3        1 AA0     -0.062800
     30 C33         0.9820   -0.0000    2.2520 ca        1 AA0     -0.159600
     31 C34        -0.3230    0.4910    2.2180 ca        1 AA0     -0.101000
     32 C35        -1.0860    0.4210    1.0350 ca        1 AA0      0.124600
     33 C41        -3.2170    0.5550   -0.1430 c3        1 AA0      0.152300
     34 C40        -4.7110    0.9140    0.0310 c3        1 AA0      0.159800
     35 N31        -2.4360    0.8510    1.0450 nh        1 AA0     -0.632000
     36 N39        -4.9730    2.2510    0.5370 n3        1 AA0     -0.719600
     37 C38        -4.1660    2.5190    1.7150 c3        1 AA0      0.159800
     38 O39         1.2990    0.5850    4.5600 o         1 AA0     -0.612500
     39 C37        -2.6630    2.1870    1.5770 c3        1 AA0      0.152300
     40 C43        -4.8880    3.2820   -0.4740 c3        1 AA0      0.147100
     41 H3         -1.0390   -0.2370   -1.0560 ha        1 AA0      0.138000
     42 H4          1.2390   -1.1260   -0.9770 ha        1 AA0      0.153000
     43 H20         4.5700   -1.4220    2.3170 h5        1 AA0      0.064800
     44 H12         3.9530   -2.6150    4.6390 ha        1 AA0      0.177000
     45 H14         5.9780   -2.9500    7.6980 hn        1 AA0      0.323500
     46 H29         6.2840   -0.5980    7.7140 ha        1 AA0      0.134000
     47 H18         5.0910   -4.8490    8.8210 ha        1 AA0      0.150000
     48 H22         7.1410   -6.2100    5.2510 ha        1 AA0      0.169000
     49 H19         6.0160   -6.8620   10.0210 h4        1 AA0      0.028100
     50 H281        9.0900   -9.4610    8.0310 h1        1 AA0      0.055450
     51 H282        7.4630  -10.0890    7.4870 h1        1 AA0      0.055450
     52 H241        9.0160   -7.0880    5.0070 h1        1 AA0      0.055450
     53 H242       10.0940   -7.5150    6.4170 h1        1 AA0      0.055450
     54 H271        8.4310  -11.0950    5.4650 h1        1 AA0      0.058450
     55 H272        9.5190  -11.5410    6.8800 h1        1 AA0      0.058450
     56 H251        9.3510   -9.2940    3.9740 h1        1 AA0      0.058450
     57 H252       10.9990   -8.6530    4.4820 h1        1 AA0      0.058450
     58 H30         5.5850    1.5790    6.8050 ha        1 AA0      0.140000
     59 H321        4.5450    2.9020    5.2470 hc        1 AA0      0.055033
     60 H322        2.9100    2.2470    4.8080 hc        1 AA0      0.055033
     61 H323        4.2710    2.1860    3.6060 hc        1 AA0      0.055033
     62 H34        -0.7390    0.9180    3.1470 ha        1 AA0      0.163000
     63 H371       -2.2010    2.2540    2.6000 h1        1 AA0      0.042200
     64 H372       -2.1760    2.9690    0.9240 h1        1 AA0      0.042200
     65 H381       -4.5990    1.9040    2.5540 h1        1 AA0      0.061950
     66 H382       -4.2520    3.6050    1.9930 h1        1 AA0      0.061950
     67 H431       -5.6040    3.0370   -1.3010 h1        1 AA0      0.032700
     68 H432       -3.8600    3.3970   -0.9140 h1        1 AA0      0.032700
     69 H433       -5.1910    4.2610   -0.0180 h1        1 AA0      0.032700
     70 H402       -5.1760    0.1920    0.7610 h1        1 AA0      0.061950
     71 H411       -2.8200    1.1030   -1.0470 h1        1 AA0      0.042200
     72 H412       -3.1480   -0.5510   -0.3410 h1        1 AA0      0.042200
     73 H401       -5.2130    0.7810   -0.9660 h1        1 AA0      0.061950
@<TRIPOS>BOND
     1    1    2 ar  
     2    1   32 ar  
     3    1   41 1   
     4    2    3 ar  
     5    2   42 1   
     6    3    4 1   
     7    3   30 ar  
     8    4   28 2   
     9    5    6 1   
    10    5   30 1   
    11    5   38 2   
    12    6    7 1   
    13    6   28 1   
    14    7    8 ar  
    15    7   27 ar  
    16    8    9 ar  
    17    8   44 1   
    18    9   10 1   
    19    9   25 ar  
    20   10   11 1   
    21   10   45 1   
    22   11   12 2   
    23   11   13 1   
    24   13   14 ar  
    25   13   18 ar  
    26   14   15 ar  
    27   14   47 1   
    28   15   16 ar  
    29   15   49 1   
    30   16   17 ar  
    31   17   18 ar  
    32   17   19 1   
    33   18   48 1   
    34   19   20 1   
    35   19   24 1   
    36   20   21 1   
    37   20   50 1   
    38   20   51 1   
    39   21   22 1   
    40   21   54 1   
    41   21   55 1   
    42   22   23 1   
    43   23   24 1   
    44   23   56 1   
    45   23   57 1   
    46   24   52 1   
    47   24   53 1   
    48   25   26 ar  
    49   25   46 1   
    50   26   27 ar  
    51   26   58 1   
    52   27   29 1   
    53   28   43 1   
    54   29   59 1   
    55   29   60 1   
    56   29   61 1   
    57   30   31 ar  
    58   31   32 ar  
    59   31   62 1   
    60   32   35 1   
    61   33   34 1   
    62   33   35 1   
    63   33   71 1   
    64   33   72 1   
    65   34   36 1   
    66   34   70 1   
    67   34   73 1   
    68   35   39 1   
    69   36   37 1   
    70   36   40 1   
    71   37   39 1   
    72   37   65 1   
    73   37   66 1   
    74   39   63 1   
    75   39   64 1   
    76   40   67 1   
    77   40   68 1   
    78   40   69 1   
@<TRIPOS>SUBSTRUCTURE
     1 AA0         1 TEMP              0 ****  ****    0 ROOT
