@<TRIPOS>MOLECULE
AA0
   74    79     1     0     0
SMALL
bcc


@<TRIPOS>ATOM
      1 C3          0.2730   -0.5050    0.2040 ca        1 AA0     -0.153000
      2 C4          1.6500   -0.5360    0.0690 ca        1 AA0     -0.067000
      3 C5          2.4840   -0.4830    1.2050 ca        1 AA0      0.111400
      4 N6          3.8810   -0.5150    1.0760 nc        1 AA0     -0.557100
      5 C9          2.7100   -0.3540    3.6940 c         1 AA0      0.721100
      6 N10         4.1150   -0.3180    3.4780 n         1 AA0     -0.336500
      7 C11         5.0160   -0.1840    4.5600 ca        1 AA0      0.076600
      8 C12         4.8080   -0.9740    5.7130 ca        1 AA0     -0.091000
      9 C13         5.6580   -0.8430    6.8170 ca        1 AA0     -0.054400
     10 N14         5.3750   -1.6120    8.0330 n4        1 AA0     -0.541200
     11 C15         6.0860   -2.9580    8.0360 c         1 AA0      0.575700
     12 O16         7.1260   -2.9770    8.6790 o         1 AA0     -0.420100
     13 C17         5.4570   -4.0500    7.2810 ca        1 AA0     -0.094600
     14 C18         4.0770   -4.1440    7.0810 ca        1 AA0     -0.300300
     15 C19         3.6110   -5.2690    6.3720 ca        1 AA0      0.470200
     16 N20         4.3860   -6.2320    5.8720 nb        1 AA0     -0.684000
     17 C21         5.7540   -6.1400    6.0460 ca        1 AA0      0.682200
     18 C22         6.3110   -5.0400    6.7880 ca        1 AA0     -0.253300
     19 N23         6.5820   -7.0820    5.4380 nh        1 AA0     -0.731300
     20 C28         5.9770   -8.3120    4.9430 c3        1 AA0      0.162300
     21 C27         6.9470   -9.2070    4.1640 c3        1 AA0      0.116900
     22 O26         8.1730   -9.3810    4.8610 os        1 AA0     -0.392600
     23 C25         8.8250   -8.1400    5.0720 c3        1 AA0      0.116900
     24 C24         7.9620   -7.1650    5.8860 c3        1 AA0      0.162300
     25 C29         6.7560    0.0340    6.7850 ca        1 AA0     -0.103000
     26 C30         6.9560    0.8010    5.6460 ca        1 AA0     -0.106000
     27 C31         6.0980    0.7340    4.5390 ca        1 AA0     -0.026300
     28 C20         4.6040   -0.4330    2.1550 cd        1 AA0      0.458800
     29 C32         6.3610    1.6450    3.4000 c3        1 AA0     -0.081800
     30 C33         1.8670   -0.4020    2.4810 ca        1 AA0     -0.144600
     31 C34         0.4800   -0.3790    2.6160 ca        1 AA0     -0.121000
     32 C35        -0.3560   -0.4330    1.4770 ca        1 AA0      0.164600
     33 C41        -2.5360   -0.7070    0.4180 c3        1 AA0      0.154800
     34 C40        -4.0290   -0.9790    0.7110 c3        1 AA0      0.161800
     35 N31        -1.7520   -0.5070    1.6260 nh        1 AA0     -0.638000
     36 N39        -4.6600   -0.0580    1.6370 n3        1 AA0     -0.718600
     37 C38        -3.8570    0.0920    2.8360 c3        1 AA0      0.161800
     38 O39         2.2640   -0.3540    4.8560 o         1 AA0     -0.636500
     39 C37        -2.3580    0.3880    2.5990 c3        1 AA0      0.154800
     40 C43        -5.0650    1.1940    1.0390 c3        1 AA0      0.147100
     41 H3         -0.3330   -0.5330   -0.7160 ha        1 AA0      0.151000
     42 H4          2.0990   -0.5950   -0.9360 ha        1 AA0      0.162000
     43 H20         5.7090   -0.4730    2.0530 h5        1 AA0      0.060800
     44 H12         3.9500   -1.6730    5.7420 ha        1 AA0      0.178000
     45 H14         5.6960   -1.0660    8.8450 hn        1 AA0      0.465300
     46 H29         7.4460    0.1290    7.6390 ha        1 AA0      0.162000
     47 H18         3.3480   -3.4220    7.4670 ha        1 AA0      0.143000
     48 H22         7.3900   -4.9670    6.9870 ha        1 AA0      0.170000
     49 H19         2.5240   -5.4070    6.1980 h4        1 AA0      0.051100
     50 H281        5.1280   -8.0470    4.2500 h1        1 AA0      0.063950
     51 H282        5.5570   -8.9000    5.8100 h1        1 AA0      0.063950
     52 H241        7.9950   -7.4700    6.9720 h1        1 AA0      0.063950
     53 H242        8.4380   -6.1490    5.7820 h1        1 AA0      0.063950
     54 H271        7.1440   -8.7870    3.1430 h1        1 AA0      0.070200
     55 H272        6.5190  -10.2420    4.0800 h1        1 AA0      0.070200
     56 H251        9.1050   -7.6830    4.0860 h1        1 AA0      0.070200
     57 H252        9.7490   -8.3990    5.6550 h1        1 AA0      0.070200
     58 H30         7.8090    1.5030    5.6180 ha        1 AA0      0.170000
     59 H321        5.4200    1.9400    2.8730 hc        1 AA0      0.072367
     60 H322        7.0440    1.1530    2.6610 hc        1 AA0      0.072367
     61 H323        6.8610    2.5820    3.7550 hc        1 AA0      0.072367
     62 H34         0.0610   -0.3310    3.6350 ha        1 AA0      0.163000
     63 H371       -2.2460    1.4620    2.2690 h1        1 AA0      0.045450
     64 H372       -1.8330    0.2710    3.5860 h1        1 AA0      0.045450
     65 H381       -4.2710    0.9250    3.4680 h1        1 AA0      0.066200
     66 H382       -3.9490   -0.8700    3.4150 h1        1 AA0      0.066200
     67 H431       -5.7540    0.9780    0.1800 h1        1 AA0      0.037033
     68 H432       -4.2040    1.8100    0.6600 h1        1 AA0      0.037033
     69 H433       -5.6250    1.7950    1.8030 h1        1 AA0      0.037033
     70 H411       -2.1270   -1.6060   -0.1230 h1        1 AA0      0.045450
     71 H412       -2.4570    0.1870   -0.2670 h1        1 AA0      0.045450
     72 H401       -4.1300   -2.0100    1.1540 h1        1 AA0      0.066200
     73 H142        4.3600   -1.7560    8.1050 hn        1 AA0      0.465300
     74 H402       -4.5750   -0.9620   -0.2720 h1        1 AA0      0.066200
@<TRIPOS>BOND
     1    1    2 ar  
     2    1   32 ar  
     3    1   41 1   
     4    2    3 ar  
     5    2   42 1   
     6    3    4 1   
     7    3   30 ar  
     8    4   28 2   
     9    5    6 1   
    10    5   30 1   
    11    5   38 2   
    12    6    7 1   
    13    6   28 1   
    14    7    8 ar  
    15    7   27 ar  
    16    8    9 ar  
    17    8   44 1   
    18    9   10 1   
    19    9   25 ar  
    20   10   11 1   
    21   10   45 1   
    22   10   73 1   
    23   11   12 2   
    24   11   13 1   
    25   13   14 ar  
    26   13   18 ar  
    27   14   15 ar  
    28   14   47 1   
    29   15   16 ar  
    30   15   49 1   
    31   16   17 ar  
    32   17   18 ar  
    33   17   19 1   
    34   18   48 1   
    35   19   20 1   
    36   19   24 1   
    37   20   21 1   
    38   20   50 1   
    39   20   51 1   
    40   21   22 1   
    41   21   54 1   
    42   21   55 1   
    43   22   23 1   
    44   23   24 1   
    45   23   56 1   
    46   23   57 1   
    47   24   52 1   
    48   24   53 1   
    49   25   26 ar  
    50   25   46 1   
    51   26   27 ar  
    52   26   58 1   
    53   27   29 1   
    54   28   43 1   
    55   29   59 1   
    56   29   60 1   
    57   29   61 1   
    58   30   31 ar  
    59   31   32 ar  
    60   31   62 1   
    61   32   35 1   
    62   33   34 1   
    63   33   35 1   
    64   33   70 1   
    65   33   71 1   
    66   34   36 1   
    67   34   72 1   
    68   34   74 1   
    69   35   39 1   
    70   36   37 1   
    71   36   40 1   
    72   37   39 1   
    73   37   65 1   
    74   37   66 1   
    75   39   63 1   
    76   39   64 1   
    77   40   67 1   
    78   40   68 1   
    79   40   69 1   
@<TRIPOS>SUBSTRUCTURE
     1 AA0         1 TEMP              0 ****  ****    0 ROOT
