@<TRIPOS>MOLECULE
AA0
   73    78     1     0     0
SMALL
bcc


@<TRIPOS>ATOM
      1 C3         -0.4880   -0.1790   -0.1080 ca        1 AA0     -0.149000
      2 C4          0.8010   -0.6810   -0.0760 ca        1 AA0     -0.093000
      3 C5          1.5750   -0.6030    1.1030 ca        1 AA0      0.141400
      4 N6          2.8810   -1.1130    1.1410 nc        1 AA0     -0.605100
      5 C9          1.7650    0.0980    3.5040 c         1 AA0      0.712100
      6 N10         3.0860   -0.4060    3.4490 n         1 AA0     -0.322500
      7 C11         3.9410   -0.4300    4.5910 ca        1 AA0      0.052600
      8 C12         4.3310   -1.6810    5.1090 ca        1 AA0     -0.151000
      9 C13         5.1900   -1.7570    6.2200 ca        1 AA0      0.065600
     10 N14         5.5950   -2.9820    6.7790 ns        1 AA0     -0.469100
     11 C15         5.6010   -4.2150    6.1430 c         1 AA0      0.676700
     12 O16         5.2300   -4.3730    4.9660 o         1 AA0     -0.577100
     13 C17         6.1040   -5.3650    6.9590 ca        1 AA0     -0.087600
     14 C18         5.7640   -5.5230    8.3050 ca        1 AA0     -0.260300
     15 C19         6.2710   -6.6500    8.9730 ca        1 AA0      0.424200
     16 N20         7.0680   -7.5710    8.4140 nb        1 AA0     -0.699000
     17 C21         7.3920   -7.4260    7.0890 ca        1 AA0      0.621200
     18 C22         6.9100   -6.3140    6.3310 ca        1 AA0     -0.220300
     19 N23         8.1450   -8.4280    6.4140 nh        1 AA0     -0.728300
     20 C28         8.4220   -9.6540    7.1540 c3        1 AA0      0.150300
     21 C27         9.1080  -10.7060    6.2710 c3        1 AA0      0.122400
     22 O26        10.2680  -10.1850    5.6320 os        1 AA0     -0.412600
     23 C25         9.9750   -9.0320    4.8540 c3        1 AA0      0.122400
     24 C24         9.3150   -7.9330    5.6980 c3        1 AA0      0.150300
     25 C29         5.6410   -0.5550    6.8160 ca        1 AA0     -0.168000
     26 C30         5.2480    0.6680    6.2980 ca        1 AA0     -0.104000
     27 C31         4.4090    0.7640    5.1820 ca        1 AA0     -0.065300
     28 C20         3.5420   -1.0080    2.2640 cd        1 AA0      0.489800
     29 C32         4.0320    2.0990    4.6640 c3        1 AA0     -0.061800
     30 C33         0.9870   -0.0020    2.2450 ca        1 AA0     -0.159600
     31 C34        -0.3190    0.4900    2.2140 ca        1 AA0     -0.101000
     32 C35        -1.0860    0.4140    1.0340 ca        1 AA0      0.124600
     33 C41        -3.2220    0.5420   -0.1370 c3        1 AA0      0.152300
     34 C40        -4.7140    0.9020    0.0410 c3        1 AA0      0.159800
     35 N31        -2.4360    0.8440    1.0470 nh        1 AA0     -0.632000
     36 N39        -4.9750    2.2410    0.5400 n3        1 AA0     -0.719600
     37 C38        -4.1640    2.5150    1.7150 c3        1 AA0      0.159800
     38 O39         1.3120    0.5960    4.5490 o         1 AA0     -0.612500
     39 C37        -2.6620    2.1830    1.5730 c3        1 AA0      0.152300
     40 C43        -4.8940    3.2670   -0.4750 c3        1 AA0      0.147100
     41 H3         -1.0460   -0.2540   -1.0540 ha        1 AA0      0.138000
     42 H4          1.2320   -1.1420   -0.9790 ha        1 AA0      0.153000
     43 H20         4.5730   -1.4250    2.3060 h5        1 AA0      0.064800
     44 H12         3.9590   -2.6070    4.6360 ha        1 AA0      0.177000
     45 H14         5.9930   -2.9310    7.6900 hn        1 AA0      0.323500
     46 H29         6.3050   -0.5800    7.6940 ha        1 AA0      0.134000
     47 H18         5.1070   -4.8180    8.8300 ha        1 AA0      0.150000
     48 H22         7.1320   -6.2120    5.2580 ha        1 AA0      0.169000
     49 H19         6.0290   -6.8280   10.0380 h4        1 AA0      0.028100
     50 H281        9.0790   -9.4550    8.0490 h1        1 AA0      0.055450
     51 H282        7.4460  -10.0780    7.5180 h1        1 AA0      0.055450
     52 H241        9.0010   -7.1010    5.0090 h1        1 AA0      0.055450
     53 H242       10.0840   -7.5240    6.4160 h1        1 AA0      0.055450
     54 H271        8.3980  -11.1020    5.4970 h1        1 AA0      0.058450
     55 H272        9.4920  -11.5450    6.9090 h1        1 AA0      0.058450
     56 H251       10.9730   -8.6800    4.4840 h1        1 AA0      0.058450
     57 H252        9.3180   -9.3160    3.9900 h1        1 AA0      0.058450
     58 H30         5.6080    1.5940    6.7760 ha        1 AA0      0.140000
     59 H321        2.9280    2.2560    4.7820 hc        1 AA0      0.054700
     60 H322        4.2850    2.1880    3.5780 hc        1 AA0      0.054700
     61 H323        4.5650    2.9120    5.2150 hc        1 AA0      0.054700
     62 H34        -0.7310    0.9220    3.1420 ha        1 AA0      0.163000
     63 H371       -2.1770    2.9620    0.9150 h1        1 AA0      0.042200
     64 H372       -2.1960    2.2540    2.5940 h1        1 AA0      0.042200
     65 H381       -4.2500    3.6030    1.9880 h1        1 AA0      0.061950
     66 H382       -4.5940    1.9040    2.5580 h1        1 AA0      0.061950
     67 H431       -5.1950    4.2480   -0.0220 h1        1 AA0      0.032700
     68 H432       -3.8670    3.3800   -0.9200 h1        1 AA0      0.032700
     69 H433       -5.6130    3.0180   -1.2990 h1        1 AA0      0.032700
     70 H402       -5.1770    0.1840    0.7750 h1        1 AA0      0.061950
     71 H411       -2.8270    1.0860   -1.0460 h1        1 AA0      0.042200
     72 H412       -3.1520   -0.5650   -0.3300 h1        1 AA0      0.042200
     73 H401       -5.2200    0.7640   -0.9540 h1        1 AA0      0.061950
@<TRIPOS>BOND
     1    1    2 ar  
     2    1   32 ar  
     3    1   41 1   
     4    2    3 ar  
     5    2   42 1   
     6    3    4 1   
     7    3   30 ar  
     8    4   28 2   
     9    5    6 1   
    10    5   30 1   
    11    5   38 2   
    12    6    7 1   
    13    6   28 1   
    14    7    8 ar  
    15    7   27 ar  
    16    8    9 ar  
    17    8   44 1   
    18    9   10 1   
    19    9   25 ar  
    20   10   11 1   
    21   10   45 1   
    22   11   12 2   
    23   11   13 1   
    24   13   14 ar  
    25   13   18 ar  
    26   14   15 ar  
    27   14   47 1   
    28   15   16 ar  
    29   15   49 1   
    30   16   17 ar  
    31   17   18 ar  
    32   17   19 1   
    33   18   48 1   
    34   19   20 1   
    35   19   24 1   
    36   20   21 1   
    37   20   50 1   
    38   20   51 1   
    39   21   22 1   
    40   21   54 1   
    41   21   55 1   
    42   22   23 1   
    43   23   24 1   
    44   23   56 1   
    45   23   57 1   
    46   24   52 1   
    47   24   53 1   
    48   25   26 ar  
    49   25   46 1   
    50   26   27 ar  
    51   26   58 1   
    52   27   29 1   
    53   28   43 1   
    54   29   59 1   
    55   29   60 1   
    56   29   61 1   
    57   30   31 ar  
    58   31   32 ar  
    59   31   62 1   
    60   32   35 1   
    61   33   34 1   
    62   33   35 1   
    63   33   71 1   
    64   33   72 1   
    65   34   36 1   
    66   34   70 1   
    67   34   73 1   
    68   35   39 1   
    69   36   37 1   
    70   36   40 1   
    71   37   39 1   
    72   37   65 1   
    73   37   66 1   
    74   39   63 1   
    75   39   64 1   
    76   40   67 1   
    77   40   68 1   
    78   40   69 1   
@<TRIPOS>SUBSTRUCTURE
     1 AA0         1 TEMP              0 ****  ****    0 ROOT
