@<TRIPOS>MOLECULE
AA0
   73    70     1     0     0
SMALL
bcc


@<TRIPOS>ATOM
      1 C3         -1.6630    1.5990   -5.8730 c1        1 AA0     -0.145000
      2 C4         -0.5060    0.8310   -5.7380 c1        1 AA0     -0.097000
      3 C5          0.2110    0.8400   -4.5180 c1        1 AA0      0.004000
      4 N6          1.4180    0.0290   -4.3730 n1        1 AA0     -0.181000
      5 C9          0.5110    1.5900   -2.1490 c1        1 AA0      0.348000
      6 N10         1.6730    0.8080   -2.0120 n2        1 AA0     -0.259000
      7 C11         2.3720    0.7720   -0.7560 c2        1 AA0      0.059000
      8 C12         2.1630   -0.2850    0.1270 c1        1 AA0     -0.180000
      9 C13         2.7750   -0.2800    1.3780 c1        1 AA0      0.075000
     10 N14         2.6230   -1.4060    2.2550 n         1 AA0     -0.322000
     11 C15         2.7820   -1.2390    3.6670 c2        1 AA0      0.351000
     12 O16         3.0470   -0.1410    4.1250 o         1 AA0     -0.335000
     13 C17         2.5520   -2.4190    4.6030 c2        1 AA0     -0.074000
     14 C18         3.6190   -3.1290    5.0830 c2        1 AA0     -0.157000
     15 C19         3.4140   -4.1600    5.9910 c1        1 AA0     -0.049000
     16 N20         2.1460   -4.4660    6.4050 n1        1 AA0     -0.169000
     17 C21         1.0810   -3.7580    5.9270 c1        1 AA0      0.078000
     18 C22         1.2830   -2.7260    5.0190 c1        1 AA0     -0.169000
     19 N23        -0.2570   -4.0840    6.3630 n3        1 AA0     -0.204000
     20 C28        -0.2930   -4.1440    7.7840 c3        1 AA0     -0.097000
     21 C27         0.4500   -5.3530    8.3310 c3        1 AA0     -0.055000
     22 O26         0.0340   -6.5650    7.7210 os        1 AA0     -0.269000
     23 C25         0.0700   -6.5060    6.3020 c3        1 AA0     -0.055000
     24 C24        -0.6740   -5.2970    5.7540 c3        1 AA0     -0.097000
     25 C29         3.5990    0.7830    1.7460 c1        1 AA0     -0.138000
     26 C30         3.8090    1.8380    0.8640 c1        1 AA0     -0.105000
     27 C31         3.1960    1.8330   -0.3880 c2        1 AA0     -0.060000
     28 C20         2.1420    0.0200   -3.1160 c2        1 AA0      0.064000
     29 C32         3.7470    3.1320   -0.9920 c3        1 AA0     -0.186000
     30 C33        -0.2340    1.6100   -3.4630 c2        1 AA0     -0.143000
     31 C34        -1.4060    2.3880   -3.6010 c1        1 AA0     -0.093000
     32 C35        -2.1130    2.3790   -4.8040 c1        1 AA0      0.030000
     33 C41        -4.3260    2.8470   -4.1640 c3        1 AA0     -0.059000
     34 C40        -4.9050    3.0180   -5.5630 c3        1 AA0     -0.101000
     35 N31        -2.9710    3.2920   -4.0780 n3        1 AA0     -0.225000
     36 N39        -4.7280    4.3450   -6.0670 n3        1 AA0     -0.256000
     37 C38        -3.3730    4.7910   -5.9800 c3        1 AA0     -0.101000
     38 O39         0.0580    2.1780   -1.1840 o         1 AA0     -0.332000
     39 C37        -2.7940    4.6190   -4.5820 c3        1 AA0     -0.059000
     40 C43        -5.1660    4.4020   -7.4370 c3        1 AA0     -0.119000
     41 H3         -2.1600    1.5930   -6.7190 ha        1 AA0      0.138000
     42 H4         -0.1890    0.2830   -6.4890 ha        1 AA0      0.152000
     43 H20         2.9530   -0.5260   -3.0200 h5        1 AA0      0.189000
     44 H12         1.5920   -1.0390   -0.1370 ha        1 AA0      0.139000
     45 H14         2.4220   -2.2300    1.9110 hn        1 AA0      0.238000
     46 H29         4.0310    0.7860    2.6270 ha        1 AA0      0.175000
     47 H18         4.5300   -2.9090    4.7850 ha        1 AA0      0.166000
     48 H22         0.5170   -2.2170    4.6750 ha        1 AA0      0.156000
     49 H19         4.1800   -4.6710    6.3360 ha        1 AA0      0.167000
     50 H281        0.1160   -3.3280    8.1470 h1        1 AA0      0.108250
     51 H282       -1.2320   -4.1880    8.0770 h1        1 AA0      0.108250
     52 H241       -1.6390   -5.4180    5.9110 h1        1 AA0      0.108250
     53 H242       -0.5140   -5.2380    4.7850 h1        1 AA0      0.108250
     54 H271        1.4100   -5.2320    8.1740 h1        1 AA0      0.099000
     55 H272        0.2900   -5.4130    9.2990 h1        1 AA0      0.099000
     56 H251       -0.3400   -7.3240    5.9380 h1        1 AA0      0.099000
     57 H252        1.0050   -6.4620    6.0100 h1        1 AA0      0.099000
     58 H30         4.3880    2.5860    1.1230 ha        1 AA0      0.143000
     59 H321        3.4980    3.8930   -0.4190 hc        1 AA0      0.093000
     60 H322        3.3690    3.2620   -1.8890 hc        1 AA0      0.093000
     61 H323        4.7270    3.0750   -1.0550 hc        1 AA0      0.093000
     62 H34        -1.7220    2.9340   -2.8520 ha        1 AA0      0.165000
     63 H371       -3.2380    5.2530   -3.9740 h1        1 AA0      0.104250
     64 H372       -1.8330    4.8240   -4.6080 h1        1 AA0      0.104250
     65 H381       -3.3340    5.7440   -6.2270 h1        1 AA0      0.076750
     66 H382       -2.8280    4.2760   -6.6150 h1        1 AA0      0.076750
     67 H431       -4.6690    3.7400   -7.9680 h1        1 AA0      0.072667
     68 H432       -5.0000    5.3020   -7.7980 h1        1 AA0      0.072667
     69 H433       -6.1280    4.2020   -7.4830 h1        1 AA0      0.072667
     70 H401       -4.4630    2.3870   -6.1690 h1        1 AA0      0.076750
     71 H402       -5.8680    2.8130   -5.5360 h1        1 AA0      0.076750
     72 H411       -4.3640    1.8950   -3.9190 h1        1 AA0      0.104250
     73 H412       -4.8730    3.3630   -3.5270 h1        1 AA0      0.104250
@<TRIPOS>BOND
     1    1   32 1   
     2    1   41 1   
     3    2    3 1   
     4    2   42 1   
     5    3   30 1   
     6    4   28 1   
     7    5   30 1   
     8    5   38 1   
     9    6    7 1   
    10    6   28 1   
    11    7    8 1   
    12    7   27 1   
    13    8   44 1   
    14    9   10 1   
    15    9   25 1   
    16   10   11 1   
    17   10   45 1   
    18   11   12 1   
    19   11   13 1   
    20   13   14 1   
    21   13   18 1   
    22   14   15 1   
    23   14   47 1   
    24   15   49 1   
    25   16   17 1   
    26   17   19 1   
    27   18   48 1   
    28   19   20 1   
    29   19   24 1   
    30   20   21 1   
    31   20   50 1   
    32   20   51 1   
    33   21   22 1   
    34   21   54 1   
    35   21   55 1   
    36   22   23 1   
    37   23   24 1   
    38   23   56 1   
    39   23   57 1   
    40   24   52 1   
    41   24   53 1   
    42   25   46 1   
    43   26   27 1   
    44   26   58 1   
    45   27   29 1   
    46   28   43 1   
    47   29   59 1   
    48   29   60 1   
    49   29   61 1   
    50   30   31 1   
    51   31   62 1   
    52   32   35 1   
    53   33   34 1   
    54   33   35 1   
    55   33   72 1   
    56   33   73 1   
    57   34   36 1   
    58   34   70 1   
    59   34   71 1   
    60   35   39 1   
    61   36   37 1   
    62   36   40 1   
    63   37   39 1   
    64   37   65 1   
    65   37   66 1   
    66   39   63 1   
    67   39   64 1   
    68   40   67 1   
    69   40   68 1   
    70   40   69 1   
@<TRIPOS>SUBSTRUCTURE
     1 AA0         1 TEMP              0 ****  ****    0 ROOT
