@<TRIPOS>MOLECULE
AA0
   73    78     1     0     0
SMALL
bcc


@<TRIPOS>ATOM
      1 C3          5.6120    1.9400   -1.3360 ca        1 AA0     -0.149000
      2 C4          4.4120    1.7860   -2.0070 ca        1 AA0     -0.093000
      3 C5          3.4650    0.8300   -1.5780 ca        1 AA0      0.141400
      4 N6          2.2460    0.6720   -2.2550 nc        1 AA0     -0.605100
      5 C9          2.8160   -0.9730    0.0400 c         1 AA0      0.712100
      6 N10         1.6270   -1.0950   -0.7180 n         1 AA0     -0.322500
      7 C11         0.5780   -1.9890   -0.3500 ca        1 AA0      0.052600
      8 C12        -0.6630   -1.4420    0.0340 ca        1 AA0     -0.151000
      9 C13        -1.7360   -2.2820    0.3830 ca        1 AA0      0.065600
     10 N14        -2.9870   -1.7820    0.7850 n         1 AA0     -0.469100
     11 C15        -3.4990   -0.5220    0.5040 c         1 AA0      0.676700
     12 O16        -2.8770    0.3310   -0.1540 o         1 AA0     -0.577100
     13 C17        -4.8720   -0.2470    1.0310 ca        1 AA0     -0.087600
     14 C18        -5.2710   -0.6500    2.3090 ca        1 AA0     -0.260300
     15 C19        -6.5740   -0.3210    2.7150 ca        1 AA0      0.424200
     16 N20        -7.4630    0.3380    1.9580 nb        1 AA0     -0.699000
     17 C21        -7.0700    0.7470    0.7090 ca        1 AA0      0.621200
     18 C22        -5.7570    0.4630    0.2210 ca        1 AA0     -0.220300
     19 N23        -7.9330    1.5440   -0.0960 nh        1 AA0     -0.728300
     20 C28        -9.1690    2.0080    0.5230 c3        1 AA0      0.150300
     21 C27        -9.9350    2.9720   -0.3940 c3        1 AA0      0.122400
     22 O26       -10.1520    2.4140   -1.6850 os        1 AA0     -0.412600
     23 C25        -8.9340    2.0310   -2.3110 c3        1 AA0      0.122400
     24 C24        -8.1420    1.0380   -1.4480 c3        1 AA0      0.150300
     25 C29        -1.5400   -3.6830    0.3600 ca        1 AA0     -0.168000
     26 C30        -0.3140   -4.2080   -0.0160 ca        1 AA0     -0.104000
     27 C31         0.7590   -3.3890   -0.3870 ca        1 AA0     -0.065300
     28 C20         1.4150   -0.2320   -1.8060 cd        1 AA0      0.489800
     29 C32         2.0430   -4.0050   -0.7920 c3        1 AA0     -0.061800
     30 C33         3.7840    0.0420   -0.4430 ca        1 AA0     -0.159600
     31 C34         4.9890    0.2100    0.2410 ca        1 AA0     -0.101000
     32 C35         5.9330    1.1630   -0.1930 ca        1 AA0      0.124600
     33 C41         7.9320    2.5100    0.1770 c3        1 AA0      0.152300
     34 C40         9.1010    2.7520    1.1590 c3        1 AA0      0.159800
     35 N31         7.1120    1.3740    0.5620 nh        1 AA0     -0.632000
     36 N39         9.9040    1.5820    1.4680 n3        1 AA0     -0.719600
     37 C38         9.0540    0.4610    1.8360 c3        1 AA0      0.159800
     38 O39         3.0170   -1.6870    1.0370 o         1 AA0     -0.612500
     39 C37         7.8810    0.1770    0.8720 c3        1 AA0      0.152300
     40 C43        10.8810    1.2610    0.4520 c3        1 AA0      0.147100
     41 H3          6.3220    2.6930   -1.7150 ha        1 AA0      0.138000
     42 H4          4.1920    2.4130   -2.8860 ha        1 AA0      0.153000
     43 H20         0.4390   -0.3510   -2.3270 h5        1 AA0      0.064800
     44 H12        -0.7930   -0.3450    0.0560 ha        1 AA0      0.177000
     45 H14        -3.5880   -2.4330    1.2390 hn        1 AA0      0.323500
     46 H29        -2.3550   -4.3680    0.6390 ha        1 AA0      0.134000
     47 H18        -4.5960   -1.1830    2.9910 ha        1 AA0      0.150000
     48 H22        -5.4210    0.8240   -0.7630 ha        1 AA0      0.169000
     49 H19        -6.9400   -0.6100    3.7180 h4        1 AA0      0.028100
     50 H281       -9.8490    1.1460    0.7820 h1        1 AA0      0.055450
     51 H282       -8.9090    2.5520    1.4720 h1        1 AA0      0.055450
     52 H241       -7.1430    0.8680   -1.9360 h1        1 AA0      0.055450
     53 H242       -8.6990    0.0570   -1.4300 h1        1 AA0      0.055450
     54 H271      -10.9660    3.1450    0.0130 h1        1 AA0      0.058450
     55 H272       -9.3890    3.9470   -0.4930 h1        1 AA0      0.058450
     56 H251       -9.2520    1.5350   -3.2660 h1        1 AA0      0.058450
     57 H252       -8.3200    2.9430   -2.5320 h1        1 AA0      0.058450
     58 H30        -0.1790   -5.3010   -0.0290 ha        1 AA0      0.140000
     59 H321        2.8450   -3.7360   -0.0560 hc        1 AA0      0.055033
     60 H322        1.9610   -5.1190   -0.8330 hc        1 AA0      0.055033
     61 H323        2.3550   -3.6390   -1.8020 hc        1 AA0      0.055033
     62 H34         5.1680   -0.4130    1.1330 ha        1 AA0      0.163000
     63 H371        7.2030   -0.5710    1.3670 h1        1 AA0      0.042200
     64 H372        8.2900   -0.2940   -0.0700 h1        1 AA0      0.042200
     65 H381        9.6730   -0.4750    1.9080 h1        1 AA0      0.061950
     66 H382        8.6380    0.6900    2.8580 h1        1 AA0      0.061950
     67 H431       11.5450    2.1510    0.2950 h1        1 AA0      0.032700
     68 H432       11.5110    0.4060    0.8130 h1        1 AA0      0.032700
     69 H433       10.4260    0.9770   -0.5360 h1        1 AA0      0.032700
     70 H402        8.6840    3.1300    2.1350 h1        1 AA0      0.061950
     71 H411        7.2810    3.4290    0.1800 h1        1 AA0      0.042200
     72 H412        8.3570    2.3810   -0.8620 h1        1 AA0      0.042200
     73 H401        9.7550    3.5540    0.7200 h1        1 AA0      0.061950
@<TRIPOS>BOND
     1    1    2 ar  
     2    1   32 ar  
     3    1   41 1   
     4    2    3 ar  
     5    2   42 1   
     6    3    4 1   
     7    3   30 ar  
     8    4   28 2   
     9    5    6 1   
    10    5   30 1   
    11    5   38 2   
    12    6    7 1   
    13    6   28 1   
    14    7    8 ar  
    15    7   27 ar  
    16    8    9 ar  
    17    8   44 1   
    18    9   10 1   
    19    9   25 ar  
    20   10   11 1   
    21   10   45 1   
    22   11   12 2   
    23   11   13 1   
    24   13   14 ar  
    25   13   18 ar  
    26   14   15 ar  
    27   14   47 1   
    28   15   16 ar  
    29   15   49 1   
    30   16   17 ar  
    31   17   18 ar  
    32   17   19 1   
    33   18   48 1   
    34   19   20 1   
    35   19   24 1   
    36   20   21 1   
    37   20   50 1   
    38   20   51 1   
    39   21   22 1   
    40   21   54 1   
    41   21   55 1   
    42   22   23 1   
    43   23   24 1   
    44   23   56 1   
    45   23   57 1   
    46   24   52 1   
    47   24   53 1   
    48   25   26 ar  
    49   25   46 1   
    50   26   27 ar  
    51   26   58 1   
    52   27   29 1   
    53   28   43 1   
    54   29   59 1   
    55   29   60 1   
    56   29   61 1   
    57   30   31 ar  
    58   31   32 ar  
    59   31   62 1   
    60   32   35 1   
    61   33   34 1   
    62   33   35 1   
    63   33   71 1   
    64   33   72 1   
    65   34   36 1   
    66   34   70 1   
    67   34   73 1   
    68   35   39 1   
    69   36   37 1   
    70   36   40 1   
    71   37   39 1   
    72   37   65 1   
    73   37   66 1   
    74   39   63 1   
    75   39   64 1   
    76   40   67 1   
    77   40   68 1   
    78   40   69 1   
@<TRIPOS>SUBSTRUCTURE
     1 AA0         1 TEMP              0 ****  ****    0 ROOT
