@<TRIPOS>MOLECULE
AA1
   28    27     1     0     0
SMALL
bcc


@<TRIPOS>ATOM
      1 N3         -2.2550   -2.0770    0.0400 n3        1 AA1     -0.675800
      2 C4         -0.9970   -0.4010    1.2610 c         1 AA1      0.616100
      3 O5         -0.9320    0.3710    2.2350 o         1 AA1     -0.597100
      4 N6         -2.2600   -1.0180    0.9180 n         1 AA1     -0.247200
      5 C7         -3.2490    0.0240    0.5500 c3        1 AA1     -0.080000
      6 C8         -3.0320    0.6740   -0.8430 c         1 AA1      0.896600
      7 O9         -1.9980    0.3550   -1.5070 o         1 AA1     -0.843800
      8 O10        -3.9070    1.4910   -1.2320 o         1 AA1     -0.843800
      9 C11         0.2540   -0.7680    0.4810 c3        1 AA1     -0.190400
     10 C12         1.4240    0.0910    0.9090 c3        1 AA1     -0.115400
     11 C15         2.7190   -0.4770    0.4270 c         1 AA1      0.639100
     12 O16         3.0750   -1.6540    0.3170 o         1 AA1     -0.565000
     13 O17         3.6310    0.4920    0.0960 os        1 AA1     -0.444900
     14 C18         4.9070    0.0410   -0.3800 c3        1 AA1      0.139400
     15 C19         5.6970    1.2810   -0.7230 c3        1 AA1     -0.098100
     16 H3N1       -2.1370   -1.7620   -0.9220 hn        1 AA1      0.345800
     17 H3N2       -1.4740   -2.6800    0.2600 hn        1 AA1      0.345800
     18 H7C1       -4.2680   -0.4450    0.5750 h1        1 AA1      0.063700
     19 H7C2       -3.2000    0.8220    1.3370 h1        1 AA1      0.063700
     20 H111        0.0290   -0.5900   -0.6110 hc        1 AA1      0.092700
     21 H112        0.5060   -1.8490    0.6320 hc        1 AA1      0.092700
     22 H121        1.4730    0.1510    2.0320 hc        1 AA1      0.094700
     23 H122        1.2950    1.1370    0.5230 hc        1 AA1      0.094700
     24 H181        4.7500   -0.6150   -1.2760 h1        1 AA1      0.044700
     25 H182        5.4010   -0.5600    0.4270 h1        1 AA1      0.044700
     26 H191        5.1680    1.8760   -1.5050 hc        1 AA1      0.043033
     27 H192        5.8260    1.9250    0.1790 hc        1 AA1      0.043033
     28 H193        6.7010    0.9810   -1.1070 hc        1 AA1      0.043033
@<TRIPOS>BOND
     1    1    4 1   
     2    1   16 1   
     3    1   17 1   
     4    2    3 2   
     5    2    4 1   
     6    2    9 1   
     7    4    5 1   
     8    5    6 1   
     9    5   18 1   
    10    5   19 1   
    11    6    7 1   
    12    6    8 1   
    13    9   10 1   
    14    9   20 1   
    15    9   21 1   
    16   10   11 1   
    17   10   22 1   
    18   10   23 1   
    19   11   12 2   
    20   11   13 1   
    21   13   14 1   
    22   14   15 1   
    23   14   24 1   
    24   14   25 1   
    25   15   26 1   
    26   15   27 1   
    27   15   28 1   
@<TRIPOS>SUBSTRUCTURE
     1 AA1         1 TEMP              0 ****  ****    0 ROOT
