@<TRIPOS>MOLECULE
AA1
   28    26     1     0     0
SMALL
bcc


@<TRIPOS>ATOM
      1 N3         -1.2780   -0.1020    3.4970 n3        1 AA1     -0.206000
      2 C4          0.4460   -0.0590    1.7380 c1        1 AA1      0.307000
      3 O5          1.5370    0.4570    1.6570 o         1 AA1     -0.419000
      4 N6         -0.0450   -0.5270    3.0300 n2        1 AA1     -0.262000
      5 C7          0.7110   -1.5040    3.7800 c3        1 AA1     -0.122000
      6 C8          1.5400   -0.7990    4.8440 c2        1 AA1      0.326000
      7 O9          0.9780   -0.3190    5.8630 o         1 AA1     -0.568000
      8 O10         2.7980   -0.7810    4.7520 o         1 AA1     -0.568000
      9 C11        -0.4150   -0.2410    0.4750 c3        1 AA1     -0.161000
     10 C12        -0.0360    0.8260   -0.5640 c3        1 AA1     -0.150000
     11 C15         0.0640    0.1780   -1.9520 c2        1 AA1      0.307000
     12 O16         0.6710   -0.8550   -2.0930 o         1 AA1     -0.367000
     13 O17        -0.5910    0.7830   -3.0740 os        1 AA1     -0.285000
     14 C18        -0.0420    0.4110   -4.3320 c3        1 AA1     -0.012000
     15 C19        -0.7880    1.1300   -5.4410 c3        1 AA1     -0.243000
     16 H3N1       -1.4280    0.7560    3.2230 hn        1 AA1      0.159000
     17 H3N2       -1.9320   -0.6460    3.1660 hn        1 AA1      0.159000
     18 H7C1        0.0920   -2.1350    4.2110 h1        1 AA1      0.085000
     19 H7C2        1.3070   -1.9940    3.1720 h1        1 AA1      0.085000
     20 H111       -1.3610   -0.1460    0.7090 hc        1 AA1      0.116000
     21 H112       -0.2600   -1.1300    0.1010 hc        1 AA1      0.116000
     22 H121       -0.7230    1.5260   -0.5790 hc        1 AA1      0.130500
     23 H122        0.8220    1.2190   -0.3270 hc        1 AA1      0.130500
     24 H181       -0.1300   -0.5550   -4.4530 h1        1 AA1      0.093500
     25 H182        0.9110    0.6610   -4.3620 h1        1 AA1      0.093500
     26 H191       -1.6980    0.7590   -5.5190 hc        1 AA1      0.085667
     27 H192       -0.8410    2.0840   -5.2320 hc        1 AA1      0.085667
     28 H193       -0.3090    1.0070   -6.2910 hc        1 AA1      0.085667
@<TRIPOS>BOND
     1    1    4 1   
     2    1   16 1   
     3    1   17 1   
     4    2    3 1   
     5    2    9 1   
     6    4    5 1   
     7    5    6 1   
     8    5   18 1   
     9    5   19 1   
    10    6    7 1   
    11    6    8 1   
    12    9   10 1   
    13    9   20 1   
    14    9   21 1   
    15   10   11 1   
    16   10   22 1   
    17   10   23 1   
    18   11   12 1   
    19   11   13 1   
    20   13   14 1   
    21   14   15 1   
    22   14   24 1   
    23   14   25 1   
    24   15   26 1   
    25   15   27 1   
    26   15   28 1   
@<TRIPOS>SUBSTRUCTURE
     1 AA1         1 TEMP              0 ****  ****    0 ROOT
