@<TRIPOS>MOLECULE
AA1
   30    29     1     0     0
SMALL
bcc


@<TRIPOS>ATOM
      1 N3          0.0580    0.0210   -0.0140 n4        1 AA1     -0.609600
      2 C4          2.1500   -0.2300   -1.2890 c         1 AA1      0.644100
      3 O5          3.3730   -0.2300   -1.2040 o         1 AA1     -0.442100
      4 N6          1.4100   -0.3400   -0.0240 n         1 AA1     -0.382200
      5 C7          2.1510   -0.0490    1.2040 c3        1 AA1     -0.018000
      6 C8          2.2380    1.3900    1.6570 c         1 AA1      0.600100
      7 O9          1.1720    2.1730    1.3020 oh        1 AA1     -0.681100
      8 O10         3.1240    1.9030    2.3270 o         1 AA1     -0.439000
      9 C11         1.3620   -0.2270   -2.5690 c3        1 AA1     -0.159400
     10 C12         2.2810   -0.2190   -3.7780 c3        1 AA1     -0.134400
     11 C15         1.4500   -0.0310   -5.0140 c         1 AA1      0.632100
     12 O16         0.2370    0.1990   -5.0530 o         1 AA1     -0.560000
     13 O17         2.1650   -0.1310   -6.1590 os        1 AA1     -0.416900
     14 C18         1.4360    0.0480   -7.3970 c3        1 AA1      0.141400
     15 C19         2.4530   -0.1070   -8.4990 c3        1 AA1     -0.106100
     16 H3N1       -0.0760    1.0530    0.0000 hn        1 AA1      0.477800
     17 H3N2       -0.4020   -0.3850   -0.8470 hn        1 AA1      0.477800
     18 H7C1        3.2120   -0.4230    1.0390 h1        1 AA1      0.147700
     19 H7C2        1.7060   -0.6470    2.0550 h1        1 AA1      0.147700
     20 H111        0.7040    0.6850   -2.6190 hc        1 AA1      0.096200
     21 H112        0.7080   -1.1410   -2.6220 hc        1 AA1      0.096200
     22 H121        2.8570   -1.1800   -3.8530 hc        1 AA1      0.111700
     23 H122        3.0320    0.6140   -3.7100 hc        1 AA1      0.111700
     24 H181        0.6300   -0.7300   -7.4470 h1        1 AA1      0.059700
     25 H182        0.9700    1.0680   -7.3870 h1        1 AA1      0.059700
     26 H191        3.2590    0.6590   -8.4040 hc        1 AA1      0.059367
     27 H192        2.9230   -1.1190   -8.4630 hc        1 AA1      0.059367
     28 H193        1.9390    0.0220   -9.4820 hc        1 AA1      0.059367
     29 H33        -0.3700   -0.3820    0.8380 hn        1 AA1      0.477800
     30 H61         1.2880    3.0790    1.6440 ho        1 AA1      0.491000
@<TRIPOS>BOND
     1    1    4 1   
     2    1   16 1   
     3    1   17 1   
     4    1   29 1   
     5    2    3 2   
     6    2    4 1   
     7    2    9 1   
     8    4    5 1   
     9    5    6 1   
    10    5   18 1   
    11    5   19 1   
    12    6    7 1   
    13    6    8 2   
    14    7   30 1   
    15    9   10 1   
    16    9   20 1   
    17    9   21 1   
    18   10   11 1   
    19   10   22 1   
    20   10   23 1   
    21   11   12 2   
    22   11   13 1   
    23   13   14 1   
    24   14   15 1   
    25   14   24 1   
    26   14   25 1   
    27   15   26 1   
    28   15   27 1   
    29   15   28 1   
@<TRIPOS>SUBSTRUCTURE
     1 AA1         1 TEMP              0 ****  ****    0 ROOT
