@<TRIPOS>MOLECULE
AA1
   30    29     1     0     0
SMALL
bcc


@<TRIPOS>ATOM
      1 N3          0.0620    0.0260   -0.0110 n4        1 AA1     -0.609600
      2 C4          2.1520   -0.2290   -1.2890 c         1 AA1      0.644100
      3 O5          3.3760   -0.2310   -1.2060 o         1 AA1     -0.442100
      4 N6          1.4140   -0.3360   -0.0220 n         1 AA1     -0.382200
      5 C7          2.1580   -0.0420    1.2040 c3        1 AA1     -0.018000
      6 C8          2.2460    1.3980    1.6530 c         1 AA1      0.600100
      7 O9          1.1800    2.1800    1.2980 oh        1 AA1     -0.681100
      8 O10         3.1340    1.9120    2.3200 o         1 AA1     -0.439000
      9 C11         1.3620   -0.2280   -2.5680 c3        1 AA1     -0.159400
     10 C12         2.2800   -0.2230   -3.7780 c3        1 AA1     -0.134400
     11 C15         1.4470   -0.0320   -5.0130 c         1 AA1      0.632100
     12 O16         0.2340    0.2040   -5.0500 o         1 AA1     -0.560000
     13 O17         2.1590   -0.1380   -6.1590 os        1 AA1     -0.416900
     14 C18         1.4280    0.0440   -7.3960 c3        1 AA1      0.141400
     15 C19         2.4420   -0.1190   -8.5000 c3        1 AA1     -0.106100
     16 H3N1       -0.0710    1.0580    0.0010 hn        1 AA1      0.477800
     17 H3N2       -0.3640   -0.3740    0.8420 hn        1 AA1      0.477800
     18 H7C1        1.7140   -0.6380    2.0570 h1        1 AA1      0.148200
     19 H7C2        3.2180   -0.4180    1.0380 h1        1 AA1      0.148200
     20 H111        0.7080   -1.1430   -2.6180 hc        1 AA1      0.096200
     21 H112        0.7040    0.6840   -2.6180 hc        1 AA1      0.096200
     22 H121        3.0330    0.6080   -3.7110 hc        1 AA1      0.111700
     23 H122        2.8530   -1.1860   -3.8540 hc        1 AA1      0.111700
     24 H181        0.9690    1.0670   -7.3870 h1        1 AA1      0.059700
     25 H182        0.6180   -0.7290   -7.4430 h1        1 AA1      0.059700
     26 H191        1.9270    0.0130   -9.4820 hc        1 AA1      0.059367
     27 H192        3.2530    0.6420   -8.4070 hc        1 AA1      0.059367
     28 H193        2.9050   -1.1340   -8.4630 hc        1 AA1      0.059367
     29 H33        -0.3990   -0.3810   -0.8420 hn        1 AA1      0.477800
     30 H61         1.2970    3.0870    1.6370 ho        1 AA1      0.491000
@<TRIPOS>BOND
     1    1    4 1   
     2    1   16 1   
     3    1   17 1   
     4    1   29 1   
     5    2    3 2   
     6    2    4 1   
     7    2    9 1   
     8    4    5 1   
     9    5    6 1   
    10    5   18 1   
    11    5   19 1   
    12    6    7 1   
    13    6    8 2   
    14    7   30 1   
    15    9   10 1   
    16    9   20 1   
    17    9   21 1   
    18   10   11 1   
    19   10   22 1   
    20   10   23 1   
    21   11   12 2   
    22   11   13 1   
    23   13   14 1   
    24   14   15 1   
    25   14   24 1   
    26   14   25 1   
    27   15   26 1   
    28   15   27 1   
    29   15   28 1   
@<TRIPOS>SUBSTRUCTURE
     1 AA1         1 TEMP              0 ****  ****    0 ROOT
