@<TRIPOS>MOLECULE
AA1
   30    29     1     0     0
SMALL
bcc


@<TRIPOS>ATOM
      1 N3          0.0510    0.0700   -0.0160 nz        1 AA1     -0.609600
      2 C4          2.1360   -0.2450   -1.2880 c         1 AA1      0.644100
      3 O5          3.3580   -0.2840   -1.2020 o         1 AA1     -0.442100
      4 N6          1.3910   -0.3320   -0.0240 n         1 AA1     -0.382200
      5 C7          2.1390   -0.0630    1.2050 c3        1 AA1     -0.018000
      6 C8          2.2700    1.3730    1.6570 c         1 AA1      0.600100
      7 O9          1.2300    2.1880    1.3010 oh        1 AA1     -0.681100
      8 O10         3.1710    1.8590    2.3280 o         1 AA1     -0.439000
      9 C11         1.3490   -0.2180   -2.5700 c3        1 AA1     -0.159400
     10 C12         2.2700   -0.2390   -3.7770 c3        1 AA1     -0.134400
     11 C15         1.4460   -0.0250   -5.0140 c         1 AA1      0.632100
     12 O16         0.2410    0.2440   -5.0540 o         1 AA1     -0.560000
     13 O17         2.1590   -0.1480   -6.1580 os        1 AA1     -0.416900
     14 C18         1.4370    0.0540   -7.3970 c3        1 AA1      0.141400
     15 C19         2.4490   -0.1340   -8.4980 c3        1 AA1     -0.106100
     16 H3N1       -0.0510    1.1060   -0.0020 hn        1 AA1      0.477800
     17 H3N2       -0.3900   -0.3180    0.8360 hn        1 AA1      0.477800
     18 H7C1        1.6760   -0.6470    2.0560 h1        1 AA1      0.148200
     19 H7C2        3.1880   -0.4700    1.0410 h1        1 AA1      0.148200
     20 H111        0.6680   -1.1120   -2.6230 hc        1 AA1      0.096200
     21 H112        0.7200    0.7140   -2.6200 hc        1 AA1      0.096200
     22 H121        3.0470    0.5690   -3.7080 hc        1 AA1      0.111700
     23 H122        2.8150   -1.2180   -3.8520 hc        1 AA1      0.111700
     24 H181        1.0040    1.0890   -7.3880 h1        1 AA1      0.059700
     25 H182        0.6060   -0.6970   -7.4480 h1        1 AA1      0.059700
     26 H191        1.9410    0.0120   -9.4820 hc        1 AA1      0.059367
     27 H192        3.2800    0.6060   -8.4020 hc        1 AA1      0.059367
     28 H193        2.8860   -1.1610   -8.4620 hc        1 AA1      0.059367
     29 H33        -0.4210   -0.3210   -0.8490 hn        1 AA1      0.477800
     30 H61         1.3730    3.0900    1.6420 ho        1 AA1      0.491000
@<TRIPOS>BOND
     1    1    4 1   
     2    1   16 1   
     3    1   17 1   
     4    1   29 1   
     5    2    3 2   
     6    2    4 1   
     7    2    9 1   
     8    4    5 1   
     9    5    6 1   
    10    5   18 1   
    11    5   19 1   
    12    6    7 1   
    13    6    8 2   
    14    7   30 1   
    15    9   10 1   
    16    9   20 1   
    17    9   21 1   
    18   10   11 1   
    19   10   22 1   
    20   10   23 1   
    21   11   12 2   
    22   11   13 1   
    23   13   14 1   
    24   14   15 1   
    25   14   24 1   
    26   14   25 1   
    27   15   26 1   
    28   15   27 1   
    29   15   28 1   
@<TRIPOS>SUBSTRUCTURE
     1 AA1         1 TEMP              0 ****  ****    0 ROOT
