@<TRIPOS>MOLECULE
AA2
   62    65     1     0     0
SMALL
bcc


@<TRIPOS>ATOM
      1 N1          1.5230    0.4170    0.4260 nb        1 AA2     -0.722000
      2 C2          0.1770    0.3230    0.7640 ca        1 AA2      0.869900
      3 N3         -0.3020    0.2390    2.0660 nb        1 AA2     -0.738000
      4 C4          0.6060    0.2850    3.0660 cp        1 AA2      0.546800
      5 C5          1.9940    0.4060    2.8010 ca        1 AA2     -0.274200
      6 C6          2.3860    0.4600    1.4450 ca        1 AA2      0.468200
      7 C7          0.1010    0.2040    4.4510 cp        1 AA2     -0.163500
      8 C8         -0.8320    1.1350    4.9130 ca        1 AA2     -0.088500
      9 C9         -1.3070    1.0620    6.2230 ca        1 AA2     -0.137500
     10 C10        -0.8730    0.0530    7.0890 ca        1 AA2     -0.090300
     11 C11         0.0540   -0.8850    6.6080 ca        1 AA2     -0.137500
     12 C12         0.5380   -0.8150    5.3060 ca        1 AA2     -0.088500
     13 C13        -0.4940    0.0670   -1.5990 ca        1 AA2      0.121600
     14 C14        -1.1920   -0.9700   -2.2550 ca        1 AA2     -0.131500
     15 C15        -0.9640   -1.2280   -3.6020 ca        1 AA2     -0.116000
     16 C16        -0.0360   -0.4740   -4.3270 ca        1 AA2     -0.087300
     17 C17         0.6570    0.5530   -3.6780 ca        1 AA2     -0.116000
     18 C18         0.4350    0.8320   -2.3330 ca        1 AA2     -0.131500
     19 N19        -0.8010    0.3750   -0.2510 nh        1 AA2     -0.702300
     20 CL20        3.1600    0.5010    4.0140 cl        1 AA2     -0.056400
     21 C21        -1.3700   -0.0640    8.5270 c3        1 AA2      0.220500
     22 C22        -0.1400    0.0010    9.4550 c3        1 AA2     -0.084100
     23 C23        -2.0170   -1.4540    8.6890 c3        1 AA2     -0.084100
     24 N24        -2.3310    0.9640    8.9290 n3        1 AA2     -0.898800
     25 C25         0.2230   -0.7650   -5.7640 c3        1 AA2     -0.038100
     26 C26        -0.4580    0.2850   -6.6480 c3        1 AA2      0.171800
     27 N27        -0.0540    0.2230   -8.0470 n3        1 AA2     -0.726600
     28 C28        -0.5490    1.3750   -8.7930 c3        1 AA2      0.131300
     29 C29        -0.2070    1.3000  -10.2850 c3        1 AA2      0.126400
     30 O30        -0.6320    0.0700  -10.8610 os        1 AA2     -0.415600
     31 C31        -0.0820   -1.0540  -10.1840 c3        1 AA2      0.126400
     32 C32        -0.4130   -1.0360   -8.6870 c3        1 AA2      0.131300
     33 H6          3.4540    0.5410    1.1650 h4        1 AA2      0.041100
     34 H8         -1.1950    1.9300    4.2430 ha        1 AA2      0.142500
     35 H9         -2.0360    1.8230    6.5410 ha        1 AA2      0.133000
     36 H11         0.4100   -1.6940    7.2640 ha        1 AA2      0.133000
     37 H12         1.2640   -1.5600    4.9490 ha        1 AA2      0.142500
     38 H14        -1.9260   -1.5830   -1.7090 ha        1 AA2      0.143500
     39 H15        -1.5180   -2.0400   -4.0980 ha        1 AA2      0.136000
     40 H17         1.3900    1.1520   -4.2400 ha        1 AA2      0.136000
     41 H18         0.9910    1.6520   -1.8540 ha        1 AA2      0.143500
     42 H19        -1.7120    0.0770    0.0380 hn        1 AA2      0.439800
     43 H221       -0.4580   -0.0880   10.5210 hc        1 AA2      0.042200
     44 H222        0.5550   -0.8390    9.2200 hc        1 AA2      0.042200
     45 H223        0.4050    0.9650    9.3200 hc        1 AA2      0.042200
     46 H231       -1.2620   -2.2480    8.4770 hc        1 AA2      0.042200
     47 H232       -2.3890   -1.5850    9.7330 hc        1 AA2      0.042200
     48 H233       -2.8710   -1.5750    7.9810 hc        1 AA2      0.042200
     49 H241       -1.9180    1.8730    8.8520 hn        1 AA2      0.350800
     50 H242       -3.1470    0.9190    8.3520 hn        1 AA2      0.350800
     51 H251        1.3300   -0.7630   -5.9520 hc        1 AA2      0.056700
     52 H252       -0.1620   -1.7860   -6.0230 hc        1 AA2      0.056700
     53 H261       -1.5770    0.1770   -6.5310 h1        1 AA2      0.037200
     54 H262       -0.1740    1.3070   -6.2630 h1        1 AA2      0.037200
     55 H281       -1.6680    1.4880   -8.6900 h1        1 AA2      0.040450
     56 H282       -0.0660    2.2960   -8.3630 h1        1 AA2      0.040450
     57 H291       -0.7750    2.0840  -10.8510 h1        1 AA2      0.053700
     58 H292        0.8950    1.4290  -10.4470 h1        1 AA2      0.053700
     59 H311       -0.5650   -1.9390  -10.6740 h1        1 AA2      0.053700
     60 H312        1.0280   -1.0810  -10.3440 h1        1 AA2      0.053700
     61 H321        0.1760   -1.8540   -8.1860 h1        1 AA2      0.040450
     62 H322       -1.5100   -1.2690   -8.5610 h1        1 AA2      0.040450
@<TRIPOS>BOND
     1    1    2 ar  
     2    1    6 ar  
     3    2    3 ar  
     4    2   19 1   
     5    3    4 ar  
     6    4    5 ar  
     7    4    7 1   
     8    5    6 ar  
     9    5   20 1   
    10    6   33 1   
    11    7    8 ar  
    12    7   12 ar  
    13    8    9 ar  
    14    8   34 1   
    15    9   10 ar  
    16    9   35 1   
    17   10   11 ar  
    18   10   21 1   
    19   11   12 ar  
    20   11   36 1   
    21   12   37 1   
    22   13   14 ar  
    23   13   18 ar  
    24   13   19 1   
    25   14   15 ar  
    26   14   38 1   
    27   15   16 ar  
    28   15   39 1   
    29   16   17 ar  
    30   16   25 1   
    31   17   18 ar  
    32   17   40 1   
    33   18   41 1   
    34   19   42 1   
    35   21   22 1   
    36   21   23 1   
    37   21   24 1   
    38   22   43 1   
    39   22   44 1   
    40   22   45 1   
    41   23   46 1   
    42   23   47 1   
    43   23   48 1   
    44   24   49 1   
    45   24   50 1   
    46   25   26 1   
    47   25   51 1   
    48   25   52 1   
    49   26   27 1   
    50   26   53 1   
    51   26   54 1   
    52   27   28 1   
    53   27   32 1   
    54   28   29 1   
    55   28   55 1   
    56   28   56 1   
    57   29   30 1   
    58   29   57 1   
    59   29   58 1   
    60   30   31 1   
    61   31   32 1   
    62   31   59 1   
    63   31   60 1   
    64   32   61 1   
    65   32   62 1   
@<TRIPOS>SUBSTRUCTURE
     1 AA2         1 TEMP              0 ****  ****    0 ROOT
