@<TRIPOS>MOLECULE
AA2
   63    66     1     0     0
SMALL
bcc


@<TRIPOS>ATOM
      1 N1         -0.2660   -0.8510    0.2160 nb        1 AA2     -0.704000
      2 C2          1.1100   -0.6070    0.1890 ca        1 AA2      0.891900
      3 N3          1.8870   -0.4010    1.3270 nb        1 AA2     -0.749000
      4 C4          1.2590   -0.4690    2.5210 cp        1 AA2      0.511800
      5 C5         -0.1250   -0.7310    2.6300 ca        1 AA2     -0.284200
      6 C6         -0.8370   -0.9090    1.4170 ca        1 AA2      0.487200
      7 C7          2.0860   -0.2590    3.7290 cp        1 AA2     -0.089500
      8 C8          3.1840   -1.0930    3.9760 ca        1 AA2     -0.086000
      9 C9          3.9620   -0.8980    5.1140 ca        1 AA2     -0.115000
     10 C10         3.6610    0.1350    6.0160 ca        1 AA2     -0.176300
     11 C11         2.5710    0.9710    5.7580 ca        1 AA2     -0.115000
     12 C12         1.7900    0.7790    4.6180 ca        1 AA2     -0.086000
     13 C13         1.1210   -0.5340   -2.2790 ca        1 AA2      0.106600
     14 C14         1.4450    0.5140   -3.1670 ca        1 AA2     -0.125000
     15 C15         0.8530    0.5730   -4.4240 ca        1 AA2     -0.115500
     16 C16        -0.0750   -0.3950   -4.8240 ca        1 AA2     -0.070300
     17 C17        -0.3960   -1.4330   -3.9420 ca        1 AA2     -0.115500
     18 C18         0.1940   -1.5140   -2.6840 ca        1 AA2     -0.125000
     19 N19         1.7900   -0.6230   -1.0310 nu        1 AA2     -0.700300
     20 Cl20       -0.9320   -0.8500    4.1060 cl        1 AA2     -0.061400
     21 C21         4.5320    0.3220    7.2310 c3        1 AA2      0.224500
     22 C22         4.1900    1.5760    8.0370 c3        1 AA2     -0.130600
     23 C23         6.0120    0.3900    6.8400 c3        1 AA2     -0.130600
     24 N24         4.3090   -0.9060    8.1300 nz        1 AA2     -0.854600
     25 C25        -0.7250   -0.3180   -6.1610 c3        1 AA2     -0.044100
     26 C26        -0.1200   -1.3610   -7.1070 c3        1 AA2      0.173800
     27 N27        -0.8760   -1.5320   -8.3410 n3        1 AA2     -0.727600
     28 C28        -0.4120   -2.6950   -9.0900 c3        1 AA2      0.130800
     29 C29        -1.1310   -2.8540  -10.4350 c3        1 AA2      0.126400
     30 O30        -1.0670   -1.6610  -11.2070 os        1 AA2     -0.412600
     31 C31        -1.6050   -0.5450  -10.5080 c3        1 AA2      0.126400
     32 C32        -0.9050   -0.3280   -9.1610 c3        1 AA2      0.130800
     33 H6         -1.9280   -1.1070    1.4240 h4        1 AA2      0.053100
     34 H8          3.4370   -1.8960    3.2640 ha        1 AA2      0.170000
     35 H9          4.8310   -1.5540    5.2770 ha        1 AA2      0.139000
     36 H11         2.3130    1.8010    6.4340 ha        1 AA2      0.139000
     37 H12         0.9360    1.4490    4.4200 ha        1 AA2      0.170000
     38 H14         2.1700    1.2910   -2.8780 ha        1 AA2      0.142000
     39 H15         1.1160    1.3950   -5.1070 ha        1 AA2      0.143000
     40 H17        -1.1250   -2.1990   -4.2480 ha        1 AA2      0.143000
     41 H18        -0.0750   -2.3450   -2.0150 ha        1 AA2      0.142000
     42 H19         2.7150   -0.2430   -1.0210 hn        1 AA2      0.449800
     43 H221        3.1410    1.5560    8.4210 hc        1 AA2      0.079533
     44 H222        4.3060    2.4660    7.3690 hc        1 AA2      0.079533
     45 H223        4.8910    1.6980    8.9000 hc        1 AA2      0.079533
     46 H231        6.1380    1.2360    6.1180 hc        1 AA2      0.079533
     47 H232        6.6550    0.5890    7.7320 hc        1 AA2      0.079533
     48 H233        6.3600   -0.5450    6.3370 hc        1 AA2      0.079533
     49 H241        3.3380   -0.9160    8.4490 hn        1 AA2      0.453800
     50 H242        4.9360   -0.8630    8.9350 hn        1 AA2      0.453800
     51 H251       -1.8280   -0.4960   -6.0490 hc        1 AA2      0.061200
     52 H252       -0.5910    0.7090   -6.5930 hc        1 AA2      0.061200
     53 H261        0.9540   -1.0760   -7.3100 h1        1 AA2      0.036200
     54 H262       -0.1140   -2.3560   -6.5770 h1        1 AA2      0.036200
     55 H281       -0.6170   -3.6090   -8.4670 h1        1 AA2      0.040200
     56 H282        0.6990   -2.6470   -9.2840 h1        1 AA2      0.040200
     57 H291       -2.2030   -3.1460  -10.2790 h1        1 AA2      0.055950
     58 H292       -0.6080   -3.6230  -11.0620 h1        1 AA2      0.055950
     59 H311       -2.7080   -0.6890  -10.3620 h1        1 AA2      0.055950
     60 H312       -1.4150    0.3280  -11.1860 h1        1 AA2      0.055950
     61 H321       -1.4730    0.4590   -8.5920 h1        1 AA2      0.040200
     62 H322        0.1350    0.0650   -9.3580 h1        1 AA2      0.040200
     63 H243        4.4950   -1.7550    7.5910 hn        1 AA2      0.453800
@<TRIPOS>BOND
     1    1    2 ar  
     2    1    6 ar  
     3    2    3 ar  
     4    2   19 1   
     5    3    4 ar  
     6    4    5 ar  
     7    4    7 1   
     8    5    6 ar  
     9    5   20 1   
    10    6   33 1   
    11    7    8 ar  
    12    7   12 ar  
    13    8    9 ar  
    14    8   34 1   
    15    9   10 ar  
    16    9   35 1   
    17   10   11 ar  
    18   10   21 1   
    19   11   12 ar  
    20   11   36 1   
    21   12   37 1   
    22   13   14 ar  
    23   13   18 ar  
    24   13   19 1   
    25   14   15 ar  
    26   14   38 1   
    27   15   16 ar  
    28   15   39 1   
    29   16   17 ar  
    30   16   25 1   
    31   17   18 ar  
    32   17   40 1   
    33   18   41 1   
    34   19   42 1   
    35   21   22 1   
    36   21   23 1   
    37   21   24 1   
    38   22   43 1   
    39   22   44 1   
    40   22   45 1   
    41   23   46 1   
    42   23   47 1   
    43   23   48 1   
    44   24   49 1   
    45   24   50 1   
    46   24   63 1   
    47   25   26 1   
    48   25   51 1   
    49   25   52 1   
    50   26   27 1   
    51   26   53 1   
    52   26   54 1   
    53   27   28 1   
    54   27   32 1   
    55   28   29 1   
    56   28   55 1   
    57   28   56 1   
    58   29   30 1   
    59   29   57 1   
    60   29   58 1   
    61   30   31 1   
    62   31   32 1   
    63   31   59 1   
    64   31   60 1   
    65   32   61 1   
    66   32   62 1   
@<TRIPOS>SUBSTRUCTURE
     1 AA2         1 TEMP              0 ****  ****    0 ROOT
