@<TRIPOS>MOLECULE
AA2
   62    55     1     0     0
SMALL
bcc


@<TRIPOS>ATOM
      1 N1         -0.5250    0.0990    0.6030 n1        1 AA2     -0.523800
      2 C2          0.8500    0.1390    0.5820 c1        1 AA2      0.532600
      3 N3          1.5610    0.2200    1.7630 n1        1 AA2     -0.535800
      4 C4          0.8930    0.2620    2.9740 c1        1 AA2      0.113000
      5 C5         -0.4740    0.2220    3.0000 c1        1 AA2     -0.132100
      6 C6         -1.1940    0.1390    1.7950 c1        1 AA2      0.385300
      7 C7          1.6140    0.2420    4.1680 c1        1 AA2     -0.053000
      8 C8          1.9230   -0.9740    4.7790 c1        1 AA2     -0.037500
      9 C9          2.6220   -0.9900    5.9840 c1        1 AA2     -0.055500
     10 C10         3.0120    0.2160    6.5790 c1        1 AA2     -0.028100
     11 C11         2.7020    1.4280    5.9660 c1        1 AA2     -0.056500
     12 C12         2.0050    1.4410    4.7650 c1        1 AA2     -0.056500
     13 C13         0.8050    0.0250   -1.8610 c1        1 AA2      0.097800
     14 C14         0.3200    1.1820   -2.4470 c1        1 AA2     -0.056500
     15 C15        -0.3560    1.1150   -3.6930 c1        1 AA2     -0.056500
     16 C16        -0.5300   -0.1160   -4.3220 c1        1 AA2     -0.054100
     17 C17        -0.0440   -1.2710   -3.7330 c1        1 AA2     -0.053500
     18 C18         0.6270   -1.2040   -2.4970 c1        1 AA2     -0.104500
     19 N19         1.5350    0.0960   -0.6570 n3        1 AA2     -0.540400
     20 CL20       -1.3410    0.2000    4.5760 cl        1 AA2     -0.068900
     21 C21         3.7940    0.2020    7.9410 c3        1 AA2      0.185300
     22 C22         3.0770    1.1000    8.9700 c3        1 AA2     -0.107100
     23 C23         5.2470    0.7410    7.7060 c3        1 AA2     -0.107100
     24 N24         3.8520   -1.1240    8.4420 n3        1 AA2     -0.899800
     25 C25        -1.2000   -0.1840   -5.7140 c3        1 AA2     -0.071300
     26 C26        -2.7290   -0.0710   -5.5590 c3        1 AA2      0.171800
     27 N27        -3.3540   -0.3760   -6.8090 n3        1 AA2     -0.726600
     28 C28        -4.2090   -1.5190   -6.6400 c3        1 AA2      0.131300
     29 C29        -5.0490   -1.8210   -7.9130 c3        1 AA2      0.126400
     30 O30        -5.7470   -0.6850   -8.3810 os        1 AA2     -0.415600
     31 C31        -4.8920    0.4570   -8.5510 c3        1 AA2      0.126400
     32 C32        -4.0490    0.7600   -7.2760 c3        1 AA2      0.131300
     33 H6         -2.2260    0.1090    1.8070 ha        1 AA2      0.119500
     34 H8          1.6480   -1.8200    4.3580 ha        1 AA2      0.084500
     35 H9          2.8480   -1.8690    6.4270 ha        1 AA2      0.094500
     36 H11         2.9920    2.3190    6.4050 ha        1 AA2      0.084000
     37 H12         1.8010    2.2450    4.3600 ha        1 AA2      0.084000
     38 H14         0.4400    2.0250   -2.0120 ha        1 AA2      0.084000
     39 H15        -0.7030    1.9370   -4.1130 ha        1 AA2      0.084000
     40 H17        -0.1720   -2.1930   -4.2050 ha        1 AA2      0.078500
     41 H18         0.9820   -2.0520   -2.0700 ha        1 AA2      0.075500
     42 H19         2.4560    0.0820   -0.6750 hn        1 AA2      0.440800
     43 H221        2.1650    0.7740    9.1110 hc        1 AA2      0.041533
     44 H222        3.5790    1.0720    9.8410 hc        1 AA2      0.041533
     45 H223        3.0480    2.0550    8.6250 hc        1 AA2      0.041533
     46 H231        5.7410    0.1120    7.1350 hc        1 AA2      0.041533
     47 H232        5.2010    1.6420    7.2530 hc        1 AA2      0.041533
     48 H233        5.7060    0.8310    8.5650 hc        1 AA2      0.041533
     49 H241        4.7300   -1.2760    8.8720 hn        1 AA2      0.349800
     50 H242        3.2010   -1.2420    9.0470 hn        1 AA2      0.349800
     51 H251       -0.8840    0.5340   -6.2520 hc        1 AA2      0.055700
     52 H252       -0.9760   -1.0430   -6.1460 hc        1 AA2      0.055700
     53 H261       -3.0530   -0.7310   -4.8480 h1        1 AA2      0.037200
     54 H262       -2.9690    0.8680   -5.2800 h1        1 AA2      0.037200
     55 H281       -4.8150   -1.3560   -5.8900 h1        1 AA2      0.040700
     56 H282       -3.6120   -2.3600   -6.4190 h1        1 AA2      0.040700
     57 H291       -5.7130   -2.5490   -7.7010 h1        1 AA2      0.053200
     58 H292       -4.4330   -2.1450   -8.6390 h1        1 AA2      0.053200
     59 H311       -4.2950    0.2930   -9.2880 h1        1 AA2      0.053200
     60 H312       -5.4150    1.1940   -8.7470 h1        1 AA2      0.053200
     61 H321       -3.3640    1.5010   -7.5010 h1        1 AA2      0.040700
     62 H322       -4.6540    1.0890   -6.5580 h1        1 AA2      0.040700
@<TRIPOS>BOND
     1    1    6 3   
     2    2    3 3   
     3    2   19 1   
     4    4    5 3   
     5    5   20 1   
     6    6   33 1   
     7    7    8 3   
     8    8   34 1   
     9    9   10 3   
    10    9   35 1   
    11   10   21 1   
    12   11   12 3   
    13   11   36 1   
    14   12   37 1   
    15   13   18 3   
    16   13   19 1   
    17   14   15 3   
    18   14   38 1   
    19   15   39 1   
    20   16   17 3   
    21   16   25 1   
    22   17   40 1   
    23   18   41 1   
    24   19   42 1   
    25   21   22 1   
    26   21   23 1   
    27   21   24 1   
    28   22   43 1   
    29   22   44 1   
    30   22   45 1   
    31   23   46 1   
    32   23   47 1   
    33   23   48 1   
    34   24   49 1   
    35   24   50 1   
    36   25   26 1   
    37   25   51 1   
    38   25   52 1   
    39   26   27 1   
    40   26   53 1   
    41   26   54 1   
    42   27   28 1   
    43   27   32 1   
    44   28   29 1   
    45   28   55 1   
    46   28   56 1   
    47   29   30 1   
    48   29   57 1   
    49   29   58 1   
    50   30   31 1   
    51   31   32 1   
    52   31   59 1   
    53   31   60 1   
    54   32   61 1   
    55   32   62 1   
@<TRIPOS>SUBSTRUCTURE
     1 AA2         1 TEMP              0 ****  ****    0 ROOT
