@<TRIPOS>MOLECULE
AA2
   64    67     1     0     0
SMALL
bcc


@<TRIPOS>ATOM
      1 N1         -0.6870    2.5990    0.3330 nb        1 AA2     -0.639000
      2 C2          0.6220    2.2280    0.1300 ca        1 AA2      0.712900
      3 N3          1.4540    1.6170    1.0270 nb        1 AA2     -0.653000
      4 C4          0.9230    1.3470    2.2500 cp        1 AA2      0.508800
      5 C5         -0.4190    1.6880    2.5620 ca        1 AA2     -0.178200
      6 C6         -1.1840    2.3240    1.5470 ca        1 AA2      0.470200
      7 C7          1.7950    0.6930    3.2480 cp        1 AA2     -0.138500
      8 C8          1.4770   -0.5820    3.7330 ca        1 AA2     -0.079000
      9 C9          2.3030   -1.1930    4.6730 ca        1 AA2     -0.107500
     10 C10         3.4580   -0.5450    5.1410 ca        1 AA2     -0.143300
     11 C11         3.7680    0.7280    4.6530 ca        1 AA2     -0.107500
     12 C12         2.9470    1.3420    3.7050 ca        1 AA2     -0.079000
     13 C13         0.7130    1.5490   -2.2270 ca        1 AA2     -0.084400
     14 C14        -0.5330    1.7480   -2.8480 ca        1 AA2     -0.086000
     15 C15        -0.9500    0.8500   -3.8250 ca        1 AA2     -0.114500
     16 C16        -0.1520   -0.2440   -4.1880 ca        1 AA2      0.006700
     17 C17         1.0850   -0.4300   -3.5500 ca        1 AA2     -0.114500
     18 C18         1.5240    0.4510   -2.5700 ca        1 AA2     -0.086000
     19 N19         1.1880    2.5140   -1.2280 n4        1 AA2     -0.598100
     20 CL20       -1.1100    1.3920    4.0560 cl        1 AA2      0.027600
     21 C21         4.3550   -1.2560    6.1280 c3        1 AA2      0.214500
     22 C22         5.6490   -0.4930    6.4220 c3        1 AA2     -0.134100
     23 C23         4.7270   -2.6490    5.6060 c3        1 AA2     -0.134100
     24 N24         3.5780   -1.4060    7.4420 n4        1 AA2     -0.852600
     25 C25        -0.6100   -1.2090   -5.2230 c3        1 AA2     -0.068100
     26 C26         0.2010   -1.0420   -6.5160 c3        1 AA2      0.180800
     27 N27         0.0500   -2.1710   -7.4210 n3        1 AA2     -0.730600
     28 C28         1.0710   -2.1630   -8.4650 c3        1 AA2      0.129300
     29 C29         0.8770   -3.2910   -9.4860 c3        1 AA2      0.125900
     30 O30        -0.4400   -3.2850  -10.0210 os        1 AA2     -0.401600
     31 C31        -1.4270   -3.4030   -9.0060 c3        1 AA2      0.125900
     32 C32        -1.2980   -2.2820   -7.9660 c3        1 AA2      0.129300
     33 H6         -2.2400    2.6270    1.7190 h4        1 AA2      0.090100
     34 H8          0.5790   -1.1090    3.3710 ha        1 AA2      0.166000
     35 H9          2.0440   -2.2060    5.0210 ha        1 AA2      0.154000
     36 H11         4.6680    1.2680    4.9910 ha        1 AA2      0.154000
     37 H12         3.2150    2.3400    3.3220 ha        1 AA2      0.166000
     38 H14        -1.1820    2.5970   -2.5760 ha        1 AA2      0.160000
     39 H15        -1.9250    1.0070   -4.3200 ha        1 AA2      0.175000
     40 H17         1.7170   -1.2900   -3.8320 ha        1 AA2      0.175000
     41 H18         2.4990    0.2810   -2.0840 ha        1 AA2      0.160000
     42 H19         2.2170    2.4770   -1.1820 hn        1 AA2      0.480300
     43 H221        6.2070   -0.3560    5.4610 hc        1 AA2      0.084200
     44 H222        5.4540    0.5130    6.8680 hc        1 AA2      0.084200
     45 H223        6.3060   -1.0750    7.1160 hc        1 AA2      0.084200
     46 H231        5.4420   -3.1590    6.2980 hc        1 AA2      0.084200
     47 H232        5.2310   -2.5250    4.6140 hc        1 AA2      0.084200
     48 H233        3.8310   -3.2990    5.4610 hc        1 AA2      0.084200
     49 H241        4.1350   -1.9540    8.1040 hn        1 AA2      0.459133
     50 H242        2.6920   -1.8850    7.2650 hn        1 AA2      0.459133
     51 H251       -0.4900   -2.2550   -4.8270 hc        1 AA2      0.080200
     52 H252       -1.7010   -1.0560   -5.4410 hc        1 AA2      0.080200
     53 H261        1.2930   -0.9660   -6.2450 h1        1 AA2      0.036200
     54 H262       -0.1010   -0.0660   -6.9980 h1        1 AA2      0.036200
     55 H281        2.0710   -2.3010   -7.9680 h1        1 AA2      0.041200
     56 H282        1.0860   -1.1790   -9.0180 h1        1 AA2      0.041200
     57 H291        1.0940   -4.2880   -9.0220 h1        1 AA2      0.062700
     58 H292        1.5420   -3.1230  -10.3740 h1        1 AA2      0.062700
     59 H311       -2.4030   -3.3130   -9.5510 h1        1 AA2      0.062700
     60 H312       -1.3480   -4.4090   -8.5150 h1        1 AA2      0.062700
     61 H321       -1.9960   -2.5100   -7.1130 h1        1 AA2      0.041200
     62 H322       -1.6320   -1.3150   -8.4430 h1        1 AA2      0.041200
     63 H192        0.8920    3.4610   -1.5100 hn        1 AA2      0.480300
     64 H243        3.3920   -0.4820    7.8380 hn        1 AA2      0.459133
@<TRIPOS>BOND
     1    1    2 ar  
     2    1    6 ar  
     3    2    3 ar  
     4    2   19 1   
     5    3    4 ar  
     6    4    5 ar  
     7    4    7 1   
     8    5    6 ar  
     9    5   20 1   
    10    6   33 1   
    11    7    8 ar  
    12    7   12 ar  
    13    8    9 ar  
    14    8   34 1   
    15    9   10 ar  
    16    9   35 1   
    17   10   11 ar  
    18   10   21 1   
    19   11   12 ar  
    20   11   36 1   
    21   12   37 1   
    22   13   14 ar  
    23   13   18 ar  
    24   13   19 1   
    25   14   15 ar  
    26   14   38 1   
    27   15   16 ar  
    28   15   39 1   
    29   16   17 ar  
    30   16   25 1   
    31   17   18 ar  
    32   17   40 1   
    33   18   41 1   
    34   19   42 1   
    35   19   63 1   
    36   21   22 1   
    37   21   23 1   
    38   21   24 1   
    39   22   43 1   
    40   22   44 1   
    41   22   45 1   
    42   23   46 1   
    43   23   47 1   
    44   23   48 1   
    45   24   49 1   
    46   24   50 1   
    47   24   64 1   
    48   25   26 1   
    49   25   51 1   
    50   25   52 1   
    51   26   27 1   
    52   26   53 1   
    53   26   54 1   
    54   27   28 1   
    55   27   32 1   
    56   28   29 1   
    57   28   55 1   
    58   28   56 1   
    59   29   30 1   
    60   29   57 1   
    61   29   58 1   
    62   30   31 1   
    63   31   32 1   
    64   31   59 1   
    65   31   60 1   
    66   32   61 1   
    67   32   62 1   
@<TRIPOS>SUBSTRUCTURE
     1 AA2         1 TEMP              0 ****  ****    0 ROOT
