@<TRIPOS>MOLECULE
AA2
   63    66     1     0     0
SMALL
bcc


@<TRIPOS>ATOM
      1 N1         -0.2650   -0.8510    0.2140 nb        1 AA2     -0.704000
      2 C2          1.1110   -0.6040    0.1880 ca        1 AA2      0.891900
      3 N3          1.8870   -0.3990    1.3270 nb        1 AA2     -0.749000
      4 C4          1.2590   -0.4710    2.5210 cp        1 AA2      0.511800
      5 C5         -0.1240   -0.7350    2.6290 ca        1 AA2     -0.284200
      6 C6         -0.8360   -0.9130    1.4150 ca        1 AA2      0.487200
      7 C7          2.0850   -0.2610    3.7290 cp        1 AA2     -0.089500
      8 C8          3.1850   -1.0940    3.9760 ca        1 AA2     -0.086000
      9 C9          3.9610   -0.9000    5.1140 ca        1 AA2     -0.115000
     10 C10         3.6590    0.1310    6.0180 ca        1 AA2     -0.176300
     11 C11         2.5670    0.9670    5.7600 ca        1 AA2     -0.115000
     12 C12         1.7870    0.7750    4.6200 ca        1 AA2     -0.086000
     13 C13         1.1230   -0.5260   -2.2790 ca        1 AA2      0.106600
     14 C14         1.4440    0.5250   -3.1660 ca        1 AA2     -0.125000
     15 C15         0.8520    0.5850   -4.4220 ca        1 AA2     -0.115500
     16 C16        -0.0740   -0.3840   -4.8240 ca        1 AA2     -0.070300
     17 C17        -0.3920   -1.4240   -3.9440 ca        1 AA2     -0.115500
     18 C18         0.1970   -1.5060   -2.6860 ca        1 AA2     -0.125000
     19 N19         1.7910   -0.6160   -1.0320 nh        1 AA2     -0.700300
     20 CL20       -0.9320   -0.8590    4.1040 cl        1 AA2     -0.061400
     21 C21         4.5290    0.3170    7.2330 c3        1 AA2      0.224500
     22 C22         4.1850    1.5700    8.0410 c3        1 AA2     -0.130600
     23 C23         6.0090    0.3870    6.8440 c3        1 AA2     -0.130600
     24 N24         4.3060   -0.9110    8.1310 n4        1 AA2     -0.854600
     25 C25        -0.7230   -0.3050   -6.1610 c3        1 AA2     -0.044100
     26 C26        -0.1180   -1.3470   -7.1090 c3        1 AA2      0.173800
     27 N27        -0.8730   -1.5170   -8.3430 n3        1 AA2     -0.727600
     28 C28        -0.4100   -2.6790   -9.0930 c3        1 AA2      0.130800
     29 C29        -1.1280   -2.8370  -10.4380 c3        1 AA2      0.126400
     30 O30        -1.0640   -1.6430  -11.2090 os        1 AA2     -0.412600
     31 C31        -1.6020   -0.5270  -10.5090 c3        1 AA2      0.126400
     32 C32        -0.9020   -0.3120   -9.1620 c3        1 AA2      0.130800
     33 H6         -1.9260   -1.1130    1.4220 h4        1 AA2      0.053100
     34 H8          3.4390   -1.8950    3.2630 ha        1 AA2      0.170000
     35 H9          4.8310   -1.5560    5.2780 ha        1 AA2      0.139000
     36 H11         2.3080    1.7960    6.4370 ha        1 AA2      0.139000
     37 H12         0.9330    1.4440    4.4230 ha        1 AA2      0.170000
     38 H14         2.1670    1.3020   -2.8750 ha        1 AA2      0.142000
     39 H15         1.1130    1.4090   -5.1040 ha        1 AA2      0.143000
     40 H17        -1.1200   -2.1920   -4.2520 ha        1 AA2      0.143000
     41 H18        -0.0700   -2.3400   -2.0190 ha        1 AA2      0.142000
     42 H19         2.7160   -0.2340   -1.0200 hn        1 AA2      0.449800
     43 H221        3.1360    1.5490    8.4250 hc        1 AA2      0.079533
     44 H222        4.8850    1.6920    8.9040 hc        1 AA2      0.079533
     45 H223        4.3010    2.4610    7.3730 hc        1 AA2      0.079533
     46 H231        6.3580   -0.5470    6.3410 hc        1 AA2      0.079533
     47 H232        6.6510    0.5860    7.7360 hc        1 AA2      0.079533
     48 H233        6.1350    1.2340    6.1230 hc        1 AA2      0.079533
     49 H241        3.3340   -0.9230    8.4490 hn        1 AA2      0.453800
     50 H242        4.4930   -1.7600    7.5910 hn        1 AA2      0.453800
     51 H251       -0.5910    0.7220   -6.5920 hc        1 AA2      0.061200
     52 H252       -1.8270   -0.4840   -6.0500 hc        1 AA2      0.061200
     53 H261        0.9560   -1.0610   -7.3110 h1        1 AA2      0.035700
     54 H262       -0.1110   -2.3430   -6.5800 h1        1 AA2      0.035700
     55 H281       -0.6150   -3.5940   -8.4710 h1        1 AA2      0.040200
     56 H282        0.7020   -2.6310   -9.2870 h1        1 AA2      0.040200
     57 H291       -0.6060   -3.6040  -11.0660 h1        1 AA2      0.055950
     58 H292       -2.2000   -3.1280  -10.2830 h1        1 AA2      0.055950
     59 H311       -1.4110    0.3460  -11.1860 h1        1 AA2      0.055950
     60 H312       -2.7050   -0.6710  -10.3640 h1        1 AA2      0.055950
     61 H321        0.1380    0.0810   -9.3580 h1        1 AA2      0.040200
     62 H322       -1.4700    0.4750   -8.5920 h1        1 AA2      0.040200
     63 H243        4.9320   -0.8690    8.9360 hn        1 AA2      0.453800
@<TRIPOS>BOND
     1    1    2 ar  
     2    1    6 ar  
     3    2    3 ar  
     4    2   19 1   
     5    3    4 ar  
     6    4    5 ar  
     7    4    7 1   
     8    5    6 ar  
     9    5   20 1   
    10    6   33 1   
    11    7    8 ar  
    12    7   12 ar  
    13    8    9 ar  
    14    8   34 1   
    15    9   10 ar  
    16    9   35 1   
    17   10   11 ar  
    18   10   21 1   
    19   11   12 ar  
    20   11   36 1   
    21   12   37 1   
    22   13   14 ar  
    23   13   18 ar  
    24   13   19 1   
    25   14   15 ar  
    26   14   38 1   
    27   15   16 ar  
    28   15   39 1   
    29   16   17 ar  
    30   16   25 1   
    31   17   18 ar  
    32   17   40 1   
    33   18   41 1   
    34   19   42 1   
    35   21   22 1   
    36   21   23 1   
    37   21   24 1   
    38   22   43 1   
    39   22   44 1   
    40   22   45 1   
    41   23   46 1   
    42   23   47 1   
    43   23   48 1   
    44   24   49 1   
    45   24   50 1   
    46   24   63 1   
    47   25   26 1   
    48   25   51 1   
    49   25   52 1   
    50   26   27 1   
    51   26   53 1   
    52   26   54 1   
    53   27   28 1   
    54   27   32 1   
    55   28   29 1   
    56   28   55 1   
    57   28   56 1   
    58   29   30 1   
    59   29   57 1   
    60   29   58 1   
    61   30   31 1   
    62   31   32 1   
    63   31   59 1   
    64   31   60 1   
    65   32   61 1   
    66   32   62 1   
@<TRIPOS>SUBSTRUCTURE
     1 AA2         1 TEMP              0 ****  ****    0 ROOT
