@<TRIPOS>MOLECULE
AA3
   15    14     1     0     0
SMALL
bcc


@<TRIPOS>ATOM
      1 N          -1.7040    0.4090    0.3640 n3        1 AA3     -0.891800
      2 CA         -0.2810    0.4090    0.3640 c3        1 AA3      0.019500
      3 C           0.2230    0.4090    1.7890 c         1 AA3      0.886600
      4 O          -0.1960   -0.4540    2.6040 o         1 AA3     -0.846800
      5 CB          0.2230   -0.8250   -0.3490 c3        1 AA3     -0.067400
      6 CG          0.9690   -0.4150   -1.5990 c3        1 AA3     -0.081100
      7 OXT         1.0600    1.2730    2.1600 o         1 AA3     -0.846800
      8 H          -2.0080    0.8480    1.1030 hn        1 AA3      0.328800
      9 HN         -2.0080    0.8300   -0.3860 hn        1 AA3      0.328800
     10 HA          0.0440    1.2060   -0.0960 h1        1 AA3      0.039700
     11 HB1         0.8230   -1.3190    0.2420 hc        1 AA3      0.043700
     12 HB2        -0.5340   -1.3910   -0.5920 hc        1 AA3      0.043700
     13 HG1         0.3740    0.0940   -2.1820 hc        1 AA3      0.014367
     14 HG2         1.7360    0.1370   -1.3540 hc        1 AA3      0.014367
     15 HG3         1.2800   -1.2130   -2.0680 hc        1 AA3      0.014367
@<TRIPOS>BOND
     1    1    2 1   
     2    1    8 1   
     3    1    9 1   
     4    2    3 1   
     5    2    5 1   
     6    2   10 1   
     7    3    4 1   
     8    3    7 1   
     9    5    6 1   
    10    5   11 1   
    11    5   12 1   
    12    6   13 1   
    13    6   14 1   
    14    6   15 1   
@<TRIPOS>SUBSTRUCTURE
     1 AA3         1 TEMP              0 ****  ****    0 ROOT
