@<TRIPOS>MOLECULE
AA3
   15    14     1     0     0
SMALL
bcc


@<TRIPOS>ATOM
      1 N          -1.6170   -0.4250    0.6160 n3        1 AA3     -0.891800
      2 CA         -0.1910   -0.4110    0.3140 c3        1 AA3      0.019500
      3 C           0.1520   -0.0380   -1.1670 c         1 AA3      0.886600
      4 O          -0.8050    0.2100   -1.9560 o         1 AA3     -0.846800
      5 CB          0.6150    0.5050    1.2360 c3        1 AA3     -0.067400
      6 CG          0.6100    0.0430    2.6700 c3        1 AA3     -0.081100
      7 OXT         1.3700   -0.0250   -1.4990 o         1 AA3     -0.846800
      8 H          -2.0850   -0.8270   -0.1820 hn        1 AA3      0.328800
      9 HN         -1.9390    0.5250    0.6760 hn        1 AA3      0.328800
     10 HA          0.1740   -1.4690    0.4660 h1        1 AA3      0.039700
     11 HB1         0.2200    1.5520    1.1750 hc        1 AA3      0.043700
     12 HB2         1.6670    0.5210    0.8410 hc        1 AA3      0.043700
     13 HG1         1.2570    0.7040    3.2970 hc        1 AA3      0.014367
     14 HG2        -0.4240    0.0620    3.0920 hc        1 AA3      0.014367
     15 HG3         0.9970   -1.0020    2.7460 hc        1 AA3      0.014367
@<TRIPOS>BOND
     1    1    2 1   
     2    1    8 1   
     3    1    9 1   
     4    2    3 1   
     5    2    5 1   
     6    2   10 1   
     7    3    4 1   
     8    3    7 1   
     9    5    6 1   
    10    5   11 1   
    11    5   12 1   
    12    6   13 1   
    13    6   14 1   
    14    6   15 1   
@<TRIPOS>SUBSTRUCTURE
     1 AA3         1 TEMP              0 ****  ****    0 ROOT
