@<TRIPOS>MOLECULE
AA4
   19    18     1     0     0
SMALL
bcc


@<TRIPOS>ATOM
      1 N           1.8870    0.2840    0.7180 n3        1 AA4     -0.890800
      2 CA          0.4340    0.3920    0.7340 c3        1 AA4      0.020500
      3 C          -0.2380   -0.1250    2.0500 c         1 AA4      0.886600
      4 O           0.5140   -0.5400    2.9790 o         1 AA4     -0.845300
      5 CB         -0.2390   -0.3080   -0.4470 c3        1 AA4     -0.065400
      6 CG          0.1030    0.3320   -1.7740 c3        1 AA4     -0.076400
      7 CD         -0.6910   -0.3250   -2.8890 c3        1 AA4      0.126400
      8 OE         -0.3190    0.2930   -4.1150 oh        1 AA4     -0.610800
      9 OXT        -1.4980   -0.0820    2.1190 o         1 AA4     -0.845300
     10 H           2.1340   -0.6840    0.6050 hn        1 AA4      0.329800
     11 H2          2.2140    0.5510    1.6330 hn        1 AA4      0.329800
     12 HA          0.1970    1.4940    0.6710 h1        1 AA4      0.041700
     13 HB2         0.0470   -1.3920   -0.4650 hc        1 AA4      0.045700
     14 HB3        -1.3480   -0.2560   -0.2680 hc        1 AA4      0.045700
     15 HG2        -0.1310    1.4270   -1.7480 hc        1 AA4      0.050200
     16 HG3         1.1980    0.2330   -1.9880 hc        1 AA4      0.050200
     17 HD2        -0.4640   -1.4250   -2.9420 h1        1 AA4      0.013200
     18 HD3        -1.7930   -0.1940   -2.7200 h1        1 AA4      0.013200
     19 HE         -0.8570   -0.1190   -4.7990 ho        1 AA4      0.380000
@<TRIPOS>BOND
     1    1    2 1   
     2    1   10 1   
     3    1   11 1   
     4    2    3 1   
     5    2    5 1   
     6    2   12 1   
     7    3    4 1   
     8    3    9 1   
     9    5    6 1   
    10    5   13 1   
    11    5   14 1   
    12    6    7 1   
    13    6   15 1   
    14    6   16 1   
    15    7    8 1   
    16    7   17 1   
    17    7   18 1   
    18    8   19 1   
@<TRIPOS>SUBSTRUCTURE
     1 AA4         1 TEMP              0 ****  ****    0 ROOT
