@<TRIPOS>MOLECULE
AA5
   40    35     1     0     0
SMALL
bcc


@<TRIPOS>ATOM
      1 N        -434.5870   58.7440   84.8400 n2        1 AA5     -0.375000
      2 CA        448.4120  -27.7630  236.5180 c1        1 AA5     -0.117000
      3 C         446.9790  -27.5570  236.2820 c2        1 AA5      0.417000
      4 O1        446.2020  -27.4780  237.2750 o         1 AA5     -0.568500
      5 CB        449.5820  -27.9300  236.7110 c1        1 AA5     -0.328000
      6 CG        443.5370  -27.1190  235.3520 c3        1 AA5     -0.681000
      7 SD        444.3590  -27.3570  233.8450 s4        1 AA5      1.471000
      8 CE        443.3180  -27.2850  232.7240 c2        1 AA5     -1.197000
      9 O2        446.5740  -27.4640  235.0830 o         1 AA5     -0.568500
     10 C2       -438.9360   58.0630   83.9480 c2        1 AA5     -0.260000
     11 C2A      -439.8750   57.4100   84.6690 c1        1 AA5     -0.382000
     12 C3       -437.5310   58.2490   84.2960 c2        1 AA5      0.239000
     13 C4       -436.6270   58.9330   83.5050 c2        1 AA5     -0.390000
     14 C4A      -435.2320   59.1490   83.7940 c2        1 AA5      0.044000
     15 C5       -437.0980   59.5220   82.2150 c3        1 AA5     -0.088000
     16 C5A       124.2210  -89.3420 -831.6770 c1        1 AA5      0.201000
     17 C6       -438.5390   59.3150   81.8860 c1        1 AA5     -0.258000
     18 N1       -439.3160   58.6570   82.6950 n7        1 AA5     -0.075000
     19 O4P       123.8660  -89.8900 -832.6500 o         1 AA5     -0.200000
     20 P         124.8620  -90.5420 -834.8940 p3        1 AA5      2.389000
     21 HA       -433.6230   59.0000   84.8470 hn        1 AA5      0.107000
     22 HB1       443.0070  -26.1500  235.4520 h1        1 AA5      0.118333
     23 HB2       450.6150  -28.0770  236.8800 ha        1 AA5      0.187000
     24 HG1       444.3200  -27.1800  236.1580 h1        1 AA5      0.118333
     25 HG2       442.7960  -27.9320  235.5160 h1        1 AA5      0.118333
     26 HE1       444.9830  -26.2250  233.7010 hs        1 AA5     -0.217000
     27 HE2       443.4070  -26.7120  231.8040 h4        1 AA5      0.124000
     28 HE3       442.3840  -27.8480  232.7460 h4        1 AA5      0.124000
     29 H2A1     -439.6020   56.9540   85.6250 ha        1 AA5      0.043000
     30 H2A2       -3.8520    9.3910    5.9700 ha        1 AA5      0.000000
     31 H2A3       -3.3620    8.9680    5.7720 ha        1 AA5      0.000000
     32 H4A      -434.7210   59.7350   82.9880 h4        1 AA5      0.057000
     33 H5A1     -436.5030   59.0950   81.3610 hc        1 AA5      0.066000
     34 H5A2     -436.9180   60.6330   82.2150 hc        1 AA5      0.066000
     35 H6       -440.2790   58.5220   82.4690 hn        1 AA5      0.232000
     36 HO3      -436.2700   57.8180   85.6830 ho        1 AA5      0.241000
     37 O3       -437.2100   57.6710   85.4920 oh        1 AA5     -0.266000
     38 O1P       124.8070  -92.0150 -834.8760 o         1 AA5     -1.130333
     39 O2P       124.0530  -89.7780 -835.8600 o         1 AA5     -1.130333
     40 O3P       125.7740  -89.8300 -833.9750 o         1 AA5     -1.130333
@<TRIPOS>BOND
     1    1   14 1   
     2    1   21 1   
     3    2    3 1   
     4    2    5 1   
     5    3    4 1   
     6    3    9 1   
     7    5   23 1   
     8    6    7 1   
     9    6   22 1   
    10    6   24 1   
    11    6   25 1   
    12    7    8 1   
    13    7   26 1   
    14    8   27 1   
    15    8   28 1   
    16   10   11 1   
    17   10   12 1   
    18   10   18 1   
    19   11   29 1   
    20   12   13 1   
    21   12   37 1   
    22   13   14 1   
    23   13   15 1   
    24   14   32 1   
    25   15   17 1   
    26   15   33 1   
    27   15   34 1   
    28   16   19 1   
    29   17   18 1   
    30   18   35 1   
    31   20   38 1   
    32   20   39 1   
    33   20   40 1   
    34   30   31 1   
    35   36   37 1   
@<TRIPOS>SUBSTRUCTURE
     1 AA5         1 TEMP              0 ****  ****    0 ROOT
