@<TRIPOS>MOLECULE
AA5
   40    35     1     0     0
SMALL
bcc


@<TRIPOS>ATOM
      1 N        -322.5240   22.6200  149.8100 n2        1 AA5     -0.375000
      2 CA        636.1160  -84.3030  238.8710 c1        1 AA5     -0.112000
      3 C         637.1270  -83.9180  237.8660 c2        1 AA5      0.408000
      4 O1        637.9020  -84.8170  237.4330 o         1 AA5     -0.557000
      5 CB        635.2960  -84.6160  239.6870 c1        1 AA5     -0.362000
      6 CG         15.5370   40.9560   66.8730 c3        1 AA5     -0.345000
      7 SD         14.0520   41.3190   66.0180 ss        1 AA5      0.083000
      8 CE         14.6280   42.0950   64.5570 c3        1 AA5     -0.345000
      9 O2        637.1610  -82.7100  237.4960 o         1 AA5     -0.557000
     10 C2       -325.7170   24.8700  147.5900 c2        1 AA5     -0.260000
     11 C2A      -327.0470   24.9380  147.8220 c1        1 AA5     -0.382000
     12 C3       -324.7280   24.1150  148.3540 c2        1 AA5      0.239000
     13 C4       -323.3790   24.0950  148.0550 c2        1 AA5     -0.390000
     14 C4A      -322.3570   23.3720  148.7700 c2        1 AA5      0.044000
     15 C5       -322.8850   24.8840  146.8860 c3        1 AA5     -0.088000
     16 C5A       261.6740  -69.4150 -814.5380 c1        1 AA5      0.201000
     17 C6       -323.9200   25.6450  146.1250 c1        1 AA5     -0.258000
     18 N1       -325.1700   25.6050  146.4820 n3        1 AA5     -0.075000
     19 O4P       261.3970  -70.4560 -815.0010 o         1 AA5     -0.200000
     20 P         260.6460  -71.3550 -817.2550 p3        1 AA5      2.389000
     21 HA       -321.6840   22.2090  150.1530 hn        1 AA5      0.107000
     22 HB1        16.1940   40.2710   66.2930 h1        1 AA5      0.101000
     23 HB2       634.5730  -84.8920  240.4050 ha        1 AA5      0.179000
     24 HG1        15.2360   40.4540   67.8210 h1        1 AA5      0.101000
     25 HG2        16.1130   41.8760   67.1170 h1        1 AA5      0.101000
     26 HE1        15.1960   43.0260   64.7760 h1        1 AA5      0.101000
     27 HE2        15.2750   41.4200   63.9540 h1        1 AA5      0.101000
     28 HE3        13.7210   42.3540   63.9630 h1        1 AA5      0.101000
     29 H2A1     -327.4780   24.3850  148.6610 ha        1 AA5      0.043000
     30 H2A2      -11.5180  104.4560  158.2860 ha        1 AA5      0.000000
     31 H2A3      -11.9840  104.0080  158.0850 ha        1 AA5      0.000000
     32 H4A      -321.3420   23.5240  148.3220 h4        1 AA5      0.057000
     33 H5A1     -322.3760   24.2000  146.1520 hc        1 AA5      0.066000
     34 H5A2     -322.1150   25.6300  147.2270 hc        1 AA5      0.066000
     35 H6       -325.8560   26.1160  145.9690 hn        1 AA5      0.232000
     36 HO3      -324.5960   22.9470  149.8750 ho        1 AA5      0.241000
     37 O3       -325.2870   23.4320  149.3970 oh        1 AA5     -0.266000
     38 O1P       259.3070  -71.9020 -816.9720 o         1 AA5     -1.130333
     39 O2P       260.8710  -69.8950 -817.1940 o         1 AA5     -1.130333
     40 O3P       261.7480  -72.2500 -817.6490 o         1 AA5     -1.130333
@<TRIPOS>BOND
     1    1   14 1   
     2    1   21 1   
     3    2    3 1   
     4    2    5 1   
     5    3    4 1   
     6    3    9 1   
     7    5   23 1   
     8    6    7 1   
     9    6   22 1   
    10    6   24 1   
    11    6   25 1   
    12    7    8 1   
    13    8   26 1   
    14    8   27 1   
    15    8   28 1   
    16   10   11 1   
    17   10   12 1   
    18   10   18 1   
    19   11   29 1   
    20   12   13 1   
    21   12   37 1   
    22   13   14 1   
    23   13   15 1   
    24   14   32 1   
    25   15   17 1   
    26   15   33 1   
    27   15   34 1   
    28   16   19 1   
    29   17   18 1   
    30   18   35 1   
    31   20   38 1   
    32   20   39 1   
    33   20   40 1   
    34   30   31 1   
    35   36   37 1   
@<TRIPOS>SUBSTRUCTURE
     1 AA5         1 TEMP              0 ****  ****    0 ROOT
