@<TRIPOS>MOLECULE
AA5
   40    36     1     0     0
SMALL
bcc


@<TRIPOS>ATOM
      1 N          -0.8710    1.5070    0.4150 n1        1 AA5     -0.195000
      2 CA          0.5050    1.2710    0.6730 c2        1 AA5     -0.122000
      3 C           0.6420    0.1880    1.7090 c2        1 AA5      0.345000
      4 O1         -0.2970   -0.0350    2.5130 o         1 AA5     -0.588500
      5 CB          1.1520    2.5500    1.1880 c3        1 AA5     -0.123000
      6 CG          1.0510    2.5940    2.7010 c3        1 AA5     -0.205000
      7 SD          2.6070    3.1150    3.3830 ss        1 AA5     -0.073000
      8 CE          2.9100    2.2420    4.8960 c3        1 AA5     -0.335000
      9 O2          1.7160   -0.4600    1.8030 o         1 AA5     -0.588500
     10 C2         -0.1170   -2.8680   -0.4820 c1        1 AA5     -0.130000
     11 C2A         0.1320   -4.0460    0.4490 c2        1 AA5     -0.128000
     12 C3         -0.6530   -1.6870    0.0190 c2        1 AA5      0.044000
     13 C4         -0.9010   -0.6380   -0.8230 c1        1 AA5     -0.182000
     14 C4A        -1.5730    0.6320   -0.2880 c1        1 AA5     -0.009000
     15 C5         -0.6210   -0.7530   -2.1600 c2        1 AA5     -0.056000
     16 C5A        -1.0200    0.3570   -3.1140 c3        1 AA5      0.083000
     17 C6         -0.0850   -1.9350   -2.6580 c1        1 AA5     -0.108000
     18 N1          0.1620   -2.9810   -1.8160 n1        1 AA5     -0.148000
     19 O1P        -3.0830   -1.4490   -4.8560 o         1 AA5     -0.926500
     20 O2P        -3.1540    1.0120   -4.9940 o         1 AA5     -0.926500
     21 O3         -1.0470   -1.6130    1.3640 oh        1 AA5     -0.294000
     22 O3P        -2.0040   -0.2840   -6.7470 o         1 AA5     -0.926500
     23 O4P        -0.9680   -0.1250   -4.4470 os        1 AA5     -0.724000
     24 P          -2.3180   -0.2110   -5.2700 p5        1 AA5      1.549500
     25 HA          0.9470    0.9920   -0.1500 ha        1 AA5      0.075000
     26 HB1         2.0950    2.5690    0.9230 hc        1 AA5      0.079500
     27 HB2         0.6920    3.3240    0.8090 hc        1 AA5      0.079500
     28 HG1         0.8290    1.7010    3.0390 h1        1 AA5      0.123000
     29 HG2         0.3510    3.2260    2.9640 h1        1 AA5      0.123000
     30 HE1         3.1630    1.3160    4.6940 h1        1 AA5      0.103333
     31 HE2         3.6390    2.6800    5.3870 h1        1 AA5      0.103333
     32 HE3         2.1000    2.2470    5.4440 h1        1 AA5      0.103333
     33 H2A1        0.7920   -3.7940    1.1230 ha        1 AA5      0.059000
     34 H2A2        0.4670   -4.8080   -0.0700 ha        1 AA5      0.059000
     35 H2A3       -0.7030   -4.2940    0.8900 ha        1 AA5      0.059000
     36 H4A        -2.5200    0.7950   -0.4650 ha        1 AA5      0.135000
     37 H5A1       -1.9340    0.6520   -2.9080 h1        1 AA5      0.061000
     38 H5A2       -0.4020    1.1120   -3.0140 h1        1 AA5      0.061000
     39 H6          0.1140   -2.0180   -3.6080 ha        1 AA5      0.282000
     40 HO3        -1.7950   -2.0850    1.4820 ho        1 AA5      0.263000
@<TRIPOS>BOND
     1    1   14 1   
     2    2    3 1   
     3    2    5 1   
     4    2   25 1   
     5    3    4 1   
     6    3    9 1   
     7    5    6 1   
     8    5   26 1   
     9    5   27 1   
    10    6    7 1   
    11    6   28 1   
    12    6   29 1   
    13    7    8 1   
    14    8   30 1   
    15    8   31 1   
    16    8   32 1   
    17   10   12 1   
    18   10   18 1   
    19   11   33 1   
    20   11   34 1   
    21   11   35 1   
    22   12   13 1   
    23   12   21 1   
    24   13   15 1   
    25   14   36 1   
    26   15   16 1   
    27   15   17 1   
    28   16   23 1   
    29   16   37 1   
    30   16   38 1   
    31   17   39 1   
    32   19   24 1   
    33   20   24 1   
    34   21   40 1   
    35   22   24 1   
    36   23   24 1   
@<TRIPOS>SUBSTRUCTURE
     1 AA5         1 TEMP              0 ****  ****    0 ROOT
