@<TRIPOS>MOLECULE
AA5
   40    40     1     0     0
SMALL
bcc


@<TRIPOS>ATOM
      1 N          78.8790   43.3530  -14.4200 n2        1 AA5     -0.608900
      2 CA         78.4750   43.7440  -13.1000 c3        1 AA5      0.006500
      3 C          77.0160   44.3180  -13.0530 c         1 AA5      0.925600
      4 O1         76.2430   43.8220  -12.1850 o         1 AA5     -0.851300
      5 CB         79.3750   44.6940  -12.2910 c3        1 AA5     -0.092400
      6 CG         79.4780   46.0800  -12.8730 c3        1 AA5      0.018700
      7 SD         79.2350   47.3810  -11.6710 ss        1 AA5     -0.420200
      8 CE         77.4870   47.4340  -11.4740 c3        1 AA5     -0.034000
      9 O2         76.6870   45.2730  -13.8140 o         1 AA5     -0.851300
     10 C2         79.9520   42.8480  -18.6860 ca        1 AA5      0.293600
     11 C2A        78.9600   42.7870  -19.7990 c3        1 AA5     -0.104400
     12 C3         79.4910   43.2230  -17.4020 ca        1 AA5      0.023800
     13 C4         80.4000   43.2900  -16.3180 ca        1 AA5     -0.212900
     14 C4A        79.9810   43.7220  -14.9710 ce        1 AA5      0.468800
     15 C5         81.7400   42.9680  -16.5700 ca        1 AA5     -0.131600
     16 C5A        82.8330   42.9960  -15.5260 c3        1 AA5      0.243700
     17 C6         82.1130   42.6140  -17.9010 ca        1 AA5      0.359200
     18 N1         81.2590   42.5490  -18.9230 nb        1 AA5     -0.675000
     19 O4P        83.7780   42.0220  -15.7170 os        1 AA5     -0.562200
     20 P          85.3390   42.5500  -16.2680 p5        1 AA5      1.315900
     21 HA         78.4360   42.7700  -12.5190 h1        1 AA5      0.059700
     22 HB1        78.9340   44.7500  -11.2600 hc        1 AA5      0.042700
     23 HB2        80.4000   44.2480  -12.1920 hc        1 AA5      0.042700
     24 HG1        80.5020   46.2760  -13.2770 h1        1 AA5      0.094200
     25 HG2        78.7270   46.2090  -13.6970 h1        1 AA5      0.094200
     26 HE1        77.2280   47.2180  -10.4150 h1        1 AA5      0.065700
     27 HE2        77.1230   48.4500  -11.7380 h1        1 AA5      0.065700
     28 HE3        76.9810   46.6780  -12.1340 h1        1 AA5      0.065700
     29 H2A1       79.4190   42.4520  -20.7610 hc        1 AA5      0.019033
     30 H2A2       78.1380   42.0800  -19.5240 hc        1 AA5      0.019033
     31 H2A3       78.5080   43.7990  -19.9480 hc        1 AA5      0.019033
     32 H4A        80.7340   44.3840  -14.4840 h4        1 AA5     -0.022200
     33 H5A1       83.3080   44.0250  -15.5500 h1        1 AA5      0.019700
     34 H5A2       82.3470   42.8420  -14.5150 h1        1 AA5      0.019700
     35 H6         83.2190   42.3990  -18.0770 h4        1 AA5      0.149100
     36 HO3        77.9260   43.7470  -16.4080 ho        1 AA5      0.450000
     37 O3         78.1490   43.5220  -17.3250 oh        1 AA5     -0.538100
     38 O1P        86.2610   41.4940  -15.7280 o         1 AA5     -0.924833
     39 O2P        85.1140   42.5380  -17.7620 o         1 AA5     -0.924833
     40 O3P        85.4520   43.9180  -15.6490 o         1 AA5     -0.924833
@<TRIPOS>BOND
     1    1    2 1   
     2    1   14 2   
     3    2    3 1   
     4    2    5 1   
     5    2   21 1   
     6    3    4 1   
     7    3    9 1   
     8    5    6 1   
     9    5   22 1   
    10    5   23 1   
    11    6    7 1   
    12    6   24 1   
    13    6   25 1   
    14    7    8 1   
    15    8   26 1   
    16    8   27 1   
    17    8   28 1   
    18   10   11 1   
    19   10   12 ar  
    20   10   18 ar  
    21   11   29 1   
    22   11   30 1   
    23   11   31 1   
    24   12   13 ar  
    25   12   37 1   
    26   13   14 1   
    27   13   15 ar  
    28   14   32 1   
    29   15   16 1   
    30   15   17 ar  
    31   16   19 1   
    32   16   33 1   
    33   16   34 1   
    34   17   18 ar  
    35   17   35 1   
    36   19   20 1   
    37   20   38 1   
    38   20   39 1   
    39   20   40 1   
    40   36   37 1   
@<TRIPOS>SUBSTRUCTURE
     1 AA5         1 TEMP              0 ****  ****    0 ROOT
