@<TRIPOS>MOLECULE
AA6
   33    33     1     0     0
SMALL
bcc


@<TRIPOS>ATOM
      1 N           2.4340   -1.7660   -0.5870 n3        1 AA6     -0.803200
      2 CA          1.9410   -0.4230   -0.2820 c3        1 AA6      0.028500
      3 C           3.0610    0.6440   -0.0530 c         1 AA6      0.890600
      4 O           4.2560    0.2650    0.0600 o         1 AA6     -0.837800
      5 CN          2.9310   -1.8830   -1.9370 c3        1 AA6      0.153100
      6 CB          1.0220   -0.4280    0.9550 c3        1 AA6     -0.016100
      7 CG         -0.4210   -0.3640    0.5880 ca        1 AA6     -0.135300
      8 CD1        -1.0130    0.8510    0.1020 ca        1 AA6      0.228600
      9 CD2        -1.2010   -1.5040    0.7210 ca        1 AA6     -0.091000
     10 CE1        -2.3930    0.8540   -0.2160 ca        1 AA6     -0.267000
     11 CE2        -2.5600   -1.4930    0.3890 ca        1 AA6     -0.069900
     12 CZ1        -3.1510   -0.3110   -0.0790 ca        1 AA6      0.149100
     13 OZ         -3.3770   -2.6040    0.5520 oh        1 AA6     -0.533100
     14 OH1        -4.4890   -0.2370   -0.4050 oh        1 AA6     -0.513100
     15 NE         -0.2490    1.9920   -0.0260 nh        1 AA6     -0.814600
     16 CZ2        -0.7430    3.1890   -0.6320 c3        1 AA6      0.419600
     17 OH2        -1.5550    3.9990    0.2180 oh        1 AA6     -0.634800
     18 OXT         2.6900    1.8560    0.0010 o         1 AA6     -0.837800
     19 HN          3.1920   -1.9580    0.0510 hn        1 AA6      0.356800
     20 HA          1.3430   -0.0660   -1.1710 h1        1 AA6      0.047700
     21 HCN1        3.7340   -1.1370   -2.1870 h1        1 AA6      0.018700
     22 HCN2        3.3470   -2.9160   -2.0760 h1        1 AA6      0.018700
     23 HCN3        2.0820   -1.7420   -2.6560 h1        1 AA6      0.018700
     24 HB1         1.2070   -1.3430    1.5800 hc        1 AA6      0.052200
     25 HB2         1.2890    0.4540    1.6010 hc        1 AA6      0.052200
     26 HD2        -0.7440   -2.4400    1.0800 ha        1 AA6      0.135000
     27 HE1        -2.8970    1.7580   -0.5860 ha        1 AA6      0.137000
     28 HOZ        -2.9030   -3.3460    0.1500 ho        1 AA6      0.406000
     29 HO1        -4.8640   -1.1210   -0.2690 ho        1 AA6      0.424000
     30 HNE         0.7500    1.9310    0.1320 hn        1 AA6      0.512800
     31 HZ1         0.1320    3.8580   -0.8830 h2        1 AA6      0.051200
     32 HZ2        -1.3410    2.9550   -1.5630 h2        1 AA6      0.051200
     33 HO2        -2.2100    3.4390    0.6510 ho        1 AA6      0.403000
@<TRIPOS>BOND
     1    1    2 1   
     2    1    5 1   
     3    1   19 1   
     4    2    3 1   
     5    2    6 1   
     6    2   20 1   
     7    3    4 1   
     8    3   18 1   
     9    5   21 1   
    10    5   22 1   
    11    5   23 1   
    12    6    7 1   
    13    6   24 1   
    14    6   25 1   
    15    7    8 ar  
    16    7    9 ar  
    17    8   10 ar  
    18    8   15 1   
    19    9   11 ar  
    20    9   26 1   
    21   10   12 ar  
    22   10   27 1   
    23   11   12 ar  
    24   11   13 1   
    25   12   14 1   
    26   13   28 1   
    27   14   29 1   
    28   15   16 1   
    29   15   30 1   
    30   16   17 1   
    31   16   31 1   
    32   16   32 1   
    33   17   33 1   
@<TRIPOS>SUBSTRUCTURE
     1 AA6         1 TEMP              0 ****  ****    0 ROOT
