@<TRIPOS>MOLECULE
AA7
   77    82     1     0     0
SMALL
bcc


@<TRIPOS>ATOM
      1 C1         -0.2340   -0.1870   -0.1330 ca        1 AA7      0.444600
      2 C2          1.1880    0.0280   -0.0380 ca        1 AA7     -0.166600
      3 C3          1.8570    0.2300    1.2760 c3        1 AA7     -0.024100
      4 C4          0.9180    0.4930    2.4330 c3        1 AA7     -0.080400
      5 C5         -0.2910   -0.4080    2.3660 c3        1 AA7     -0.079400
      6 C6         -1.0830   -0.1210    1.1120 c3        1 AA7     -0.132700
      7 N7         -0.8640   -0.4310   -1.2770 nb        1 AA7     -0.675000
      8 C8         -0.1340   -0.4680   -2.4430 ca        1 AA7      0.405600
      9 C9          1.2750   -0.2530   -2.4660 ca        1 AA7     -0.169300
     10 C10         1.9450   -0.0160   -1.2110 ca        1 AA7      0.121600
     11 N11         3.3640    0.1040   -1.1460 nu        1 AA7     -0.713600
     12 C14         1.9530   -0.2800   -3.7140 ca        1 AA7     -0.121000
     13 C15         1.2720   -0.5260   -4.8810 ca        1 AA7     -0.127000
     14 C16        -0.1230   -0.7570   -4.8610 ca        1 AA7     -0.127000
     15 C17        -0.8160   -0.7290   -3.6790 ca        1 AA7     -0.163300
     16 C19         9.7240    6.0910   -1.6090 c3        1 AA7      0.165800
     17 C20         9.2990    4.6290   -1.4780 c3        1 AA7     -0.084400
     18 C21         7.7890    4.5270   -1.5060 c3        1 AA7     -0.079400
     19 C22         7.3390    3.0870   -1.3760 c3        1 AA7     -0.078400
     20 C23         5.8290    2.9810   -1.4060 c3        1 AA7     -0.079400
     21 C24         5.3820    1.5410   -1.2730 c3        1 AA7     -0.084400
     22 C25         3.8570    1.4640   -1.3090 c3        1 AA7      0.165800
     23 C26        12.4060    9.5140   -2.9980 ca        1 AA7      0.444600
     24 C27        11.8790    8.1730   -2.9570 ca        1 AA7     -0.166600
     25 C28        11.6810    7.3790   -4.2000 c3        1 AA7     -0.024100
     26 C29        11.7790    8.1720   -5.4840 c3        1 AA7     -0.080400
     27 C30        12.9230    9.1570   -5.4280 c3        1 AA7     -0.079400
     28 C31        12.6830   10.1660   -4.3290 c3        1 AA7     -0.132700
     29 N32        12.6550   10.2370   -1.9110 nb        1 AA7     -0.675000
     30 C33        12.3860    9.6950   -0.6750 ca        1 AA7      0.405600
     31 C34        11.8480    8.3830   -0.5200 ca        1 AA7     -0.169300
     32 C35        11.6090    7.6040   -1.7110 ca        1 AA7      0.121600
     33 N36        11.1700    6.2500   -1.6270 nu        1 AA7     -0.713600
     34 C39        11.5710    7.9060    0.7880 ca        1 AA7     -0.121000
     35 C40        11.8320    8.6800    1.8910 ca        1 AA7     -0.127000
     36 C41        12.3810    9.9750    1.7430 ca        1 AA7     -0.127000
     37 C42        12.6520   10.4780    0.4970 ca        1 AA7     -0.163300
     38 H3C1        2.5810    1.0880    1.2080 hc        1 AA7      0.059200
     39 H3C2        2.4660   -0.6920    1.4930 hc        1 AA7      0.059200
     40 H4C1        1.4680    0.3270    3.3960 hc        1 AA7      0.042700
     41 H4C2        0.5870    1.5650    2.4190 hc        1 AA7      0.042700
     42 H5C1        0.0320   -1.4820    2.3800 hc        1 AA7      0.047200
     43 H5C2       -0.9460   -0.2410    3.2620 hc        1 AA7      0.047200
     44 H6C1       -1.9410   -0.8430    1.0390 hc        1 AA7      0.065200
     45 H6C2       -1.5220    0.9130    1.1700 hc        1 AA7      0.065200
     46 H11         3.7960   -0.5090   -1.8140 hn        1 AA7      0.373800
     47 H14         3.0360   -0.0900   -3.7570 ha        1 AA7      0.126000
     48 H15         1.8030   -0.5440   -5.8450 ha        1 AA7      0.133000
     49 H16        -0.6450   -0.9580   -5.8080 ha        1 AA7      0.135000
     50 H17        -1.9030   -0.9040   -3.6580 ha        1 AA7      0.150000
     51 H191        9.3200    6.5070   -2.5750 h1        1 AA7      0.037700
     52 H192        9.2500    6.6780   -0.7670 h1        1 AA7      0.037700
     53 H201        9.6870    4.1980   -0.5180 hc        1 AA7      0.048200
     54 H202        9.7350    4.0260   -2.3170 hc        1 AA7      0.048200
     55 H211        7.3990    4.9570   -2.4670 hc        1 AA7      0.042200
     56 H212        7.3520    5.1350   -0.6700 hc        1 AA7      0.042200
     57 H221        7.7270    2.6560   -0.4150 hc        1 AA7      0.042700
     58 H222        7.7760    2.4790   -2.2120 hc        1 AA7      0.042700
     59 H231        5.4410    3.4120   -2.3660 hc        1 AA7      0.042200
     60 H232        5.3930    3.5900   -0.5700 hc        1 AA7      0.042200
     61 H241        5.8190    0.9330   -2.1080 hc        1 AA7      0.048200
     62 H242        5.7660    1.1120   -0.3110 hc        1 AA7      0.048200
     63 H251        3.4370    2.0840   -0.4670 h1        1 AA7      0.037700
     64 H252        3.4970    1.9250   -2.2760 h1        1 AA7      0.037700
     65 H282       10.6760    6.8740   -4.1750 hc        1 AA7      0.059200
     66 H291       10.8190    8.7250   -5.6650 hc        1 AA7      0.042700
     67 H292       11.9240    7.4650   -6.3420 hc        1 AA7      0.042700
     68 H301       13.0180    9.6940   -6.4070 hc        1 AA7      0.047200
     69 H302       13.8860    8.6120   -5.2460 hc        1 AA7      0.047200
     70 H311       13.5710   10.8500   -4.2520 hc        1 AA7      0.065200
     71 H312       11.7930   10.8030   -4.5880 hc        1 AA7      0.065200
     72 H36        11.5850    5.7990   -0.8310 hn        1 AA7      0.373800
     73 H39        11.1310    6.9070    0.9290 ha        1 AA7      0.126000
     74 H40        11.6140    8.3050    2.9020 ha        1 AA7      0.133000
     75 H41        12.5860   10.5740    2.6430 ha        1 AA7      0.135000
     76 H42        13.0760   11.4870    0.3760 ha        1 AA7      0.150000
     77 H281       12.4550    6.5610   -4.2080 hc        1 AA7      0.059200
@<TRIPOS>BOND
     1    1    2 ar  
     2    1    6 1   
     3    1    7 ar  
     4    2    3 1   
     5    2   10 ar  
     6    3    4 1   
     7    3   38 1   
     8    3   39 1   
     9    4    5 1   
    10    4   40 1   
    11    4   41 1   
    12    5    6 1   
    13    5   42 1   
    14    5   43 1   
    15    6   44 1   
    16    6   45 1   
    17    7    8 ar  
    18    8    9 ar  
    19    8   15 ar  
    20    9   10 ar  
    21    9   12 ar  
    22   10   11 1   
    23   11   22 1   
    24   11   46 1   
    25   12   13 ar  
    26   12   47 1   
    27   13   14 ar  
    28   13   48 1   
    29   14   15 ar  
    30   14   49 1   
    31   15   50 1   
    32   16   17 1   
    33   16   33 1   
    34   16   51 1   
    35   16   52 1   
    36   17   18 1   
    37   17   53 1   
    38   17   54 1   
    39   18   19 1   
    40   18   55 1   
    41   18   56 1   
    42   19   20 1   
    43   19   57 1   
    44   19   58 1   
    45   20   21 1   
    46   20   59 1   
    47   20   60 1   
    48   21   22 1   
    49   21   61 1   
    50   21   62 1   
    51   22   63 1   
    52   22   64 1   
    53   23   24 ar  
    54   23   28 1   
    55   23   29 ar  
    56   24   25 1   
    57   24   32 ar  
    58   25   26 1   
    59   25   65 1   
    60   25   77 1   
    61   26   27 1   
    62   26   66 1   
    63   26   67 1   
    64   27   28 1   
    65   27   68 1   
    66   27   69 1   
    67   28   70 1   
    68   28   71 1   
    69   29   30 ar  
    70   30   31 ar  
    71   30   37 ar  
    72   31   32 ar  
    73   31   34 ar  
    74   32   33 1   
    75   33   72 1   
    76   34   35 ar  
    77   34   73 1   
    78   35   36 ar  
    79   35   74 1   
    80   36   37 ar  
    81   36   75 1   
    82   37   76 1   
@<TRIPOS>SUBSTRUCTURE
     1 AA7         1 TEMP              0 ****  ****    0 ROOT
