@<TRIPOS>MOLECULE
AA7
   77    72     1     0     0
SMALL
bcc


@<TRIPOS>ATOM
      1 C1         -5.8290   -4.6340   -0.7650 c1        1 AA7      0.376700
      2 C2         -4.6180   -3.9000   -0.3540 c1        1 AA7     -0.073100
      3 C3         -3.5920   -3.4500   -1.5060 c3        1 AA7     -0.059300
      4 C4         -3.8810   -3.8960   -2.8200 c3        1 AA7     -0.079900
      5 C5         -5.2950   -3.9870   -3.1950 c3        1 AA7     -0.079900
      6 C6         -6.1470   -4.7270   -2.3270 c3        1 AA7     -0.065300
      7 N7         -6.6870   -5.1050    0.1730 n1        1 AA7     -0.477300
      8 C8         -6.4240   -4.8940    1.5540 cg        1 AA7     -0.045500
      9 C9         -5.2700   -4.1940    1.9560 cg        1 AA7     -0.045500
     10 C10        -4.3650   -3.6960    0.9800 c1        1 AA7      0.101300
     11 N11        -3.0780   -3.4020    1.5530 n3        1 AA7     -0.689800
     12 C14        -5.0320   -3.9620    3.3100 c1        1 AA7     -0.052000
     13 C15        -5.9470   -4.4290    4.2760 c1        1 AA7     -0.069750
     14 C16        -7.1010   -5.1290    3.8710 c1        1 AA7     -0.069750
     15 C17        -7.3360   -5.3590    2.5110 c1        1 AA7     -0.052000
     16 C19         3.0800    2.4690    1.1410 c3        1 AA7      0.167800
     17 C20         2.7320    1.0850    1.5990 c3        1 AA7     -0.084900
     18 C21         1.2690    1.0500    2.0380 c3        1 AA7     -0.079400
     19 C22         0.8380   -0.4240    2.2920 c3        1 AA7     -0.078400
     20 C23        -0.6810   -0.5080    2.3070 c3        1 AA7     -0.079400
     21 C24        -1.1280   -1.9900    2.1440 c3        1 AA7     -0.084900
     22 C25        -2.6750   -2.0370    1.7490 c3        1 AA7      0.167800
     23 C26         4.7430    4.8590   -2.6540 c1        1 AA7      0.376700
     24 C27         4.2640    3.6920   -1.8630 c1        1 AA7     -0.073100
     25 C28         3.2960    2.6510   -2.5960 c3        1 AA7     -0.059300
     26 C29         2.8350    3.0210   -3.9140 c3        1 AA7     -0.079900
     27 C30         3.7720    3.7300   -4.7550 c3        1 AA7     -0.079900
     28 C31         4.3820    4.9010   -4.2040 c3        1 AA7     -0.065300
     29 N32         5.5520    5.7740   -2.0850 n1        1 AA7     -0.477300
     30 C33         5.9500    5.6280   -0.7310 cg        1 AA7     -0.045500
     31 C34         5.4920    4.5090    0.0330 cg        1 AA7     -0.045500
     32 C35         4.6480    3.5510   -0.5560 c1        1 AA7      0.101300
     33 N36         4.3210    2.4360    0.3740 n3        1 AA7     -0.689800
     34 C39         5.9300    4.3270    1.3240 c1        1 AA7     -0.052000
     35 C40         6.8340    5.2450    1.9010 c1        1 AA7     -0.069750
     36 C41         7.2970    6.3690    1.1430 c1        1 AA7     -0.069750
     37 C42         6.8580    6.5520   -0.1540 c1        1 AA7     -0.052000
     38 H3C1       -2.7500   -3.7650   -1.2760 hc        1 AA7      0.058450
     39 H3C2       -3.5590   -2.4330   -1.5170 hc        1 AA7      0.058450
     40 H4C1       -3.4260   -3.2640   -3.4740 hc        1 AA7      0.043700
     41 H4C2       -3.4730   -4.8080   -2.9320 hc        1 AA7      0.043700
     42 H5C1       -5.3420   -4.3820   -4.0520 hc        1 AA7      0.046450
     43 H5C2       -5.6570   -3.0550   -3.2620 hc        1 AA7      0.046450
     44 H6C1       -6.0980   -5.7210   -2.6050 hc        1 AA7      0.065200
     45 H6C2       -7.0560   -4.4180   -2.4670 hc        1 AA7      0.065200
     46 H11        -2.4690   -4.1270    1.7790 hn        1 AA7      0.375300
     47 H14        -4.1760   -3.4430    3.6080 ha        1 AA7      0.080250
     48 H15        -5.7810   -4.2690    5.2240 ha        1 AA7      0.076500
     49 H16        -7.7240   -5.4490    4.5250 ha        1 AA7      0.076500
     50 H17        -8.1290   -5.8400    2.2290 ha        1 AA7      0.080250
     51 H191        2.3360    2.8260    0.5610 h1        1 AA7      0.038200
     52 H192        3.1930    3.0600    1.9330 h1        1 AA7      0.038200
     53 H201        3.2930    0.8400    2.3360 hc        1 AA7      0.048200
     54 H202        2.8670    0.4490    0.8600 hc        1 AA7      0.048200
     55 H211        1.1600    1.5820    2.8830 hc        1 AA7      0.042700
     56 H212        0.7200    1.4270    1.3520 hc        1 AA7      0.042700
     57 H221        1.1710   -0.9660    1.6190 hc        1 AA7      0.042200
     58 H222        1.1600   -0.6970    3.0830 hc        1 AA7      0.042200
     59 H231       -1.0510    0.0370    1.5530 hc        1 AA7      0.042700
     60 H232       -1.0020   -0.1760    3.1150 hc        1 AA7      0.042700
     61 H241       -0.6060   -2.4090    1.4540 hc        1 AA7      0.048200
     62 H242       -0.9900   -2.4770    3.0050 hc        1 AA7      0.048200
     63 H251       -3.1850   -1.6550    2.4360 h1        1 AA7      0.038200
     64 H252       -2.8200   -1.5220    0.9040 h1        1 AA7      0.038200
     65 H281        3.8200    1.7160   -2.6790 hc        1 AA7      0.058450
     66 H282        2.5030    2.5120   -2.0170 hc        1 AA7      0.058450
     67 H291        2.0270    3.5890   -3.8080 hc        1 AA7      0.043700
     68 H292        2.5680    2.1880   -4.3910 hc        1 AA7      0.043700
     69 H301        3.2830    4.0040   -5.6110 hc        1 AA7      0.046450
     70 H302        4.4610    3.1300   -4.9910 hc        1 AA7      0.046450
     71 H311        3.7730    5.6590   -4.3540 hc        1 AA7      0.065200
     72 H312        5.2490    5.0780   -4.7250 hc        1 AA7      0.065200
     73 H36         4.8620    1.6870    0.4040 hn        1 AA7      0.375300
     74 H39         5.6010    3.5280    1.8620 ha        1 AA7      0.080250
     75 H40         7.1420    5.1150    2.8160 ha        1 AA7      0.076500
     76 H41         7.9260    7.0080    1.5440 ha        1 AA7      0.076500
     77 H42         7.1720    7.3170   -0.6720 ha        1 AA7      0.080250
@<TRIPOS>BOND
     1    1    6 1   
     2    1    7 3   
     3    2    3 1   
     4    2   10 3   
     5    3    4 1   
     6    3   38 1   
     7    3   39 1   
     8    4    5 1   
     9    4   40 1   
    10    4   41 1   
    11    5    6 1   
    12    5   42 1   
    13    5   43 1   
    14    6   44 1   
    15    6   45 1   
    16    8    9 1   
    17    8   15 3   
    18    9   12 3   
    19   10   11 1   
    20   11   22 1   
    21   11   46 1   
    22   12   47 1   
    23   13   14 3   
    24   13   48 1   
    25   14   49 1   
    26   15   50 1   
    27   16   17 1   
    28   16   33 1   
    29   16   51 1   
    30   16   52 1   
    31   17   18 1   
    32   17   53 1   
    33   17   54 1   
    34   18   19 1   
    35   18   55 1   
    36   18   56 1   
    37   19   20 1   
    38   19   57 1   
    39   19   58 1   
    40   20   21 1   
    41   20   59 1   
    42   20   60 1   
    43   21   22 1   
    44   21   61 1   
    45   21   62 1   
    46   22   63 1   
    47   22   64 1   
    48   23   28 1   
    49   23   29 3   
    50   24   25 1   
    51   24   32 3   
    52   25   26 1   
    53   25   65 1   
    54   25   66 1   
    55   26   27 1   
    56   26   67 1   
    57   26   68 1   
    58   27   28 1   
    59   27   69 1   
    60   27   70 1   
    61   28   71 1   
    62   28   72 1   
    63   30   31 1   
    64   30   37 3   
    65   31   34 3   
    66   32   33 1   
    67   33   73 1   
    68   34   74 1   
    69   35   36 3   
    70   35   75 1   
    71   36   76 1   
    72   37   77 1   
@<TRIPOS>SUBSTRUCTURE
     1 AA7         1 TEMP              0 ****  ****    0 ROOT
