@<TRIPOS>MOLECULE
AA7
   77    82     1     0     0
SMALL
bcc


@<TRIPOS>ATOM
      1 C1         -0.2280   -0.1980   -0.1220 ca        1 AA7      0.444600
      2 C2          1.1950    0.0170   -0.0340 ca        1 AA7     -0.166600
      3 C3          1.8710    0.2070    1.2780 c3        1 AA7     -0.024100
      4 C4          0.9390    0.4580    2.4430 c3        1 AA7     -0.080400
      5 C5         -0.2700   -0.4440    2.3740 c3        1 AA7     -0.079400
      6 C6         -1.0700   -0.1440    1.1270 c3        1 AA7     -0.132700
      7 N7         -0.8650   -0.4300   -1.2660 nb        1 AA7     -0.675000
      8 C8         -0.1420   -0.4560   -2.4360 ca        1 AA7      0.405600
      9 C9          1.2680   -0.2400   -2.4660 ca        1 AA7     -0.169300
     10 C10         1.9440   -0.0150   -1.2120 ca        1 AA7      0.120600
     11 N11         3.3640    0.1060   -1.1540 nh        1 AA7     -0.713600
     12 C14         1.9380   -0.2530   -3.7170 ca        1 AA7     -0.121000
     13 C15         1.2510   -0.4880   -4.8830 ca        1 AA7     -0.127000
     14 C16        -0.1440   -0.7200   -4.8560 ca        1 AA7     -0.127000
     15 C17        -0.8300   -0.7040   -3.6700 ca        1 AA7     -0.163300
     16 C19         9.7220    6.0960   -1.6020 c3        1 AA7      0.165800
     17 C20         9.2960    4.6350   -1.4680 c3        1 AA7     -0.084400
     18 C21         7.7860    4.5320   -1.4990 c3        1 AA7     -0.079400
     19 C22         7.3370    3.0920   -1.3700 c3        1 AA7     -0.078400
     20 C23         5.8270    2.9860   -1.4000 c3        1 AA7     -0.079400
     21 C24         5.3810    1.5440   -1.2740 c3        1 AA7     -0.084400
     22 C25         3.8550    1.4660   -1.3060 c3        1 AA7      0.165800
     23 C26        12.4080    9.5070   -3.0130 ca        1 AA7      0.444600
     24 C27        11.8800    8.1660   -2.9620 ca        1 AA7     -0.166600
     25 C28        11.6850    7.3620   -4.1980 c3        1 AA7     -0.024100
     26 C29        11.7870    8.1440   -5.4890 c3        1 AA7     -0.080400
     27 C30        12.9310    9.1290   -5.4380 c3        1 AA7     -0.079400
     28 C31        12.6890   10.1480   -4.3480 c3        1 AA7     -0.132700
     29 N32        12.6540   10.2390   -1.9310 nb        1 AA7     -0.675000
     30 C33        12.3820    9.7080   -0.6920 ca        1 AA7      0.405600
     31 C34        11.8430    8.3980   -0.5270 ca        1 AA7     -0.169300
     32 C35        11.6070    7.6090   -1.7110 ca        1 AA7      0.120600
     33 N36        11.1680    6.2550   -1.6170 nh        1 AA7     -0.713600
     34 C39        11.5630    7.9310    0.7850 ca        1 AA7     -0.121000
     35 C40        11.8200    8.7150    1.8820 ca        1 AA7     -0.127000
     36 C41        12.3700   10.0080    1.7240 ca        1 AA7     -0.127000
     37 C42        12.6450   10.5010    0.4740 ca        1 AA7     -0.163300
     38 H3C1        2.4820   -0.7170    1.4820 hc        1 AA7      0.059200
     39 H3C2        2.5940    1.0660    1.2140 hc        1 AA7      0.059200
     40 H4C1        0.6070    1.5290    2.4410 hc        1 AA7      0.042700
     41 H4C2        1.4950    0.2820    3.4010 hc        1 AA7      0.042700
     42 H5C1       -0.9190   -0.2860    3.2750 hc        1 AA7      0.047200
     43 H5C2        0.0540   -1.5170    2.3750 hc        1 AA7      0.047200
     44 H6C1       -1.5090    0.8890    1.1990 hc        1 AA7      0.065200
     45 H6C2       -1.9270   -0.8660    1.0530 hc        1 AA7      0.065200
     46 H11         3.7920   -0.5010   -1.8300 hn        1 AA7      0.373800
     47 H14         3.0210   -0.0630   -3.7650 ha        1 AA7      0.126000
     48 H15         1.7760   -0.4960   -5.8490 ha        1 AA7      0.133000
     49 H16        -0.6720   -0.9110   -5.8030 ha        1 AA7      0.135000
     50 H17        -1.9180   -0.8790   -3.6450 ha        1 AA7      0.150000
     51 H191        9.2450    6.6860   -0.7640 h1        1 AA7      0.037700
     52 H192        9.3200    6.5090   -2.5710 h1        1 AA7      0.037700
     53 H201        9.6830    4.2070   -0.5060 hc        1 AA7      0.048200
     54 H202        9.7340    4.0290   -2.3040 hc        1 AA7      0.048200
     55 H211        7.3480    5.1380   -0.6630 hc        1 AA7      0.042200
     56 H212        7.3980    4.9630   -2.4590 hc        1 AA7      0.042200
     57 H221        7.7250    2.6600   -0.4110 hc        1 AA7      0.042700
     58 H222        7.7740    2.4850   -2.2070 hc        1 AA7      0.042700
     59 H231        5.3910    3.5900   -0.5620 hc        1 AA7      0.042200
     60 H232        5.4380    3.4210   -2.3590 hc        1 AA7      0.042200
     61 H241        5.8160    0.9410   -2.1140 hc        1 AA7      0.048200
     62 H242        5.7680    1.1100   -0.3160 hc        1 AA7      0.048200
     63 H251        3.4930    1.9360   -2.2680 h1        1 AA7      0.037700
     64 H252        3.4380    2.0800   -0.4580 h1        1 AA7      0.037700
     65 H282       12.4590    6.5430   -4.1970 hc        1 AA7      0.059200
     66 H291       11.9340    7.4290   -6.3400 hc        1 AA7      0.042700
     67 H292       10.8280    8.6950   -5.6780 hc        1 AA7      0.042700
     68 H301       13.0280    9.6570   -6.4220 hc        1 AA7      0.047200
     69 H302       13.8930    8.5850   -5.2490 hc        1 AA7      0.047200
     70 H311       11.8000   10.7830   -4.6150 hc        1 AA7      0.065200
     71 H312       13.5770   10.8320   -4.2750 hc        1 AA7      0.065200
     72 H36        11.5800    5.8110   -0.8160 hn        1 AA7      0.373800
     73 H39        11.1220    6.9340    0.9330 ha        1 AA7      0.126000
     74 H40        11.6000    8.3480    2.8960 ha        1 AA7      0.133000
     75 H41        12.5730   10.6160    2.6190 ha        1 AA7      0.135000
     76 H42        13.0690   11.5090    0.3460 ha        1 AA7      0.150000
     77 H281       10.6800    6.8570   -4.1710 hc        1 AA7      0.059200
@<TRIPOS>BOND
     1    1    2 ar  
     2    1    6 1   
     3    1    7 ar  
     4    2    3 1   
     5    2   10 ar  
     6    3    4 1   
     7    3   38 1   
     8    3   39 1   
     9    4    5 1   
    10    4   40 1   
    11    4   41 1   
    12    5    6 1   
    13    5   42 1   
    14    5   43 1   
    15    6   44 1   
    16    6   45 1   
    17    7    8 ar  
    18    8    9 ar  
    19    8   15 ar  
    20    9   10 ar  
    21    9   12 ar  
    22   10   11 1   
    23   11   22 1   
    24   11   46 1   
    25   12   13 ar  
    26   12   47 1   
    27   13   14 ar  
    28   13   48 1   
    29   14   15 ar  
    30   14   49 1   
    31   15   50 1   
    32   16   17 1   
    33   16   33 1   
    34   16   51 1   
    35   16   52 1   
    36   17   18 1   
    37   17   53 1   
    38   17   54 1   
    39   18   19 1   
    40   18   55 1   
    41   18   56 1   
    42   19   20 1   
    43   19   57 1   
    44   19   58 1   
    45   20   21 1   
    46   20   59 1   
    47   20   60 1   
    48   21   22 1   
    49   21   61 1   
    50   21   62 1   
    51   22   63 1   
    52   22   64 1   
    53   23   24 ar  
    54   23   28 1   
    55   23   29 ar  
    56   24   25 1   
    57   24   32 ar  
    58   25   26 1   
    59   25   65 1   
    60   25   77 1   
    61   26   27 1   
    62   26   66 1   
    63   26   67 1   
    64   27   28 1   
    65   27   68 1   
    66   27   69 1   
    67   28   70 1   
    68   28   71 1   
    69   29   30 ar  
    70   30   31 ar  
    71   30   37 ar  
    72   31   32 ar  
    73   31   34 ar  
    74   32   33 1   
    75   33   72 1   
    76   34   35 ar  
    77   34   73 1   
    78   35   36 ar  
    79   35   74 1   
    80   36   37 ar  
    81   36   75 1   
    82   37   76 1   
@<TRIPOS>SUBSTRUCTURE
     1 AA7         1 TEMP              0 ****  ****    0 ROOT
