@<TRIPOS>MOLECULE
AA7
   77    82     1     0     0
SMALL
bcc


@<TRIPOS>ATOM
      1 C1         -8.0290   -0.9310    0.6530 ca        1 AA7      0.444600
      2 C2         -6.7850   -1.0290   -0.0700 ca        1 AA7     -0.166600
      3 C3         -6.2180   -2.3470   -0.4630 c3        1 AA7     -0.024100
      4 C4         -6.8650   -3.5420    0.2030 c3        1 AA7     -0.080400
      5 C5         -8.3660   -3.3860    0.2580 c3        1 AA7     -0.079400
      6 C6         -8.7320   -2.1870    1.1020 c3        1 AA7     -0.132700
      7 N7         -8.6020    0.2250    0.9720 nb        1 AA7     -0.675000
      8 C8         -7.9790    1.3980    0.6120 ca        1 AA7      0.405600
      9 C9         -6.7390    1.4170   -0.0910 ca        1 AA7     -0.169300
     10 C10        -6.1450    0.1520   -0.4510 ca        1 AA7      0.120600
     11 N11        -4.9600    0.0950   -1.2420 nh        1 AA7     -0.713600
     12 C14        -6.1450    2.6690   -0.4020 ca        1 AA7     -0.121000
     13 C15        -6.7580    3.8460   -0.0510 ca        1 AA7     -0.127000
     14 C16        -7.9970    3.8320    0.6300 ca        1 AA7     -0.127000
     15 C17        -8.5980    2.6450    0.9590 ca        1 AA7     -0.163300
     16 C19         3.7510   -0.0700   -0.4710 c3        1 AA7      0.165800
     17 C20         2.5080   -0.0240   -1.3580 c3        1 AA7     -0.084400
     18 C21         1.2610   -0.0130   -0.5010 c3        1 AA7     -0.079400
     19 C22         0.0130    0.0280   -1.3570 c3        1 AA7     -0.078400
     20 C23        -1.2360    0.0440   -0.5010 c3        1 AA7     -0.079400
     21 C24        -2.4830    0.0800   -1.3600 c3        1 AA7     -0.084400
     22 C25        -3.7260    0.1000   -0.4720 c3        1 AA7      0.165800
     23 C26         8.0510    0.9300    0.6890 ca        1 AA7      0.444600
     24 C27         6.8090    1.0480   -0.0320 ca        1 AA7     -0.166600
     25 C28         6.2410    2.3770   -0.3870 c3        1 AA7     -0.024100
     26 C29         6.8870    3.5520    0.3140 c3        1 AA7     -0.080400
     27 C30         8.3880    3.3950    0.3660 c3        1 AA7     -0.079400
     28 C31         8.7540    2.1720    1.1750 c3        1 AA7     -0.132700
     29 N32         8.6250   -0.2350    0.9750 nb        1 AA7     -0.675000
     30 C33         8.0030   -1.3970    0.5800 ca        1 AA7      0.405600
     31 C34         6.7630   -1.3950   -0.1250 ca        1 AA7     -0.169300
     32 C35         6.1700   -0.1210   -0.4480 ca        1 AA7      0.120600
     33 N36         4.9860   -0.0410   -1.2390 nh        1 AA7     -0.713600
     34 C39         6.1700   -2.6380   -0.4730 ca        1 AA7     -0.121000
     35 C40         6.7830   -3.8250   -0.1560 ca        1 AA7     -0.127000
     36 C41         8.0220   -3.8310    0.5270 ca        1 AA7     -0.127000
     37 C42         8.6210   -2.6540    0.8910 ca        1 AA7     -0.163300
     38 H3C1       -6.3210   -2.4430   -1.5800 hc        1 AA7      0.059200
     39 H3C2       -5.1170   -2.3720   -0.2360 hc        1 AA7      0.059200
     40 H4C1       -6.5960   -4.4700   -0.3660 hc        1 AA7      0.042700
     41 H4C2       -6.4640   -3.6620    1.2440 hc        1 AA7      0.042700
     42 H5C1       -8.7750   -3.2650   -0.7790 hc        1 AA7      0.047200
     43 H5C2       -8.8330   -4.3050    0.7000 hc        1 AA7      0.047200
     44 H6C1       -9.8460   -2.0410    1.0790 hc        1 AA7      0.065200
     45 H6C2       -8.4430   -2.3760    2.1720 hc        1 AA7      0.065200
     46 H11        -4.9580    0.8380   -1.9180 hn        1 AA7      0.373800
     47 H14        -5.1750    2.7050   -0.9200 ha        1 AA7      0.126000
     48 H15        -6.2920    4.8130   -0.2940 ha        1 AA7      0.133000
     49 H16        -8.4720    4.7890    0.8950 ha        1 AA7      0.135000
     50 H17        -9.5610    2.6290    1.4940 ha        1 AA7      0.150000
     51 H191        3.7490    0.8280    0.2110 h1        1 AA7      0.037700
     52 H192        3.6880   -0.9880    0.1860 h1        1 AA7      0.037700
     53 H201        2.4880   -0.9150   -2.0400 hc        1 AA7      0.048200
     54 H202        2.5310    0.8920   -2.0050 hc        1 AA7      0.048200
     55 H211        1.2790    0.8790    0.1800 hc        1 AA7      0.042700
     56 H212        1.2400   -0.9260    0.1510 hc        1 AA7      0.042700
     57 H221       -0.0080   -0.8650   -2.0360 hc        1 AA7      0.042700
     58 H222        0.0340    0.9400   -2.0100 hc        1 AA7      0.042700
     59 H231       -1.2560   -0.8680    0.1530 hc        1 AA7      0.042700
     60 H232       -1.2170    0.9370    0.1770 hc        1 AA7      0.042700
     61 H241       -2.4620    0.9900   -2.0150 hc        1 AA7      0.048200
     62 H242       -2.5060   -0.8160   -2.0330 hc        1 AA7      0.048200
     63 H251       -3.7260   -0.8170    0.1830 h1        1 AA7      0.037700
     64 H252       -3.6640    0.9990    0.2110 h1        1 AA7      0.037700
     65 H282        5.1400    2.3950   -0.1610 hc        1 AA7      0.059200
     66 H291        6.6180    4.4960   -0.2280 hc        1 AA7      0.042700
     67 H292        6.4850    3.6410    1.3580 hc        1 AA7      0.042700
     68 H301        8.7980    3.3050   -0.6740 hc        1 AA7      0.047200
     69 H302        8.8540    4.3010    0.8360 hc        1 AA7      0.047200
     70 H311        9.8670    2.0280    1.1490 hc        1 AA7      0.065200
     71 H312        8.4630    2.3290    2.2500 hc        1 AA7      0.065200
     72 H36         4.9840   -0.7650   -1.9360 hn        1 AA7      0.373800
     73 H39         5.2000   -2.6600   -0.9930 ha        1 AA7      0.126000
     74 H40         6.3180   -4.7850   -0.4280 ha        1 AA7      0.133000
     75 H41         8.4960   -4.7950    0.7640 ha        1 AA7      0.135000
     76 H42         9.5840   -2.6530    1.4270 ha        1 AA7      0.150000
     77 H281        6.3460    2.5060   -1.5010 hc        1 AA7      0.059200
@<TRIPOS>BOND
     1    1    2 ar  
     2    1    6 1   
     3    1    7 ar  
     4    2    3 1   
     5    2   10 ar  
     6    3    4 1   
     7    3   38 1   
     8    3   39 1   
     9    4    5 1   
    10    4   40 1   
    11    4   41 1   
    12    5    6 1   
    13    5   42 1   
    14    5   43 1   
    15    6   44 1   
    16    6   45 1   
    17    7    8 ar  
    18    8    9 ar  
    19    8   15 ar  
    20    9   10 ar  
    21    9   12 ar  
    22   10   11 1   
    23   11   22 1   
    24   11   46 1   
    25   12   13 ar  
    26   12   47 1   
    27   13   14 ar  
    28   13   48 1   
    29   14   15 ar  
    30   14   49 1   
    31   15   50 1   
    32   16   17 1   
    33   16   33 1   
    34   16   51 1   
    35   16   52 1   
    36   17   18 1   
    37   17   53 1   
    38   17   54 1   
    39   18   19 1   
    40   18   55 1   
    41   18   56 1   
    42   19   20 1   
    43   19   57 1   
    44   19   58 1   
    45   20   21 1   
    46   20   59 1   
    47   20   60 1   
    48   21   22 1   
    49   21   61 1   
    50   21   62 1   
    51   22   63 1   
    52   22   64 1   
    53   23   24 ar  
    54   23   28 1   
    55   23   29 ar  
    56   24   25 1   
    57   24   32 ar  
    58   25   26 1   
    59   25   65 1   
    60   25   77 1   
    61   26   27 1   
    62   26   66 1   
    63   26   67 1   
    64   27   28 1   
    65   27   68 1   
    66   27   69 1   
    67   28   70 1   
    68   28   71 1   
    69   29   30 ar  
    70   30   31 ar  
    71   30   37 ar  
    72   31   32 ar  
    73   31   34 ar  
    74   32   33 1   
    75   33   72 1   
    76   34   35 ar  
    77   34   73 1   
    78   35   36 ar  
    79   35   74 1   
    80   36   37 ar  
    81   36   75 1   
    82   37   76 1   
@<TRIPOS>SUBSTRUCTURE
     1 AA7         1 TEMP              0 ****  ****    0 ROOT
