@<TRIPOS>MOLECULE
AA7
   79    84     1     0     0
SMALL
bcc


@<TRIPOS>ATOM
      1 C1         -0.2460   -0.1560   -0.0660 ca        1 AA7      0.451600
      2 C2          1.1940   -0.0520    0.0500 ca        1 AA7     -0.116600
      3 C3          1.8620   -0.0180    1.3790 c3        1 AA7     -0.056100
      4 C4          0.9260    0.2350    2.5440 c3        1 AA7     -0.077400
      5 C5         -0.3330   -0.5860    2.4080 c3        1 AA7     -0.087400
      6 C6         -1.1000   -0.1700    1.1750 c3        1 AA7     -0.141700
      7 N7         -0.8680   -0.2250   -1.2380 nb        1 AA7     -0.604000
      8 C8         -0.1420   -0.1900   -2.4030 ca        1 AA7      0.414600
      9 C9          1.2860   -0.0830   -2.4140 ca        1 AA7     -0.135300
     10 C10         1.9280   -0.0320   -1.1330 ca        1 AA7     -0.036400
     11 N11         3.3960    0.0110   -1.0920 n4        1 AA7     -0.630400
     12 C14         1.9640   -0.0440   -3.6590 ca        1 AA7     -0.177000
     13 C15         1.2640   -0.1230   -4.8410 ca        1 AA7     -0.063000
     14 C16        -0.1450   -0.2370   -4.8380 ca        1 AA7     -0.110000
     15 C17        -0.8400   -0.2680   -3.6550 ca        1 AA7     -0.129300
     16 C19         9.7730    6.0070   -1.6720 c3        1 AA7      0.101800
     17 C20         9.3640    4.5460   -1.5200 c3        1 AA7     -0.109400
     18 C21         7.8500    4.4460   -1.5240 c3        1 AA7     -0.077400
     19 C22         7.4050    3.0050   -1.3730 c3        1 AA7     -0.079400
     20 C23         5.8920    2.9070   -1.3760 c3        1 AA7     -0.077400
     21 C24         5.4440    1.4650   -1.2260 c3        1 AA7     -0.109400
     22 C25         3.9210    1.4060   -1.2350 c3        1 AA7      0.101800
     23 C26        12.3800    9.5330   -3.0670 ca        1 AA7      0.451600
     24 C27        11.9580    8.1480   -3.0360 ca        1 AA7     -0.116600
     25 C28        11.9160    7.3240   -4.2740 c3        1 AA7     -0.056100
     26 C29        12.0180    8.1200   -5.5590 c3        1 AA7     -0.077400
     27 C30        13.0890    9.1790   -5.4510 c3        1 AA7     -0.087400
     28 C31        12.7280   10.1820   -4.3810 c3        1 AA7     -0.141700
     29 N32        12.4610   10.2820   -1.9740 nb        1 AA7     -0.604000
     30 C33        12.1300    9.7510   -0.7510 ca        1 AA7      0.414600
     31 C34        11.6940    8.3960   -0.5960 ca        1 AA7     -0.135300
     32 C35        11.6370    7.6080   -1.7930 ca        1 AA7     -0.036400
     33 N36        11.2590    6.1930   -1.6770 n4        1 AA7     -0.630400
     34 C39        11.3610    7.9230    0.6990 ca        1 AA7     -0.177000
     35 C40        11.4690    8.7470    1.7950 ca        1 AA7     -0.063000
     36 C41        11.9070   10.0840    1.6510 ca        1 AA7     -0.110000
     37 C42        12.2290   10.5830    0.4140 ca        1 AA7     -0.129300
     38 H3C1        2.3710   -1.0110    1.5400 hc        1 AA7      0.050700
     39 H3C2        2.6530    0.7820    1.3950 hc        1 AA7      0.050700
     40 H4C1        0.6640    1.3250    2.5910 hc        1 AA7      0.065700
     41 H4C2        1.4550   -0.0250    3.4990 hc        1 AA7      0.065700
     42 H5C1       -0.9840   -0.4370    3.3100 hc        1 AA7      0.070200
     43 H5C2       -0.0790   -1.6780    2.3570 hc        1 AA7      0.070200
     44 H6C1       -1.9780   -0.8580    1.0320 hc        1 AA7      0.091700
     45 H6C2       -1.5140    0.8680    1.3150 hc        1 AA7      0.091700
     46 H11         3.7600   -0.5720   -1.8570 hn        1 AA7      0.455800
     47 H14         3.0580    0.0540   -3.7080 ha        1 AA7      0.111000
     48 H15         1.7960   -0.0980   -5.8070 ha        1 AA7      0.159000
     49 H16        -0.6810   -0.3020   -5.8000 ha        1 AA7      0.171000
     50 H17        -1.9410   -0.3550   -3.6450 ha        1 AA7      0.183000
     51 H191        9.3590    6.6220   -0.8200 hx        1 AA7      0.113700
     52 H192        9.3740    6.4280   -2.6390 hx        1 AA7      0.113700
     53 H201        9.7810    3.9320   -2.3620 hc        1 AA7      0.066200
     54 H202        9.7650    4.1250   -0.5600 hc        1 AA7      0.066200
     55 H211        7.4290    5.0600   -0.6830 hc        1 AA7      0.060700
     56 H212        7.4460    4.8670   -2.4820 hc        1 AA7      0.060700
     57 H221        7.8250    2.3900   -2.2130 hc        1 AA7      0.054700
     58 H222        7.8080    2.5830   -0.4150 hc        1 AA7      0.054700
     59 H231        5.4890    3.3290   -2.3350 hc        1 AA7      0.060700
     60 H232        5.4730    3.5220   -0.5360 hc        1 AA7      0.060700
     61 H241        5.8650    0.8530   -2.0680 hc        1 AA7      0.066200
     62 H242        5.8470    1.0460   -0.2650 hc        1 AA7      0.066200
     63 H251        3.5000    2.0180   -0.3860 hx        1 AA7      0.113700
     64 H252        3.5170    1.8210   -2.2040 hx        1 AA7      0.113700
     65 H291       11.0310    8.6030   -5.7870 hc        1 AA7      0.065700
     66 H292       12.2530    7.4200   -6.4040 hc        1 AA7      0.065700
     67 H301       14.0790    8.7040   -5.2210 hc        1 AA7      0.070200
     68 H302       13.1960    9.7130   -6.4320 hc        1 AA7      0.070200
     69 H311       11.8360   10.7870   -4.7090 hc        1 AA7      0.091700
     70 H312       13.5810   10.9020   -4.2420 hc        1 AA7      0.091700
     71 H36        11.6540    5.8210   -0.8020 hn        1 AA7      0.455800
     72 H39        11.0070    6.8940    0.8540 ha        1 AA7      0.111000
     73 H40        11.2150    8.3730    2.8010 ha        1 AA7      0.159000
     74 H41        11.9870   10.7220    2.5480 ha        1 AA7      0.171000
     75 H42        12.5690   11.6270    0.2940 ha        1 AA7      0.183000
     76 H281       12.7760    6.5950   -4.2370 hc        1 AA7      0.050700
     77 H112        3.7240   -0.3880   -0.2030 hn        1 AA7      0.455800
     78 H362       11.6670    5.6650   -2.4590 hn        1 AA7      0.455800
     79 H282       10.9610    6.7300   -4.3140 hc        1 AA7      0.050700
@<TRIPOS>BOND
     1    1    2 ar  
     2    1    6 1   
     3    1    7 ar  
     4    2    3 1   
     5    2   10 ar  
     6    3    4 1   
     7    3   38 1   
     8    3   39 1   
     9    4    5 1   
    10    4   40 1   
    11    4   41 1   
    12    5    6 1   
    13    5   42 1   
    14    5   43 1   
    15    6   44 1   
    16    6   45 1   
    17    7    8 ar  
    18    8    9 ar  
    19    8   15 ar  
    20    9   10 ar  
    21    9   12 ar  
    22   10   11 1   
    23   11   22 1   
    24   11   46 1   
    25   11   77 1   
    26   12   13 ar  
    27   12   47 1   
    28   13   14 ar  
    29   13   48 1   
    30   14   15 ar  
    31   14   49 1   
    32   15   50 1   
    33   16   17 1   
    34   16   33 1   
    35   16   51 1   
    36   16   52 1   
    37   17   18 1   
    38   17   53 1   
    39   17   54 1   
    40   18   19 1   
    41   18   55 1   
    42   18   56 1   
    43   19   20 1   
    44   19   57 1   
    45   19   58 1   
    46   20   21 1   
    47   20   59 1   
    48   20   60 1   
    49   21   22 1   
    50   21   61 1   
    51   21   62 1   
    52   22   63 1   
    53   22   64 1   
    54   23   24 ar  
    55   23   28 1   
    56   23   29 ar  
    57   24   25 1   
    58   24   32 ar  
    59   25   26 1   
    60   25   76 1   
    61   25   79 1   
    62   26   27 1   
    63   26   65 1   
    64   26   66 1   
    65   27   28 1   
    66   27   67 1   
    67   27   68 1   
    68   28   69 1   
    69   28   70 1   
    70   29   30 ar  
    71   30   31 ar  
    72   30   37 ar  
    73   31   32 ar  
    74   31   34 ar  
    75   32   33 1   
    76   33   71 1   
    77   33   78 1   
    78   34   35 ar  
    79   34   72 1   
    80   35   36 ar  
    81   35   73 1   
    82   36   37 ar  
    83   36   74 1   
    84   37   75 1   
@<TRIPOS>SUBSTRUCTURE
     1 AA7         1 TEMP              0 ****  ****    0 ROOT
