@<TRIPOS>MOLECULE
AA9
   96    99     1     0     0
SMALL
bcc


@<TRIPOS>ATOM
      1 C1         -0.9320   -0.5600    1.6960 c3        1 AA9     -0.119100
      2 C2          0.3410   -0.9740    0.9780 c3        1 AA9      0.202800
      3 N3          1.4190   -0.0250    1.1490 nh        1 AA9     -0.735600
      4 C4          2.6790   -0.2310    0.6790 ca        1 AA9      0.254600
      5 C5          3.7030    0.7320    0.9230 ca        1 AA9     -0.194000
      6 C6          5.0210    0.5110    0.5020 ca        1 AA9      0.229600
      7 C7          5.3510   -0.6950   -0.1520 ca        1 AA9     -0.298000
      8 C8          4.3260   -1.5790   -0.5090 ca        1 AA9     -0.110600
      9 C9          3.0100   -1.3780   -0.1100 ca        1 AA9     -0.151000
     10 C10         4.5990   -2.7020   -1.4150 c         1 AA9      0.559700
     11 O11         3.8260   -3.2530   -2.1880 o         1 AA9     -0.426100
     12 N12         6.0120   -3.2530   -1.4590 n4        1 AA9     -0.680800
     13 C13         6.9880   -2.5000   -2.3330 c3        1 AA9      0.099500
     14 C14         7.7730   -3.4700   -3.2370 c3        1 AA9     -0.041100
     15 C15         8.2410   -4.6710   -2.4980 ca        1 AA9     -0.190300
     16 C16         7.5990   -5.9030   -2.6890 ca        1 AA9     -0.132000
     17 C17         8.0700   -7.0440   -2.0410 ca        1 AA9     -0.107000
     18 C18         9.1840   -6.9630   -1.2020 ca        1 AA9     -0.080000
     19 C19         9.8260   -5.7390   -1.0120 ca        1 AA9     -0.107000
     20 C20         9.3590   -4.5960   -1.6590 ca        1 AA9     -0.132000
     21 C21         6.3310   -1.3780   -3.1760 c3        1 AA9      0.109100
     22 O22         5.7770   -1.8270   -4.3940 oh        1 AA9     -0.603800
     23 C23         7.4220   -0.3580   -3.5830 c3        1 AA9      0.103800
     24 N24         6.7940    0.8620   -4.1840 n4        1 AA9     -0.767000
     25 C25         7.7800    1.7260   -4.9200 c3        1 AA9      0.078500
     26 C26         8.2040    1.1250   -6.2570 c3        1 AA9     -0.149100
     27 C27         7.1570    3.1130   -5.1750 c         1 AA9      0.513100
     28 O28         5.9620    3.3560   -5.0740 o         1 AA9     -0.379100
     29 N29         8.0800    4.2110   -5.5630 n4        1 AA9     -0.669800
     30 C30         7.6330    4.9520   -6.8320 c3        1 AA9      0.133500
     31 C31         8.3150    6.3220   -6.8980 c3        1 AA9     -0.103900
     32 C32         7.8090    7.0610   -8.1260 c3        1 AA9     -0.078400
     33 C33         8.0540    6.2700   -9.3920 c3        1 AA9     -0.097400
     34 C34         7.4430    4.8880   -9.3060 c3        1 AA9     -0.078400
     35 C35         7.9450    4.1340   -8.0840 c3        1 AA9     -0.103900
     36 N36         6.0320    1.4870    0.7060 nh        1 AA9     -0.552300
     37 C37         5.8980    2.3290    1.8540 ca        1 AA9      0.033600
     38 C38         5.2500    3.5790    1.7500 ca        1 AA9     -0.126000
     39 C39         5.1320    4.3920    2.8750 ca        1 AA9     -0.110500
     40 C40         5.6350    3.9740    4.1080 ca        1 AA9     -0.077000
     41 C41         6.2600    2.7310    4.2180 ca        1 AA9     -0.110500
     42 C42         6.3900    1.9030    3.1050 ca        1 AA9     -0.126000
     43 S43         7.2910    1.6690   -0.3050 s6        1 AA9      1.472900
     44 C44         8.2760    2.8020    0.4260 c3        1 AA9     -0.370300
     45 O45         7.9940    0.4540   -0.5520 o         1 AA9     -0.737800
     46 O46         6.8940    2.1400   -1.6120 o         1 AA9     -0.737800
     47 H11C       -1.7100   -1.3430    1.5080 hc        1 AA9      0.068700
     48 H12C       -0.7730   -0.4810    2.7980 hc        1 AA9      0.068700
     49 H13C       -1.3180    0.4170    1.3160 hc        1 AA9      0.068700
     50 H21C        0.6740   -1.9820    1.3650 h1        1 AA9      0.055200
     51 H22C        0.1280   -1.0790   -0.1270 h1        1 AA9      0.055200
     52 H3          1.2430    0.7760    1.7160 hn        1 AA9      0.460800
     53 H5          3.4540    1.6590    1.4700 ha        1 AA9      0.178000
     54 H9          2.2260   -2.0960   -0.4050 ha        1 AA9      0.181000
     55 H7          6.4050   -0.9470   -0.3380 ha        1 AA9      0.149000
     56 H12         5.9710   -4.2350   -1.7950 hn        1 AA9      0.482800
     57 H13         7.7230   -2.0020   -1.6200 hx        1 AA9      0.134700
     58 H141        8.6550   -2.9010   -3.6390 hc        1 AA9      0.086200
     59 H142        7.1360   -3.7690   -4.1140 hc        1 AA9      0.086200
     60 H21         5.5390   -0.8430   -2.5690 h1        1 AA9      0.079700
     61 H16         6.7500   -5.9870   -3.3850 ha        1 AA9      0.134500
     62 H20         9.8860   -3.6390   -1.5250 ha        1 AA9      0.134500
     63 H17         7.5730   -8.0150   -2.2050 ha        1 AA9      0.168000
     64 H18         9.5630   -7.8700   -0.7000 ha        1 AA9      0.174000
     65 H19        10.7150   -5.6780   -0.3610 ha        1 AA9      0.168000
     66 H22         5.0590   -2.4520   -4.2020 ho        1 AA9      0.459000
     67 H231        8.0080   -0.0420   -2.6650 hx        1 AA9      0.141200
     68 H232        8.1040   -0.8340   -4.3440 hx        1 AA9      0.141200
     69 H24         6.0510    0.5660   -4.8350 hn        1 AA9      0.494300
     70 H25         8.6790    1.8430   -4.2360 hx        1 AA9      0.141700
     71 H261        8.7110    0.1370   -6.1100 hc        1 AA9      0.102700
     72 H262        7.3300    0.9760   -6.9410 hc        1 AA9      0.102700
     73 H263        8.9380    1.8020   -6.7630 hc        1 AA9      0.102700
     74 H29         8.1010    4.9060   -4.7980 hn        1 AA9      0.472300
     75 H30         6.5130    5.0920   -6.7290 hx        1 AA9      0.128700
     76 H311        8.0790    6.9280   -5.9830 hc        1 AA9      0.063450
     77 H312        9.4280    6.2030   -6.9700 hc        1 AA9      0.063450
     78 H351        9.0520    3.9730   -8.1820 hc        1 AA9      0.063450
     79 H352        7.4430    3.1320   -8.0340 hc        1 AA9      0.063450
     80 H321        8.3410    8.0490   -8.1880 hc        1 AA9      0.082200
     81 H322        6.7130    7.2780   -8.0140 hc        1 AA9      0.082200
     82 H331        9.1570    6.1880   -9.5830 hc        1 AA9      0.083200
     83 H332        7.6070    6.8180  -10.2640 hc        1 AA9      0.083200
     84 H341        7.7110    4.2980  -10.2240 hc        1 AA9      0.082200
     85 H342        6.3240    4.9650   -9.2690 hc        1 AA9      0.082200
     86 H38         4.8270    3.9180    0.7920 ha        1 AA9      0.145500
     87 H42         6.8670    0.9170    3.2200 ha        1 AA9      0.145500
     88 H39         4.6280    5.3690    2.7900 ha        1 AA9      0.169500
     89 H40         5.5330    4.6220    4.9950 ha        1 AA9      0.176000
     90 H41         6.6480    2.3940    5.1950 ha        1 AA9      0.169500
     91 H441        8.5090    2.5970    1.5090 h1        1 AA9      0.156700
     92 H442        7.8670    3.8470    0.4190 h1        1 AA9      0.156700
     93 H443        9.2800    2.8550   -0.0750 h1        1 AA9      0.156700
     94 H122        6.3870   -3.2680   -0.5010 hn        1 AA9      0.482800
     95 H242        6.3650    1.4230   -3.4140 hn        1 AA9      0.494300
     96 H292        9.0300    3.8540   -5.7100 hn        1 AA9      0.472300
@<TRIPOS>BOND
     1    1    2 1   
     2    1   47 1   
     3    1   48 1   
     4    1   49 1   
     5    2    3 1   
     6    2   50 1   
     7    2   51 1   
     8    3    4 1   
     9    3   52 1   
    10    4    5 ar  
    11    4    9 ar  
    12    5    6 ar  
    13    5   53 1   
    14    6    7 ar  
    15    6   36 1   
    16    7    8 ar  
    17    7   55 1   
    18    8    9 ar  
    19    8   10 1   
    20    9   54 1   
    21   10   11 2   
    22   10   12 1   
    23   12   13 1   
    24   12   56 1   
    25   12   94 1   
    26   13   14 1   
    27   13   21 1   
    28   13   57 1   
    29   14   15 1   
    30   14   58 1   
    31   14   59 1   
    32   15   16 ar  
    33   15   20 ar  
    34   16   17 ar  
    35   16   61 1   
    36   17   18 ar  
    37   17   63 1   
    38   18   19 ar  
    39   18   64 1   
    40   19   20 ar  
    41   19   65 1   
    42   20   62 1   
    43   21   22 1   
    44   21   23 1   
    45   21   60 1   
    46   22   66 1   
    47   23   24 1   
    48   23   67 1   
    49   23   68 1   
    50   24   25 1   
    51   24   69 1   
    52   24   95 1   
    53   25   26 1   
    54   25   27 1   
    55   25   70 1   
    56   26   71 1   
    57   26   72 1   
    58   26   73 1   
    59   27   28 2   
    60   27   29 1   
    61   29   30 1   
    62   29   74 1   
    63   29   96 1   
    64   30   31 1   
    65   30   35 1   
    66   30   75 1   
    67   31   32 1   
    68   31   76 1   
    69   31   77 1   
    70   32   33 1   
    71   32   80 1   
    72   32   81 1   
    73   33   34 1   
    74   33   82 1   
    75   33   83 1   
    76   34   35 1   
    77   34   84 1   
    78   34   85 1   
    79   35   78 1   
    80   35   79 1   
    81   36   37 1   
    82   36   43 1   
    83   37   38 ar  
    84   37   42 ar  
    85   38   39 ar  
    86   38   86 1   
    87   39   40 ar  
    88   39   88 1   
    89   40   41 ar  
    90   40   89 1   
    91   41   42 ar  
    92   41   90 1   
    93   42   87 1   
    94   43   44 1   
    95   43   45 2   
    96   43   46 2   
    97   44   91 1   
    98   44   92 1   
    99   44   93 1   
@<TRIPOS>SUBSTRUCTURE
     1 AA9         1 TEMP              0 ****  ****    0 ROOT
