@<TRIPOS>MOLECULE
AA9
   96    99     1     0     0
SMALL
bcc


@<TRIPOS>ATOM
      1 C1         -0.9940   -0.7060    1.5370 c3        1 AA9     -0.119100
      2 C2          0.3030   -1.0930    0.8470 c3        1 AA9      0.202800
      3 N3          1.3560   -0.1210    1.0390 nu        1 AA9     -0.735600
      4 C4          2.6310   -0.3000    0.5970 ca        1 AA9      0.254600
      5 C5          3.6280    0.6850    0.8620 ca        1 AA9     -0.194000
      6 C6          4.9590    0.4920    0.4690 ca        1 AA9      0.229600
      7 C7          5.3300   -0.7090   -0.1730 ca        1 AA9     -0.298000
      8 C8          4.3320   -1.6150   -0.5500 ca        1 AA9     -0.110600
      9 C9          3.0040   -1.4420   -0.1810 ca        1 AA9     -0.151000
     10 C10         4.6490   -2.7340   -1.4480 c         1 AA9      0.559700
     11 O11         3.9050   -3.3040   -2.2360 o         1 AA9     -0.426100
     12 N12         6.0740   -3.2540   -1.4600 ny        1 AA9     -0.680800
     13 C13         7.0530   -2.4820   -2.3130 c3        1 AA9      0.099500
     14 C14         7.8780   -3.4370   -3.1980 c3        1 AA9     -0.041100
     15 C15         8.3550   -4.6250   -2.4460 ca        1 AA9     -0.190300
     16 C16         7.7460   -5.8720   -2.6480 ca        1 AA9     -0.132000
     17 C17         8.2270   -7.0010   -1.9860 ca        1 AA9     -0.107000
     18 C18         9.3190   -6.8940   -1.1220 ca        1 AA9     -0.080000
     19 C19         9.9300   -5.6550   -0.9210 ca        1 AA9     -0.107000
     20 C20         9.4520   -4.5240   -1.5810 ca        1 AA9     -0.132000
     21 C21         6.3900   -1.3770   -3.1740 c3        1 AA9      0.109100
     22 O22         5.8720   -1.8400   -4.4030 oh        1 AA9     -0.603800
     23 C23         7.4680   -0.3340   -3.5600 c3        1 AA9      0.103800
     24 N24         6.8270    0.8710   -4.1760 ny        1 AA9     -0.767000
     25 C25         7.8100    1.7560   -4.8910 c3        1 AA9      0.078500
     26 C26         8.2750    1.1640   -6.2180 c3        1 AA9     -0.149100
     27 C27         7.1620    3.1290   -5.1610 c         1 AA9      0.513100
     28 O28         5.9610    3.3460   -5.0870 o         1 AA9     -0.379100
     29 N29         8.0700    4.2470   -5.5290 ny        1 AA9     -0.669800
     30 C30         7.6350    4.9780   -6.8080 c3        1 AA9      0.132500
     31 C31         8.2890    6.3630   -6.8600 c3        1 AA9     -0.103900
     32 C32         7.7950    7.0910   -8.0990 c3        1 AA9     -0.078400
     33 C33         8.0840    6.3040   -9.3580 c3        1 AA9     -0.097400
     34 C34         7.5010    4.9100   -9.2860 c3        1 AA9     -0.078400
     35 C35         7.9920    4.1670   -8.0530 c3        1 AA9     -0.103900
     36 N36         5.9440    1.4900    0.6940 nh        1 AA9     -0.552300
     37 C37         5.7660    2.3320    1.8350 ca        1 AA9      0.033600
     38 C38         5.0950    3.5670    1.7140 ca        1 AA9     -0.126000
     39 C39         4.9340    4.3800    2.8330 ca        1 AA9     -0.110500
     40 C40         5.4180    3.9760    4.0780 ca        1 AA9     -0.077000
     41 C41         6.0670    2.7480    4.2060 ca        1 AA9     -0.110500
     42 C42         6.2400    1.9200    3.0990 ca        1 AA9     -0.126000
     43 S43         7.2210    1.6970   -0.2900 s6        1 AA9      1.472900
     44 C44         8.1660    2.8510    0.4600 c3        1 AA9     -0.370300
     45 O45         7.9550    0.4970   -0.5190 o         1 AA9     -0.737800
     46 O46         6.8440    2.1570   -1.6070 o         1 AA9     -0.737800
     47 H11C       -0.8600   -0.6210    2.6430 hc        1 AA9      0.068700
     48 H12C       -1.7500   -1.5060    1.3350 hc        1 AA9      0.068700
     49 H13C       -1.3920    0.2610    1.1470 hc        1 AA9      0.068700
     50 H21C        0.1160   -1.2050   -0.2610 h1        1 AA9      0.055200
     51 H22C        0.6500   -2.0930    1.2440 h1        1 AA9      0.055200
     52 H3          1.1510    0.6770    1.6000 hn        1 AA9      0.460800
     53 H5          3.3470    1.6080    1.4010 ha        1 AA9      0.178000
     54 H9          2.2420   -2.1770   -0.4920 ha        1 AA9      0.181000
     55 H7          6.3920   -0.9380   -0.3350 ha        1 AA9      0.149000
     56 H12         6.4280   -3.2590   -0.4930 hn        1 AA9      0.482800
     57 H13         7.7610   -1.9660   -1.5860 hx        1 AA9      0.134700
     58 H141        7.2670   -3.7520   -4.0880 hc        1 AA9      0.086200
     59 H142        8.7560   -2.8490   -3.5810 hc        1 AA9      0.086200
     60 H21         5.5730   -0.8570   -2.5860 h1        1 AA9      0.079700
     61 H16         6.9140   -5.9760   -3.3620 ha        1 AA9      0.134500
     62 H20         9.9560   -3.5560   -1.4380 ha        1 AA9      0.134500
     63 H17         7.7550   -7.9820   -2.1590 ha        1 AA9      0.168000
     64 H18         9.7070   -7.7910   -0.6100 ha        1 AA9      0.174000
     65 H19        10.8020   -5.5740   -0.2510 ha        1 AA9      0.168000
     66 H22         5.1640   -2.4800   -4.2250 ho        1 AA9      0.459000
     67 H231        8.0260   -0.0030   -2.6300 hx        1 AA9      0.141200
     68 H232        8.1760   -0.7960   -4.3050 hx        1 AA9      0.141200
     69 H24         6.1050    0.5580   -4.8430 hn        1 AA9      0.494300
     70 H25         8.6910    1.8930   -4.1880 hx        1 AA9      0.141700
     71 H261        9.0050    1.8570   -6.7090 hc        1 AA9      0.102700
     72 H262        8.8010    0.1870   -6.0590 hc        1 AA9      0.102700
     73 H263        7.4200    0.9950   -6.9210 hc        1 AA9      0.102700
     74 H29         9.0310    3.9100   -5.6550 hn        1 AA9      0.472300
     75 H30         6.5110    5.0950   -6.7300 hx        1 AA9      0.128700
     76 H311        9.4060    6.2660   -6.9080 hc        1 AA9      0.063450
     77 H312        8.0210    6.9630   -5.9510 hc        1 AA9      0.063450
     78 H351        7.5100    3.1550   -8.0120 hc        1 AA9      0.063450
     79 H352        9.1040    4.0290   -8.1260 hc        1 AA9      0.063450
     80 H321        6.6930    7.2840   -8.0110 hc        1 AA9      0.082200
     81 H322        8.3070    8.0900   -8.1500 hc        1 AA9      0.082200
     82 H331        7.6440    6.8430  -10.2410 hc        1 AA9      0.083200
     83 H332        9.1920    6.2460   -9.5260 hc        1 AA9      0.083200
     84 H341        6.3800    4.9630   -9.2730 hc        1 AA9      0.082200
     85 H342        7.8010    4.3260  -10.1970 hc        1 AA9      0.082200
     86 H38         4.6860    3.8950    0.7450 ha        1 AA9      0.145500
     87 H42         6.7360    0.9440    3.2270 ha        1 AA9      0.145500
     88 H39         4.4110    5.3460    2.7340 ha        1 AA9      0.169500
     89 H40         5.2820    4.6250    4.9610 ha        1 AA9      0.176000
     90 H41         6.4400    2.4210    5.1920 ha        1 AA9      0.169500
     91 H441        9.1800    2.9240   -0.0180 h1        1 AA9      0.156700
     92 H442        7.7360    3.8880    0.4400 h1        1 AA9      0.156700
     93 H443        8.3780    2.6550    1.5490 h1        1 AA9      0.156700
     94 H122        6.0620   -4.2380   -1.7940 hn        1 AA9      0.482800
     95 H242        6.3680    1.4240   -3.4170 hn        1 AA9      0.494300
     96 H292        8.0600    4.9420   -4.7640 hn        1 AA9      0.472300
@<TRIPOS>BOND
     1    1    2 1   
     2    1   47 1   
     3    1   48 1   
     4    1   49 1   
     5    2    3 1   
     6    2   50 1   
     7    2   51 1   
     8    3    4 1   
     9    3   52 1   
    10    4    5 ar  
    11    4    9 ar  
    12    5    6 ar  
    13    5   53 1   
    14    6    7 ar  
    15    6   36 1   
    16    7    8 ar  
    17    7   55 1   
    18    8    9 ar  
    19    8   10 1   
    20    9   54 1   
    21   10   11 2   
    22   10   12 1   
    23   12   13 1   
    24   12   56 1   
    25   12   94 1   
    26   13   14 1   
    27   13   21 1   
    28   13   57 1   
    29   14   15 1   
    30   14   58 1   
    31   14   59 1   
    32   15   16 ar  
    33   15   20 ar  
    34   16   17 ar  
    35   16   61 1   
    36   17   18 ar  
    37   17   63 1   
    38   18   19 ar  
    39   18   64 1   
    40   19   20 ar  
    41   19   65 1   
    42   20   62 1   
    43   21   22 1   
    44   21   23 1   
    45   21   60 1   
    46   22   66 1   
    47   23   24 1   
    48   23   67 1   
    49   23   68 1   
    50   24   25 1   
    51   24   69 1   
    52   24   95 1   
    53   25   26 1   
    54   25   27 1   
    55   25   70 1   
    56   26   71 1   
    57   26   72 1   
    58   26   73 1   
    59   27   28 2   
    60   27   29 1   
    61   29   30 1   
    62   29   74 1   
    63   29   96 1   
    64   30   31 1   
    65   30   35 1   
    66   30   75 1   
    67   31   32 1   
    68   31   76 1   
    69   31   77 1   
    70   32   33 1   
    71   32   80 1   
    72   32   81 1   
    73   33   34 1   
    74   33   82 1   
    75   33   83 1   
    76   34   35 1   
    77   34   84 1   
    78   34   85 1   
    79   35   78 1   
    80   35   79 1   
    81   36   37 1   
    82   36   43 1   
    83   37   38 ar  
    84   37   42 ar  
    85   38   39 ar  
    86   38   86 1   
    87   39   40 ar  
    88   39   88 1   
    89   40   41 ar  
    90   40   89 1   
    91   41   42 ar  
    92   41   90 1   
    93   42   87 1   
    94   43   44 1   
    95   43   45 2   
    96   43   46 2   
    97   44   91 1   
    98   44   92 1   
    99   44   93 1   
@<TRIPOS>SUBSTRUCTURE
     1 AA9         1 TEMP              0 ****  ****    0 ROOT
