@<TRIPOS>MOLECULE
AA9
   93    89     1     0     0
SMALL
bcc


@<TRIPOS>ATOM
      1 C1         -6.8720   -2.6960    1.8580 c3        1 AA9     -0.226000
      2 C2         -5.7480   -1.7110    2.2160 c3        1 AA9     -0.051000
      3 N3         -4.5240   -2.4350    2.4250 n3        1 AA9     -0.290000
      4 C4         -3.3240   -1.7350    2.6910 c2        1 AA9      0.085000
      5 C5         -3.2410   -0.8930    3.8080 c2        1 AA9     -0.186000
      6 C6         -2.0160   -0.3110    4.1580 c1        1 AA9      0.094000
      7 C7         -0.8820   -0.5670    3.4000 c1        1 AA9     -0.179000
      8 C8         -0.9640   -1.4220    2.2660 c1        1 AA9     -0.057000
      9 C9         -2.1730   -1.9970    1.9210 c1        1 AA9     -0.185000
     10 C10         0.3230   -1.8240    1.5120 c2        1 AA9      0.346000
     11 O11         1.3930   -1.4130    1.8870 o         1 AA9     -0.365000
     12 N12         0.2470   -2.7270    0.3530 n         1 AA9     -0.367000
     13 C13         1.2040   -2.5870   -0.7390 c3        1 AA9      0.038000
     14 C14         1.7510   -3.9380   -1.1020 c3        1 AA9     -0.137000
     15 C15         3.1330   -4.1040   -0.4880 c2        1 AA9     -0.080000
     16 C16         3.3370   -5.0550    0.5320 c2        1 AA9     -0.130000
     17 C17         4.6300   -5.3230    0.9910 c1        1 AA9     -0.130000
     18 C18         5.7220   -4.6490    0.4380 c1        1 AA9     -0.125750
     19 C19         5.5210   -3.6970   -0.5840 c1        1 AA9     -0.125750
     20 C20         4.2300   -3.4280   -1.0430 c1        1 AA9     -0.123000
     21 C21         0.5120   -1.9810   -1.9430 c3        1 AA9      0.011000
     22 O22        -0.1580   -2.9820   -2.6440 oh        1 AA9     -0.333000
     23 C23         1.5420   -1.3350   -2.8500 c3        1 AA9     -0.108000
     24 N24         0.8620   -0.4770   -3.8240 n3        1 AA9     -0.306000
     25 C25         1.8100    0.2540   -4.5490 c3        1 AA9     -0.045000
     26 C26         2.0580   -0.4130   -5.8540 c3        1 AA9     -0.237000
     27 C27         1.2720    1.7000   -4.8000 c2        1 AA9      0.302000
     28 O28         0.0790    1.9310   -4.7020 o         1 AA9     -0.374000
     29 N29         2.2060    2.7890   -5.1010 n         1 AA9     -0.363000
     30 C30         1.7650    3.9960   -5.2620 c3        1 AA9      0.020000
     31 C31         2.6150    5.0550   -4.4360 c3        1 AA9     -0.168500
     32 C32         2.1340    6.4880   -4.6260 c3        1 AA9     -0.152000
     33 C33         1.3790    6.6150   -5.7430 c3        1 AA9     -0.158000
     34 C34         1.6220    5.9950   -6.9280 c3        1 AA9     -0.152000
     35 C35         2.1090    4.5770   -6.7240 c3        1 AA9     -0.168500
     36 N36        -1.9450    0.6210    5.2890 n3        1 AA9     -0.732000
     37 C37        -2.3310    0.1850    6.6040 c2        1 AA9      0.038000
     38 C38        -3.5940    0.5250    7.1140 c2        1 AA9     -0.128000
     39 C39        -3.9440    0.1550    8.4080 c1        1 AA9     -0.120000
     40 C40        -3.0440   -0.5520    9.1960 c1        1 AA9     -0.125750
     41 C41        -1.7920   -0.8890    8.6910 c1        1 AA9     -0.125750
     42 C42        -1.4380   -0.5170    7.3870 c1        1 AA9     -0.125000
     43 S43        -1.3020    2.1180    5.0790 s4        1 AA9      2.037800
     44 C44        -2.5870    3.3030    4.8040 c2        1 AA9     -0.947000
     45 O45        -0.4740    2.4930    6.1990 o         1 AA9     -0.532900
     46 O46        -0.3550    2.1280    4.0200 o         1 AA9     -0.532900
     47 H11C       -7.6320   -2.1970    1.4480 hc        1 AA9      0.085000
     48 H12C       -7.1820   -3.1540    2.6760 hc        1 AA9      0.085000
     49 H13C       -6.5300   -3.3670    1.2120 hc        1 AA9      0.085000
     50 H21C       -5.9840   -1.2280    3.0320 h1        1 AA9      0.081500
     51 H22C       -5.6260   -1.0640    1.4730 h1        1 AA9      0.081500
     52 H3         -4.5150   -3.3330    2.3500 hn        1 AA9      0.198000
     53 H5         -4.0380   -0.7120    4.3420 ha        1 AA9      0.152000
     54 H9         -2.2320   -2.5900    1.1340 ha        1 AA9      0.142000
     55 H7         -0.0240   -0.1590    3.6470 ha        1 AA9      0.177000
     56 H12        -0.3340   -3.4600    0.3710 hn        1 AA9      0.237000
     57 H13         1.9400   -2.0030   -0.4560 h1        1 AA9      0.127000
     58 H141        1.8140   -4.0150   -2.0800 hc        1 AA9      0.105000
     59 H142        1.1630   -4.6260   -0.7630 hc        1 AA9      0.105000
     60 H21        -0.1290   -1.3060   -1.6450 h1        1 AA9      0.100000
     61 H16         2.5710   -5.5270    0.9220 ha        1 AA9      0.130000
     62 H20         4.0900   -2.7650   -1.7540 ha        1 AA9      0.134000
     63 H17         4.7730   -5.9940    1.7130 ha        1 AA9      0.130000
     64 H18         6.6050   -4.8330    0.7510 ha        1 AA9      0.135250
     65 H19         6.2990   -3.2180   -0.9780 ha        1 AA9      0.135250
     66 H22        -1.0220   -2.8470   -2.5920 ho        1 AA9      0.204000
     67 H231        2.0480   -2.0370   -3.3260 h1        1 AA9      0.086500
     68 H232        2.1570   -0.7970   -2.3140 h1        1 AA9      0.086500
     69 H24         0.3690   -0.9990   -4.4020 hn        1 AA9      0.158000
     70 H25         2.6180    0.2980   -4.0590 h1        1 AA9      0.114000
     71 H261        1.3660   -0.1550   -6.4850 hc        1 AA9      0.090667
     72 H262        2.9140   -0.1440   -6.1910 hc        1 AA9      0.090667
     73 H263        2.0440   -1.3870   -5.7320 hc        1 AA9      0.090667
     74 H29         3.1220    2.6050   -5.2100 hn        1 AA9      0.231000
     75 H30         0.8070    4.0680   -5.0610 h1        1 AA9      0.129000
     76 H311        2.5580    4.8280   -3.4820 hc        1 AA9      0.083250
     77 H312        3.5460    4.9980   -4.7170 hc        1 AA9      0.083250
     78 H351        3.0700    4.5570   -6.8480 hc        1 AA9      0.083250
     79 H352        1.7020    4.0120   -7.3850 hc        1 AA9      0.083250
     80 H321        1.5990    6.7570   -3.8410 hc        1 AA9      0.080000
     81 H322        2.9270    7.0870   -4.7000 hc        1 AA9      0.080000
     82 H331        0.4760    6.3610   -5.4870 hc        1 AA9      0.082000
     83 H332        1.3570    7.5710   -5.9410 hc        1 AA9      0.082000
     84 H341        2.3040    6.5050   -7.4250 hc        1 AA9      0.080000
     85 H342        0.7820    5.9730   -7.4590 hc        1 AA9      0.080000
     86 H38        -4.2080    1.0060    6.5770 ha        1 AA9      0.157000
     87 H42        -0.5520   -0.7550    7.0290 ha        1 AA9      0.147000
     88 H39        -4.8290    0.3930    8.7660 ha        1 AA9      0.138000
     89 H40        -3.2920   -0.8140   10.1120 ha        1 AA9      0.135250
     90 H41        -1.1780   -1.3710    9.2290 ha        1 AA9      0.135250
     91 H441       -3.4210    2.8370    4.6190 ha        1 AA9      0.162667
     92 H442       -2.3510    3.8740    4.0330 ha        1 AA9      0.162667
     93 H443       -2.6930    3.8530    5.5930 ha        1 AA9      0.162667
@<TRIPOS>BOND
     1    1    2 1   
     2    1   47 1   
     3    1   48 1   
     4    1   49 1   
     5    2    3 1   
     6    2   50 1   
     7    2   51 1   
     8    3    4 1   
     9    3   52 1   
    10    4    5 1   
    11    4    9 1   
    12    5    6 1   
    13    5   53 1   
    14    6   36 1   
    15    7    8 1   
    16    7   55 1   
    17    8   10 1   
    18    9   54 1   
    19   10   11 1   
    20   10   12 1   
    21   12   13 1   
    22   12   56 1   
    23   13   14 1   
    24   13   21 1   
    25   13   57 1   
    26   14   15 1   
    27   14   58 1   
    28   14   59 1   
    29   15   16 1   
    30   15   20 1   
    31   16   17 1   
    32   16   61 1   
    33   17   63 1   
    34   18   19 1   
    35   18   64 1   
    36   19   65 1   
    37   20   62 1   
    38   21   22 1   
    39   21   23 1   
    40   21   60 1   
    41   22   66 1   
    42   23   24 1   
    43   23   67 1   
    44   23   68 1   
    45   24   25 1   
    46   24   69 1   
    47   25   26 1   
    48   25   27 1   
    49   25   70 1   
    50   26   71 1   
    51   26   72 1   
    52   26   73 1   
    53   27   28 1   
    54   27   29 1   
    55   29   30 1   
    56   29   74 1   
    57   30   31 1   
    58   30   35 1   
    59   30   75 1   
    60   31   32 1   
    61   31   76 1   
    62   31   77 1   
    63   32   33 1   
    64   32   80 1   
    65   32   81 1   
    66   33   34 1   
    67   33   82 1   
    68   33   83 1   
    69   34   35 1   
    70   34   84 1   
    71   34   85 1   
    72   35   78 1   
    73   35   79 1   
    74   36   37 1   
    75   36   43 1   
    76   37   38 1   
    77   37   42 1   
    78   38   39 1   
    79   38   86 1   
    80   39   88 1   
    81   40   41 1   
    82   40   89 1   
    83   41   90 1   
    84   42   87 1   
    85   43   45 1   
    86   43   46 1   
    87   44   91 1   
    88   44   92 1   
    89   44   93 1   
@<TRIPOS>SUBSTRUCTURE
     1 AA9         1 TEMP              0 ****  ****    0 ROOT
