@<TRIPOS>MOLECULE
AA9
   93    96     1     0     0
SMALL
bcc


@<TRIPOS>ATOM
      1 C1         -1.6470    5.8970   -1.6690 c3        1 AA9     -0.108100
      2 C2         -1.4850    4.4300   -1.3060 c3        1 AA9      0.186800
      3 N3         -2.7430    3.7450   -1.1080 nh        1 AA9     -0.735600
      4 C4         -2.7470    2.5220   -0.4300 ca        1 AA9      0.168600
      5 C5         -3.9440    2.0610    0.1690 ca        1 AA9     -0.191000
      6 C6         -4.0090    0.7920    0.7690 ca        1 AA9      0.175600
      7 C7         -2.8630   -0.0340    0.7760 ca        1 AA9     -0.178000
      8 C8         -1.6820    0.4350    0.2050 ca        1 AA9     -0.078600
      9 C9         -1.6050    1.6900   -0.3940 ca        1 AA9     -0.181000
     10 C10        -0.4740   -0.4440    0.2730 c         1 AA9      0.678700
     11 O11        -0.1020   -0.9640    1.3450 o         1 AA9     -0.609100
     12 N12         0.2020   -0.6600   -0.9090 n         1 AA9     -0.556900
     13 C13         1.3850   -1.4800   -0.9920 c3        1 AA9      0.076700
     14 C14         1.2180   -2.6810   -1.9400 c3        1 AA9     -0.049100
     15 C15         0.0090   -3.5120   -1.6950 ca        1 AA9     -0.086300
     16 C16        -0.6530   -4.0850   -2.7900 ca        1 AA9     -0.128500
     17 C17        -1.7620   -4.9060   -2.5930 ca        1 AA9     -0.125500
     18 C18        -2.2230   -5.1610   -1.3020 ca        1 AA9     -0.128000
     19 C19        -1.5720   -4.5910   -0.2090 ca        1 AA9     -0.125500
     20 C20        -0.4600   -3.7720   -0.4030 ca        1 AA9     -0.128500
     21 C21         2.6150   -0.6240   -1.4090 c3        1 AA9      0.110100
     22 O22         2.4340    0.0080   -2.6620 oh        1 AA9     -0.597800
     23 C23         3.8980   -1.4750   -1.3970 c3        1 AA9      0.134800
     24 N24         5.0920   -0.6550   -1.4530 n3        1 AA9     -0.828200
     25 C25         6.3110   -1.4060   -1.7150 c3        1 AA9      0.103500
     26 C26         6.5080   -1.8670   -3.1580 c3        1 AA9     -0.119100
     27 C27         7.5540   -0.5780   -1.2970 c         1 AA9      0.659100
     28 O28         8.5120   -0.4360   -2.0830 o         1 AA9     -0.615100
     29 N29         7.5790   -0.0910   -0.0110 n         1 AA9     -0.550900
     30 C30         8.6480    0.7530    0.4780 c3        1 AA9      0.094700
     31 C31         8.2370    2.2340    0.5800 c3        1 AA9     -0.090900
     32 C32         9.4090    3.0780    1.0320 c3        1 AA9     -0.075900
     33 C33         9.9580    2.5990    2.3600 c3        1 AA9     -0.079400
     34 C34        10.3280    1.1320    2.2990 c3        1 AA9     -0.075900
     35 C35         9.1570    0.2820    1.8520 c3        1 AA9     -0.090900
     36 N36        -5.2080    0.3510    1.3820 nh        1 AA9     -0.559300
     37 C37        -6.4030    0.5430    0.6360 ca        1 AA9      0.118600
     38 C38        -7.5290    1.1600    1.2240 ca        1 AA9     -0.126000
     39 C39        -8.6970    1.3250    0.4830 ca        1 AA9     -0.122000
     40 C40        -8.7650    0.9010   -0.8420 ca        1 AA9     -0.129000
     41 C41        -7.6560    0.2970   -1.4310 ca        1 AA9     -0.122000
     42 C42        -6.4820    0.1140   -0.7060 ca        1 AA9     -0.126000
     43 S43        -5.2190   -0.4670    2.8250 s6        1 AA9      1.466900
     44 C44        -4.0850    0.3990    3.7450 c3        1 AA9     -0.368300
     45 O45        -6.4720   -0.3390    3.4490 o         1 AA9     -0.645300
     46 O46        -4.7420   -1.7750    2.6550 o         1 AA9     -0.645300
     47 H11C       -0.6350    6.3350   -1.8440 hc        1 AA9      0.046033
     48 H12C       -2.2530    6.0190   -2.5990 hc        1 AA9      0.046033
     49 H13C       -2.1420    6.4660   -0.8450 hc        1 AA9      0.046033
     50 H21C       -0.9440    3.9020   -2.1450 h1        1 AA9      0.042200
     51 H22C       -0.8320    4.3550   -0.3860 h1        1 AA9      0.042200
     52 H3         -3.5020    4.3480   -0.8630 hn        1 AA9      0.403800
     53 H5         -4.8450    2.6960    0.1480 ha        1 AA9      0.149000
     54 H9         -0.6550    2.0280   -0.8350 ha        1 AA9      0.147000
     55 H7         -2.8840   -1.0430    1.2250 ha        1 AA9      0.177000
     56 H12        -0.1110   -0.2290   -1.7460 hn        1 AA9      0.324500
     57 H13         1.6050   -1.8790    0.0470 h1        1 AA9      0.098700
     58 H141        1.2090   -2.3180   -3.0030 hc        1 AA9      0.049200
     59 H142        2.1220   -3.3390   -1.8140 hc        1 AA9      0.049200
     60 H21         2.7160    0.2400   -0.6880 h1        1 AA9      0.099700
     61 H16        -0.2960   -3.8880   -3.8110 ha        1 AA9      0.137500
     62 H20         0.0350   -3.3140    0.4700 ha        1 AA9      0.137500
     63 H17        -2.2740   -5.3510   -3.4590 ha        1 AA9      0.136000
     64 H18        -3.1010   -5.8060   -1.1460 ha        1 AA9      0.134000
     65 H19        -1.9380   -4.7810    0.8120 ha        1 AA9      0.136000
     66 H22         2.4000   -0.6790   -3.3380 ho        1 AA9      0.399000
     67 H231        3.9330   -2.0670   -0.4400 h1        1 AA9      0.040200
     68 H232        3.8470   -2.2090   -2.2550 h1        1 AA9      0.040200
     69 H24         4.9790    0.0820   -2.1260 hn        1 AA9      0.377800
     70 H25         6.3000   -2.3240   -1.0510 h1        1 AA9      0.073700
     71 H261        6.5570   -0.9920   -3.8490 hc        1 AA9      0.050700
     72 H262        7.4720   -2.4240   -3.2390 hc        1 AA9      0.050700
     73 H263        5.6730   -2.5370   -3.4720 hc        1 AA9      0.050700
     74 H29         6.7450   -0.1120    0.5280 hn        1 AA9      0.317500
     75 H30         9.5050    0.6790   -0.2600 h1        1 AA9      0.088700
     76 H311        7.8800    2.5970   -0.4190 hc        1 AA9      0.044700
     77 H312        7.3900    2.3440    1.3060 hc        1 AA9      0.044700
     78 H351        8.3320    0.3510    2.6080 hc        1 AA9      0.044700
     79 H352        9.4770   -0.7900    1.7920 hc        1 AA9      0.044700
     80 H321       10.2190    3.0390    0.2570 hc        1 AA9      0.042950
     81 H322        9.0820    4.1460    1.1240 hc        1 AA9      0.042950
     82 H331       10.8610    3.2040    2.6340 hc        1 AA9      0.040200
     83 H332        9.1900    2.7580    3.1620 hc        1 AA9      0.040200
     84 H341       11.1850    0.9920    1.5880 hc        1 AA9      0.042950
     85 H342       10.6700    0.7880    3.3090 hc        1 AA9      0.042950
     86 H38        -7.5090    1.4800    2.2790 ha        1 AA9      0.152000
     87 H42        -5.6130   -0.3620   -1.1860 ha        1 AA9      0.152000
     88 H39        -9.5720    1.7950    0.9570 ha        1 AA9      0.137000
     89 H40        -9.6910    1.0390   -1.4200 ha        1 AA9      0.135000
     90 H41        -7.7040   -0.0440   -2.4770 ha        1 AA9      0.137000
     91 H441       -4.3470    1.4750    3.8900 h1        1 AA9      0.123367
     92 H442       -4.0090   -0.0440    4.7720 h1        1 AA9      0.123367
     93 H443       -3.0480    0.3750    3.3240 h1        1 AA9      0.123367
@<TRIPOS>BOND
     1    1    2 1   
     2    1   47 1   
     3    1   48 1   
     4    1   49 1   
     5    2    3 1   
     6    2   50 1   
     7    2   51 1   
     8    3    4 1   
     9    3   52 1   
    10    4    5 ar  
    11    4    9 ar  
    12    5    6 ar  
    13    5   53 1   
    14    6    7 ar  
    15    6   36 1   
    16    7    8 ar  
    17    7   55 1   
    18    8    9 ar  
    19    8   10 1   
    20    9   54 1   
    21   10   11 2   
    22   10   12 1   
    23   12   13 1   
    24   12   56 1   
    25   13   14 1   
    26   13   21 1   
    27   13   57 1   
    28   14   15 1   
    29   14   58 1   
    30   14   59 1   
    31   15   16 ar  
    32   15   20 ar  
    33   16   17 ar  
    34   16   61 1   
    35   17   18 ar  
    36   17   63 1   
    37   18   19 ar  
    38   18   64 1   
    39   19   20 ar  
    40   19   65 1   
    41   20   62 1   
    42   21   22 1   
    43   21   23 1   
    44   21   60 1   
    45   22   66 1   
    46   23   24 1   
    47   23   67 1   
    48   23   68 1   
    49   24   25 1   
    50   24   69 1   
    51   25   26 1   
    52   25   27 1   
    53   25   70 1   
    54   26   71 1   
    55   26   72 1   
    56   26   73 1   
    57   27   28 2   
    58   27   29 1   
    59   29   30 1   
    60   29   74 1   
    61   30   31 1   
    62   30   35 1   
    63   30   75 1   
    64   31   32 1   
    65   31   76 1   
    66   31   77 1   
    67   32   33 1   
    68   32   80 1   
    69   32   81 1   
    70   33   34 1   
    71   33   82 1   
    72   33   83 1   
    73   34   35 1   
    74   34   84 1   
    75   34   85 1   
    76   35   78 1   
    77   35   79 1   
    78   36   37 1   
    79   36   43 1   
    80   37   38 ar  
    81   37   42 ar  
    82   38   39 ar  
    83   38   86 1   
    84   39   40 ar  
    85   39   88 1   
    86   40   41 ar  
    87   40   89 1   
    88   41   42 ar  
    89   41   90 1   
    90   42   87 1   
    91   43   44 1   
    92   43   45 2   
    93   43   46 2   
    94   44   91 1   
    95   44   92 1   
    96   44   93 1   
@<TRIPOS>SUBSTRUCTURE
     1 AA9         1 TEMP              0 ****  ****    0 ROOT
