@<TRIPOS>MOLECULE
AA9
   98   100     1     0     0
SMALL
bcc


@<TRIPOS>ATOM
      1 C1        -74.3240  -12.4010 -116.9050 c3        1 AA9     -0.149100
      2 C2        -73.1470  -12.4570 -117.8520 c3        1 AA9      0.119800
      3 N3        -73.0750  -13.7770 -118.5820 n4        1 AA9     -0.650400
      4 C4        -71.9010  -13.8670 -119.4620 ca        1 AA9      0.054600
      5 C5        -70.6500  -14.0390 -118.8740 ca        1 AA9     -0.163000
      6 C6        -69.4700  -14.0940 -119.6800 ca        1 AA9      0.262600
      7 C7        -69.6380  -13.9530 -121.0970 ca        1 AA9     -0.145000
      8 C8        -70.9070  -13.8110 -121.6500 ca        1 AA9     -0.105600
      9 C9        -72.0640  -13.7740 -120.8580 ca        1 AA9     -0.205000
     10 C10       -70.9550  -13.6170 -123.1100 c         1 AA9      0.592700
     11 O11       -70.1740  -12.9800 -123.8060 o         1 AA9     -0.457100
     12 N12       -72.0880  -14.2760 -123.8720 n4        1 AA9     -0.682800
     13 C13       -71.6850  -14.9290 -125.1730 c3        1 AA9      0.117500
     14 C14       -72.8700  -15.7520 -125.7100 c3        1 AA9     -0.049100
     15 C15       -73.4650  -16.6410 -124.6760 ca        1 AA9     -0.211300
     16 C16       -74.8120  -16.4980 -124.3230 ca        1 AA9     -0.128000
     17 C17       -75.4090  -17.4120 -123.4540 ca        1 AA9     -0.110000
     18 C18       -74.6650  -18.4730 -122.9330 ca        1 AA9     -0.076000
     19 C19       -73.3180  -18.6140 -123.2770 ca        1 AA9     -0.110000
     20 C20       -72.7200  -17.7060 -124.1470 ca        1 AA9     -0.128000
     21 C21       -71.1310  -13.9110 -126.2160 c3        1 AA9      0.115100
     22 O22       -71.8300  -12.6820 -126.1570 oh        1 AA9     -0.615800
     23 C23       -71.3060  -14.4360 -127.6660 c3        1 AA9      0.101800
     24 N24       -70.7970  -13.4520 -128.6770 n4        1 AA9     -0.771000
     25 C25       -71.0860  -13.8730 -130.1030 c3        1 AA9      0.068500
     26 C26       -72.4470  -13.3700 -130.5690 c3        1 AA9     -0.155100
     27 C27       -69.9730  -13.3600 -131.0450 c         1 AA9      0.508100
     28 O28       -69.0300  -12.6870 -130.6450 o         1 AA9     -0.388100
     29 N29       -70.0490  -13.7210 -132.4750 n4        1 AA9     -0.672800
     30 C30       -70.5310  -12.5540 -133.3710 c3        1 AA9      0.150500
     31 C31       -69.4020  -11.5530 -133.6140 c3        1 AA9     -0.109400
     32 C32       -69.9390  -10.4090 -134.4620 c3        1 AA9     -0.077400
     33 C33       -70.5140  -10.9110 -135.7680 c3        1 AA9     -0.101400
     34 C34       -71.5780  -11.9600 -135.5380 c3        1 AA9     -0.077400
     35 C35       -71.0540  -13.1140 -134.6960 c3        1 AA9     -0.109400
     36 N36       -68.2370  -14.2710 -119.1460 nh        1 AA9     -0.569000
     37 C37       -67.9760  -14.4160 -117.7530 ca        1 AA9      0.030600
     38 C38       -67.1220  -13.4940 -117.1130 ca        1 AA9     -0.128000
     39 C39       -66.7990  -13.6750 -115.7700 ca        1 AA9     -0.103000
     40 C40       -67.3130  -14.7580 -115.0560 ca        1 AA9     -0.078000
     41 C41       -68.1590  -15.6710 -115.6900 ca        1 AA9     -0.103000
     42 C42       -68.4950  -15.5100 -117.0310 ca        1 AA9     -0.128000
     43 S43      1014.6030  191.2110    0.7300 s4        1 AA9      1.640500
     44 C44      1013.1610  190.5830    0.8960 c3        1 AA9     -0.612800
     45 O45      1015.5360  190.4790    0.1050 o         1 AA9     -0.354400
     46 O46      1014.8100  192.4390    0.2260 o         1 AA9     -0.354400
     47 H11C      -74.3060  -11.3980 -116.3980 hc        1 AA9      0.095367
     48 H12C      -75.3010  -12.4970 -117.4380 hc        1 AA9      0.095367
     49 H13C      -74.2620  -13.1840 -116.1080 hc        1 AA9      0.095367
     50 H21C      -72.1770  -12.3320 -117.2890 hx        1 AA9      0.111700
     51 H22C      -73.2220  -11.6450 -118.6310 hx        1 AA9      0.111700
     52 H3        -73.0260  -14.5350 -117.8830 hn        1 AA9      0.462800
     53 H5        -70.5330  -14.1240 -117.7750 ha        1 AA9      0.199000
     54 H9        -73.0580  -13.6310 -121.3040 ha        1 AA9      0.141000
     55 H7        -68.7480  -13.9430 -121.7510 ha        1 AA9      0.178000
     56 H12       -72.5250  -15.0120 -123.2870 hn        1 AA9      0.482800
     57 H13       -70.8400  -15.6410 -124.9170 hx        1 AA9      0.124700
     58 H141      -73.6530  -15.0620 -126.1260 hc        1 AA9      0.082200
     59 H142      -72.4810  -16.3970 -126.5460 hc        1 AA9      0.082200
     60 H21       -70.0310  -13.7620 -125.9990 h1        1 AA9      0.100700
     61 H16       -75.4220  -15.6920 -124.7610 ha        1 AA9      0.136000
     62 H20       -71.6720  -17.8530 -124.4500 ha        1 AA9      0.136000
     63 H17       -76.4790  -17.3130 -123.2020 ha        1 AA9      0.175500
     64 H18       -75.1470  -19.2140 -122.2710 ha        1 AA9      0.181000
     65 H19       -72.7360  -19.4650 -122.8820 ha        1 AA9      0.175500
     66 H22       -71.3060  -12.0550 -125.6290 ho        1 AA9      0.465000
     67 H231      -72.4030  -14.5950 -127.8850 hx        1 AA9      0.131700
     68 H232      -70.7430  -15.4050 -127.7810 hx        1 AA9      0.131700
     69 H24       -69.7800  -13.3220 -128.5540 hn        1 AA9      0.482300
     70 H25       -71.0640  -15.0090 -130.1270 hx        1 AA9      0.147700
     71 H261      -72.6940  -13.8140 -131.5680 hc        1 AA9      0.109367
     72 H262      -73.2580  -13.6880 -129.8640 hc        1 AA9      0.109367
     73 H263      -72.4720  -12.2540 -130.6590 hc        1 AA9      0.109367
     74 H29       -70.6740  -14.5230 -132.6220 hn        1 AA9      0.482800
     75 H30       -71.3750  -12.0660 -132.8000 hx        1 AA9      0.088700
     76 H311      -68.5540  -12.0450 -134.1630 hc        1 AA9      0.076200
     77 H312      -69.0100  -11.1520 -132.6430 hc        1 AA9      0.076200
     78 H351      -70.2280  -13.6300 -135.2570 hc        1 AA9      0.076200
     79 H352      -71.8820  -13.8500 -134.5220 hc        1 AA9      0.076200
     80 H321      -69.0930   -9.6970 -134.6690 hc        1 AA9      0.082450
     81 H322      -70.7190   -9.8440 -133.8870 hc        1 AA9      0.082450
     82 H331      -69.6940  -11.3310 -136.4090 hc        1 AA9      0.090700
     83 H332      -70.9610  -10.0470 -136.3320 hc        1 AA9      0.090700
     84 H341      -72.4720  -11.5020 -135.0390 hc        1 AA9      0.082450
     85 H342      -71.9210  -12.3750 -136.5260 hc        1 AA9      0.082450
     86 H38       -66.6940  -12.6400 -117.6620 ha        1 AA9      0.143000
     87 H42       -69.1340  -16.2580 -117.5240 ha        1 AA9      0.143000
     88 H39       -66.1230  -12.9580 -115.2730 ha        1 AA9      0.171500
     89 H40       -67.0420  -14.9000 -113.9960 ha        1 AA9      0.178000
     90 H41       -68.5500  -16.5370 -115.1300 ha        1 AA9      0.171500
     91 H441     1013.0970  189.6050    0.4780 h1        1 AA9      0.226700
     92 H442     1012.3870  191.2330    0.4200 h1        1 AA9      0.226700
     93 H443     1012.6240  190.2850    0.9350 h1        1 AA9      0.226700
     94 H32       -73.9350  -13.9040 -119.1280 hn        1 AA9      0.462800
     95 H122      -72.8010  -13.5630 -124.0840 hn        1 AA9      0.482800
     96 H242      -71.2560  -12.5410 -128.4960 hn        1 AA9      0.482300
     97 H292      -69.0990  -13.9740 -132.8060 hn        1 AA9      0.482800
     98 H361      -67.4340  -14.2100 -119.7400 hn        1 AA9      0.474800
@<TRIPOS>BOND
     1    1    2 1   
     2    1   47 1   
     3    1   48 1   
     4    1   49 1   
     5    2    3 1   
     6    2   50 1   
     7    2   51 1   
     8    3    4 1   
     9    3   52 1   
    10    3   94 1   
    11    4    5 ar  
    12    4    9 ar  
    13    5    6 ar  
    14    5   53 1   
    15    6    7 ar  
    16    6   36 1   
    17    7    8 ar  
    18    7   55 1   
    19    8    9 ar  
    20    8   10 1   
    21    9   54 1   
    22   10   11 2   
    23   10   12 1   
    24   12   13 1   
    25   12   56 1   
    26   12   95 1   
    27   13   14 1   
    28   13   21 1   
    29   13   57 1   
    30   14   15 1   
    31   14   58 1   
    32   14   59 1   
    33   15   16 ar  
    34   15   20 ar  
    35   16   17 ar  
    36   16   61 1   
    37   17   18 ar  
    38   17   63 1   
    39   18   19 ar  
    40   18   64 1   
    41   19   20 ar  
    42   19   65 1   
    43   20   62 1   
    44   21   22 1   
    45   21   23 1   
    46   21   60 1   
    47   22   66 1   
    48   23   24 1   
    49   23   67 1   
    50   23   68 1   
    51   24   25 1   
    52   24   69 1   
    53   24   96 1   
    54   25   26 1   
    55   25   27 1   
    56   25   70 1   
    57   26   71 1   
    58   26   72 1   
    59   26   73 1   
    60   27   28 2   
    61   27   29 1   
    62   29   30 1   
    63   29   74 1   
    64   29   97 1   
    65   30   31 1   
    66   30   35 1   
    67   30   75 1   
    68   31   32 1   
    69   31   76 1   
    70   31   77 1   
    71   32   33 1   
    72   32   80 1   
    73   32   81 1   
    74   33   34 1   
    75   33   82 1   
    76   33   83 1   
    77   34   35 1   
    78   34   84 1   
    79   34   85 1   
    80   35   78 1   
    81   35   79 1   
    82   36   37 1   
    83   36   98 1   
    84   37   38 ar  
    85   37   42 ar  
    86   38   39 ar  
    87   38   86 1   
    88   39   40 ar  
    89   39   88 1   
    90   40   41 ar  
    91   40   89 1   
    92   41   42 ar  
    93   41   90 1   
    94   42   87 1   
    95   43   44 1   
    96   43   45 1   
    97   43   46 1   
    98   44   91 1   
    99   44   92 1   
   100   44   93 1   
@<TRIPOS>SUBSTRUCTURE
     1 AA9         1 TEMP              0 ****  ****    0 ROOT
