@<TRIPOS>MOLECULE
AAA
   40    41     1     0     0
SMALL
bcc


@<TRIPOS>ATOM
      1 C1         -0.0050   -0.0240   -0.0330 ca        1 AAA     -0.205600
      2 C1A        -0.7330    0.0260   -1.3220 c         1 AAA      0.586700
      3 C1B        -0.1410    0.8810   -2.3960 c3        1 AAA     -0.200100
      4 O1B        -1.7830   -0.6040   -1.5160 o         1 AAA     -0.556100
      5 C2          1.3850    0.1680   -0.0470 ca        1 AAA     -0.054000
      6 C3          2.1360    0.1550    1.1190 ca        1 AAA     -0.150000
      7 C4          1.5070   -0.0460    2.3550 ca        1 AAA     -0.002300
      8 C4A         2.3070   -0.0330    3.6010 c3        1 AAA     -0.071800
      9 C5          0.1290   -0.2530    2.3940 ca        1 AAA     -0.212000
     10 C6         -0.6460   -0.2600    1.2120 ca        1 AAA      0.156600
     11 N7         -2.0220   -0.5820    1.2830 nh        1 AAA     -0.767600
     12 C8         -2.7730   -0.1020    2.4120 c3        1 AAA      0.194800
     13 C8A        -2.9460   -1.1910    3.4990 c         1 AAA      0.523100
     14 N8B        -2.7850   -2.6250    3.0730 n4        1 AAA     -0.767400
     15 O8B        -3.1900   -1.0120    4.6790 o         1 AAA     -0.405100
     16 C9         -4.1470    0.4440    2.0910 ca        1 AAA     -0.099300
     17 C10        -4.4440    1.7610    2.4910 ca        1 AAA     -0.012900
     18 BR1        -3.2110    2.8350    3.4120 br        1 AAA     -0.048600
     19 C11        -5.6930    2.3230    2.2040 ca        1 AAA     -0.076000
     20 C12        -6.6520    1.5870    1.5150 ca        1 AAA     -0.090000
     21 C13        -6.3690    0.2840    1.1100 ca        1 AAA     -0.076000
     22 C14        -5.1250   -0.2860    1.3970 ca        1 AAA     -0.012900
     23 BR2        -4.8780   -2.0530    0.7790 br        1 AAA     -0.048600
     24 H1B1        0.2760    1.8250   -1.9720 hc        1 AAA      0.077700
     25 H1B2        0.6780    0.3190   -2.9110 hc        1 AAA      0.077700
     26 H1B3       -0.9210    1.1350   -3.1570 hc        1 AAA      0.077700
     27 H2          1.8980    0.3320   -1.0110 ha        1 AAA      0.154000
     28 H3          3.2260    0.3070    1.0790 ha        1 AAA      0.159000
     29 H4A1        2.7060    0.9970    3.7860 hc        1 AAA      0.061033
     30 H4A2        1.6980   -0.3370    4.4870 hc        1 AAA      0.061033
     31 H4A3        3.1780   -0.7300    3.5120 hc        1 AAA      0.061033
     32 H5         -0.3470   -0.4100    3.3740 ha        1 AAA      0.118000
     33 HN7        -2.5100   -0.5140    0.4050 hn        1 AAA      0.462800
     34 H8         -2.1910    0.7160    2.9700 h1        1 AAA      0.144700
     35 HN81       -3.0060   -3.2660    3.8400 hn        1 AAA      0.471133
     36 HN82       -1.8210   -2.7840    2.7620 hn        1 AAA      0.471133
     37 H11        -5.9230    3.3570    2.5190 ha        1 AAA      0.176500
     38 H12        -7.6350    2.0330    1.2860 ha        1 AAA      0.173000
     39 H13        -7.1340   -0.2910    0.5590 ha        1 AAA      0.176500
     40 H8B3       -3.4300   -2.7890    2.2650 hn        1 AAA      0.471133
@<TRIPOS>BOND
     1    1    2 1   
     2    1    5 ar  
     3    1   10 ar  
     4    2    3 1   
     5    2    4 2   
     6    3   24 1   
     7    3   25 1   
     8    3   26 1   
     9    5    6 ar  
    10    5   27 1   
    11    6    7 ar  
    12    6   28 1   
    13    7    8 1   
    14    7    9 ar  
    15    8   29 1   
    16    8   30 1   
    17    8   31 1   
    18    9   10 ar  
    19    9   32 1   
    20   10   11 1   
    21   11   12 1   
    22   11   33 1   
    23   12   13 1   
    24   12   16 1   
    25   12   34 1   
    26   13   14 1   
    27   13   15 2   
    28   14   35 1   
    29   14   36 1   
    30   14   40 1   
    31   16   17 ar  
    32   16   22 ar  
    33   17   18 1   
    34   17   19 ar  
    35   19   20 ar  
    36   19   37 1   
    37   20   21 ar  
    38   20   38 1   
    39   21   22 ar  
    40   21   39 1   
    41   22   23 1   
@<TRIPOS>SUBSTRUCTURE
     1 AAA         1 TEMP              0 ****  ****    0 ROOT
