@<TRIPOS>MOLECULE
AAA
   39    40     1     0     0
SMALL
bcc


@<TRIPOS>ATOM
      1 C1          0.1170    0.7780    3.1270 ca        1 AAA     -0.246600
      2 C1A         1.3870    1.5150    3.0000 c         1 AAA      0.586700
      3 C1B         1.4580    2.8480    3.6840 c3        1 AAA     -0.198100
      4 O1B         2.3650    1.0900    2.3660 o         1 AAA     -0.560100
      5 C2         -0.6620    0.9900    4.2760 ca        1 AAA     -0.057000
      6 C3         -1.8830    0.3650    4.4580 ca        1 AAA     -0.186000
      7 C4         -2.3730   -0.5070    3.4730 ca        1 AAA     -0.010300
      8 C4A        -3.6880   -1.1630    3.6620 c3        1 AAA     -0.062800
      9 C5         -1.6190   -0.7480    2.3330 ca        1 AAA     -0.203000
     10 C6         -0.3540   -0.1290    2.1350 ca        1 AAA      0.224600
     11 N7          0.4150   -0.4690    1.0240 nh        1 AAA     -0.758600
     12 C8         -0.2270   -0.7570   -0.2390 c3        1 AAA      0.178800
     13 C8A        -0.3370   -2.2640   -0.5930 c         1 AAA      0.645100
     14 N8B         0.1370   -3.2210    0.2610 n         1 AAA     -0.647000
     15 O8B        -0.9530   -2.5920   -1.6290 o         1 AAA     -0.614100
     16 C9          0.4170   -0.0240   -1.3990 ca        1 AAA     -0.039300
     17 C10        -0.3160    0.9670   -2.0780 ca        1 AAA     -0.006400
     18 BR1        -2.0630    1.4560   -1.5820 br        1 AAA     -0.070600
     19 C11         0.2420    1.6440   -3.1670 ca        1 AAA     -0.094000
     20 C12         1.5380    1.3520   -3.5830 ca        1 AAA     -0.120000
     21 C13         2.2800    0.3870   -2.9100 ca        1 AAA     -0.094000
     22 C14         1.7270   -0.2970   -1.8230 ca        1 AAA     -0.006400
     23 BR2         2.8240   -1.5750   -0.9910 br        1 AAA     -0.070600
     24 H1B1        2.2830    3.4600    3.2430 hc        1 AAA      0.064700
     25 H1B2        0.4950    3.4000    3.5770 hc        1 AAA      0.064700
     26 H1B3        1.6740    2.6980    4.7700 hc        1 AAA      0.064700
     27 H2         -0.2890    1.6710    5.0590 ha        1 AAA      0.132000
     28 H3         -2.4720    0.5460    5.3690 ha        1 AAA      0.137000
     29 H4A1       -4.5050   -0.4020    3.5930 hc        1 AAA      0.050367
     30 H4A2       -3.8700   -1.9480    2.8870 hc        1 AAA      0.050367
     31 H4A3       -3.7410   -1.6430    4.6710 hc        1 AAA      0.050367
     32 H5         -2.0020   -1.4580    1.5810 ha        1 AAA      0.145000
     33 HN7         1.3170   -0.0400    0.9590 hn        1 AAA      0.452800
     34 H8         -1.3200   -0.4320   -0.1870 h1        1 AAA      0.106700
     35 HN81        0.0870   -4.1700   -0.0180 hn        1 AAA      0.316500
     36 HN82        0.7240   -2.9870    1.0210 hn        1 AAA      0.316500
     37 H11        -0.3410    2.4110   -3.7020 ha        1 AAA      0.154000
     38 H12         1.9740    1.8850   -4.4420 ha        1 AAA      0.147000
     39 H13         3.3080    0.1640   -3.2420 ha        1 AAA      0.154000
@<TRIPOS>BOND
     1    1    2 1   
     2    1    5 ar  
     3    1   10 ar  
     4    2    3 1   
     5    2    4 2   
     6    3   24 1   
     7    3   25 1   
     8    3   26 1   
     9    5    6 ar  
    10    5   27 1   
    11    6    7 ar  
    12    6   28 1   
    13    7    8 1   
    14    7    9 ar  
    15    8   29 1   
    16    8   30 1   
    17    8   31 1   
    18    9   10 ar  
    19    9   32 1   
    20   10   11 1   
    21   11   12 1   
    22   11   33 1   
    23   12   13 1   
    24   12   16 1   
    25   12   34 1   
    26   13   14 1   
    27   13   15 2   
    28   14   35 1   
    29   14   36 1   
    30   16   17 ar  
    31   16   22 ar  
    32   17   18 1   
    33   17   19 ar  
    34   19   20 ar  
    35   19   37 1   
    36   20   21 ar  
    37   20   38 1   
    38   21   22 ar  
    39   21   39 1   
    40   22   23 1   
@<TRIPOS>SUBSTRUCTURE
     1 AAA         1 TEMP              0 ****  ****    0 ROOT
