@<TRIPOS>MOLECULE
AAA
   39    35     1     0     0
SMALL
bcc


@<TRIPOS>ATOM
      1 C1          1.8530   -0.4610   -1.4750 c1        1 AAA     -0.210000
      2 C1A         1.1110   -0.2930   -2.7840 c1        1 AAA      0.284000
      3 C1B         1.3340    0.9440   -3.6270 c3        1 AAA     -0.266000
      4 O1B         0.3600   -1.1640   -3.1720 o         1 AAA     -0.316000
      5 C2          3.2380   -0.4940   -1.4640 c1        1 AAA     -0.062000
      6 C3          3.9160   -0.6950   -0.2720 c1        1 AAA     -0.184000
      7 C4          3.2090   -0.8620    0.9080 c1        1 AAA     -0.008000
      8 C4A         3.9490   -1.0990    2.2060 c2        1 AAA     -0.185000
      9 C5          1.8240   -0.8290    0.8970 c2        1 AAA     -0.196000
     10 C6          1.1450   -0.6280   -0.2950 c2        1 AAA      0.150000
     11 N7         -0.2720   -0.6450   -0.3150 n3        1 AAA     -0.290000
     12 C8         -1.0020   -0.2510    0.8370 c3        1 AAA      0.028000
     13 C8A        -1.5650   -1.4770    1.5210 c2        1 AAA      0.265000
     14 N8B        -2.0260   -1.3930    2.8600 n         1 AAA     -0.424000
     15 O8B        -1.6400   -2.5290    0.9170 o         1 AAA     -0.354000
     16 C9         -2.1350    0.6620    0.4270 c2        1 AAA     -0.035000
     17 C10        -3.2630    0.1350   -0.1820 c2        1 AAA     -0.164000
     18 BR1        -3.3730   -1.7410   -0.5290 br        1 AAA      0.091000
     19 C11        -4.3320    0.9610   -0.4940 c1        1 AAA     -0.095000
     20 C12        -4.2730    2.3130   -0.1970 c1        1 AAA     -0.110000
     21 C13        -3.1450    2.8400    0.4130 c1        1 AAA     -0.110000
     22 C14        -2.0760    2.0150    0.7250 c1        1 AAA     -0.157000
     23 BR2        -0.5490    2.7300    1.6250 br        1 AAA      0.071000
     24 H1B1        0.5860    1.0540   -4.2500 hc        1 AAA      0.102333
     25 H1B2        1.3920    1.7300   -3.0440 hc        1 AAA      0.102333
     26 H1B3        2.1690    0.8490   -4.1310 hc        1 AAA      0.102333
     27 H2          3.7360   -0.3760   -2.2950 ha        1 AAA      0.130000
     28 H3          4.8920   -0.7190   -0.2640 ha        1 AAA      0.134000
     29 H4A1        4.8570   -0.7390    2.1350 ha        1 AAA      0.087333
     30 H4A2        3.9930   -2.0620    2.3860 ha        1 AAA      0.087333
     31 H4A3        3.4760   -0.6510    2.9380 ha        1 AAA      0.087333
     32 H5          1.3260   -0.9470    1.7280 ha        1 AAA      0.140000
     33 HN7        -0.7140   -0.9440   -1.0540 hn        1 AAA      0.247000
     34 H8         -0.4090    0.2230    1.4530 h1        1 AAA      0.146000
     35 HN81       -2.4600   -2.1020    3.2390 hn        1 AAA      0.224500
     36 HN82       -1.8780   -0.6340    3.3480 hn        1 AAA      0.224500
     37 H11        -5.1260    0.5900   -0.9240 ha        1 AAA      0.156000
     38 H12        -5.0250    2.8940   -0.4170 ha        1 AAA      0.151500
     39 H13        -3.1040    3.7930    0.6220 ha        1 AAA      0.151500
@<TRIPOS>BOND
     1    1    5 1   
     2    1   10 1   
     3    2    3 1   
     4    2    4 1   
     5    3   24 1   
     6    3   25 1   
     7    3   26 1   
     8    5   27 1   
     9    6    7 1   
    10    6   28 1   
    11    7    9 1   
    12    8   29 1   
    13    8   30 1   
    14    8   31 1   
    15    9   10 1   
    16    9   32 1   
    17   10   11 1   
    18   11   12 1   
    19   11   33 1   
    20   12   13 1   
    21   12   16 1   
    22   12   34 1   
    23   13   14 1   
    24   13   15 1   
    25   14   35 1   
    26   14   36 1   
    27   16   17 1   
    28   16   22 1   
    29   17   18 1   
    30   17   19 1   
    31   19   37 1   
    32   20   21 1   
    33   20   38 1   
    34   21   39 1   
    35   22   23 1   
@<TRIPOS>SUBSTRUCTURE
     1 AAA         1 TEMP              0 ****  ****    0 ROOT
