@<TRIPOS>MOLECULE
AAA
   40    41     1     0     0
SMALL
bcc


@<TRIPOS>ATOM
      1 C1         -0.0050   -0.0590   -0.0300 ca        1 AAA     -0.205600
      2 C1A        -0.7330   -0.0220   -1.3200 c         1 AAA      0.586700
      3 C1B        -0.1350    0.8130   -2.4070 c3        1 AAA     -0.200100
      4 O1B        -1.7880   -0.6480   -1.5050 o         1 AAA     -0.556100
      5 C2          1.3860    0.1230   -0.0470 ca        1 AAA     -0.054000
      6 C3          2.1370    0.1220    1.1200 ca        1 AAA     -0.150000
      7 C4          1.5060   -0.0560    2.3580 ca        1 AAA     -0.002300
      8 C4A         2.3050   -0.0300    3.6040 c3        1 AAA     -0.071800
      9 C5          0.1270   -0.2530    2.4000 ca        1 AAA     -0.212000
     10 C6         -0.6480   -0.2720    1.2170 ca        1 AAA      0.156600
     11 N7         -2.0260   -0.5830    1.2930 nu        1 AAA     -0.767600
     12 C8         -2.7750   -0.0810    2.4140 c3        1 AAA      0.194800
     13 C8A        -2.9540   -1.1510    3.5180 c         1 AAA      0.523100
     14 N8B        -2.8020   -2.5930    3.1150 nz        1 AAA     -0.767400
     15 O8B        -3.1980   -0.9520    4.6960 o         1 AAA     -0.405100
     16 C9         -4.1450    0.4690    2.0840 ca        1 AAA     -0.099300
     17 C10        -4.4340    1.7940    2.4630 ca        1 AAA     -0.012900
     18 Br1        -3.1940    2.8750    3.3680 br        1 AAA     -0.048600
     19 C11        -5.6790    2.3590    2.1670 ca        1 AAA     -0.076000
     20 C12        -6.6430    1.6180    1.4900 ca        1 AAA     -0.090000
     21 C13        -6.3680    0.3070    1.1060 ca        1 AAA     -0.076000
     22 C14        -5.1270   -0.2660    1.4020 ca        1 AAA     -0.012900
     23 Br2        -4.8910   -2.0440    0.8130 br        1 AAA     -0.048600
     24 H1B1        0.6800    0.2370   -2.9130 hc        1 AAA      0.077700
     25 H1B2        0.2890    1.7600   -1.9960 hc        1 AAA      0.077700
     26 H1B3       -0.9130    1.0600   -3.1720 hc        1 AAA      0.077700
     27 H2          1.9000    0.2690   -1.0130 ha        1 AAA      0.154000
     28 H3          3.2280    0.2660    1.0770 ha        1 AAA      0.159000
     29 H4A1        3.1700   -0.7370    3.5260 hc        1 AAA      0.061033
     30 H4A2        1.6940   -0.3140    4.4950 hc        1 AAA      0.061033
     31 H4A3        2.7140    0.9990    3.7720 hc        1 AAA      0.061033
     32 H5         -0.3510   -0.3920    3.3820 ha        1 AAA      0.117000
     33 HN7        -2.5140   -0.5260    0.4140 hn        1 AAA      0.462800
     34 H8         -2.1870    0.7420    2.9590 h1        1 AAA      0.144700
     35 HN81       -3.0280   -3.2200    3.8920 hn        1 AAA      0.471133
     36 HN82       -3.4480   -2.7660    2.3090 hn        1 AAA      0.471133
     37 H11        -5.9020    3.3990    2.4660 ha        1 AAA      0.176500
     38 H12        -7.6220    2.0670    1.2540 ha        1 AAA      0.173000
     39 H13        -7.1360   -0.2710    0.5630 ha        1 AAA      0.176500
     40 H8B3       -1.8390   -2.7630    2.8070 hn        1 AAA      0.471133
@<TRIPOS>BOND
     1    1    2 1   
     2    1    5 ar  
     3    1   10 ar  
     4    2    3 1   
     5    2    4 2   
     6    3   24 1   
     7    3   25 1   
     8    3   26 1   
     9    5    6 ar  
    10    5   27 1   
    11    6    7 ar  
    12    6   28 1   
    13    7    8 1   
    14    7    9 ar  
    15    8   29 1   
    16    8   30 1   
    17    8   31 1   
    18    9   10 ar  
    19    9   32 1   
    20   10   11 1   
    21   11   12 1   
    22   11   33 1   
    23   12   13 1   
    24   12   16 1   
    25   12   34 1   
    26   13   14 1   
    27   13   15 2   
    28   14   35 1   
    29   14   36 1   
    30   14   40 1   
    31   16   17 ar  
    32   16   22 ar  
    33   17   18 1   
    34   17   19 ar  
    35   19   20 ar  
    36   19   37 1   
    37   20   21 ar  
    38   20   38 1   
    39   21   22 ar  
    40   21   39 1   
    41   22   23 1   
@<TRIPOS>SUBSTRUCTURE
     1 AAA         1 TEMP              0 ****  ****    0 ROOT
