@<TRIPOS>MOLECULE
AAA
   41    42     1     0     0
SMALL
bcc


@<TRIPOS>ATOM
      1 C1          0.2520   -0.3270    0.4170 ca        1 AAA     -0.177600
      2 C1A        -0.3720   -1.1390   -0.6540 c         1 AAA      0.641700
      3 C1B         0.4650   -1.5670   -1.8040 c3        1 AAA     -0.208100
      4 O1B        -1.5800   -1.4530   -0.5660 o         1 AAA     -0.686100
      5 C2          1.6390   -0.3830    0.6010 ca        1 AAA     -0.046000
      6 C3          2.2670    0.3340    1.6180 ca        1 AAA     -0.082000
      7 C4          1.5230    1.1430    2.4840 ca        1 AAA      0.013700
      8 C4A         2.1960    1.9120    3.5540 c3        1 AAA     -0.090800
      9 C5          0.1320    1.2250    2.3160 ca        1 AAA     -0.123000
     10 C6         -0.4960    0.4980    1.2950 ca        1 AAA     -0.018400
     11 N7         -1.9460    0.6700    1.1200 n4        1 AAA     -0.632400
     12 C8         -2.7770   -0.1800    2.0440 c3        1 AAA      0.109800
     13 C8A        -2.6980   -1.6750    1.7110 c         1 AAA      0.545100
     14 N8B        -3.7880   -2.2830    0.8940 n4        1 AAA     -0.741400
     15 O8B        -1.8280   -2.4220    2.1260 o         1 AAA     -0.350100
     16 C9         -4.1880    0.3210    2.1820 ca        1 AAA     -0.191300
     17 C10        -4.6790    0.5230    3.4870 ca        1 AAA     -0.039900
     18 BR1        -3.6570    0.1240    5.0080 br        1 AAA     -0.014600
     19 C11        -5.9690    1.0340    3.6850 ca        1 AAA     -0.062000
     20 C12        -6.7720    1.3550    2.5950 ca        1 AAA     -0.058000
     21 C13        -6.2970    1.1540    1.2960 ca        1 AAA     -0.062000
     22 C14        -5.0180    0.6370    1.0880 ca        1 AAA     -0.039900
     23 BR2        -4.4850    0.3960   -0.7030 br        1 AAA     -0.014600
     24 H1B1       -0.1790   -1.9080   -2.6540 hc        1 AAA      0.105367
     25 H1B2        1.1150   -2.4290   -1.4950 hc        1 AAA      0.105367
     26 H1B3        1.1220   -0.7320   -2.1550 hc        1 AAA      0.105367
     27 H2          2.2530   -1.0140   -0.0690 ha        1 AAA      0.182000
     28 H3          3.3640    0.2660    1.7400 ha        1 AAA      0.192000
     29 H4A1        2.8920    1.2510    4.1320 hc        1 AAA      0.085367
     30 H4A2        1.4630    2.3640    4.2670 hc        1 AAA      0.085367
     31 H4A3        2.8040    2.7400    3.1030 hc        1 AAA      0.085367
     32 H5         -0.4430    1.8780    2.9960 ha        1 AAA      0.166000
     33 HN7        -2.2090    0.4650    0.1340 hn        1 AAA      0.481800
     34 H8         -2.2710   -0.1040    3.0810 hx        1 AAA      0.184700
     35 HN81       -4.6650   -2.3030    1.4270 hn        1 AAA      0.488467
     36 HN82       -3.5260   -3.2450    0.6290 hn        1 AAA      0.488467
     37 H11        -6.3520    1.1930    4.7130 ha        1 AAA      0.200500
     38 H12        -7.7860    1.7720    2.7530 ha        1 AAA      0.200000
     39 H13        -6.9450    1.4160    0.4380 ha        1 AAA      0.200500
     40 H72        -2.1830    1.6560    1.3220 hn        1 AAA      0.481800
     41 H8B3       -3.9220   -1.7180    0.0260 hn        1 AAA      0.488467
@<TRIPOS>BOND
     1    1    2 1   
     2    1    5 ar  
     3    1   10 ar  
     4    2    3 1   
     5    2    4 2   
     6    3   24 1   
     7    3   25 1   
     8    3   26 1   
     9    5    6 ar  
    10    5   27 1   
    11    6    7 ar  
    12    6   28 1   
    13    7    8 1   
    14    7    9 ar  
    15    8   29 1   
    16    8   30 1   
    17    8   31 1   
    18    9   10 ar  
    19    9   32 1   
    20   10   11 1   
    21   11   12 1   
    22   11   33 1   
    23   11   40 1   
    24   12   13 1   
    25   12   16 1   
    26   12   34 1   
    27   13   14 1   
    28   13   15 2   
    29   14   35 1   
    30   14   36 1   
    31   14   41 1   
    32   16   17 ar  
    33   16   22 ar  
    34   17   18 1   
    35   17   19 ar  
    36   19   20 ar  
    37   19   37 1   
    38   20   21 ar  
    39   20   38 1   
    40   21   22 ar  
    41   21   39 1   
    42   22   23 1   
@<TRIPOS>SUBSTRUCTURE
     1 AAA         1 TEMP              0 ****  ****    0 ROOT
