@<TRIPOS>MOLECULE
AAB
   22    21     1     0     0
SMALL
bcc


@<TRIPOS>ATOM
      1 P           0.8540    2.2270    2.7740 p4        1 AAB      1.700200
      2 O1P         2.3640    2.2270    2.7740 os        1 AAB     -1.274000
      3 O2P         0.3510    2.2270    4.1970 o         1 AAB     -0.922500
      4 O3P         0.3510    3.4590    2.0620 o         1 AAB     -0.971300
      5 O5'         0.3270    0.9360    2.0280 os        1 AAB     -0.561200
      6 C5'         0.5750    0.8100    0.6480 c3        1 AAB      0.228400
      7 C4'         0.4070   -0.6580    0.2290 c3        1 AAB      0.062100
      8 O4'        -1.0900   -1.0880    0.3530 os        1 AAB     -0.469600
      9 C1'        -1.6050   -1.1890   -1.0830 c3        1 AAB      0.334900
     10 O1'        -2.8400   -0.4800   -1.2180 oh        1 AAB     -0.661800
     11 C2'        -0.6760   -0.6280   -1.8200 c3        1 AAB     -0.147400
     12 C3'         0.6980   -0.8030   -1.0150 c3        1 AAB      0.153100
     13 O3'         1.2530   -2.1470   -1.2500 oh        1 AAB     -0.675800
     14 H5'1        1.4860    1.1020    0.4530 h1        1 AAB     -0.003800
     15 H5'2       -0.0570    1.3640    0.1520 h1        1 AAB     -0.003800
     16 H4'         0.9710   -1.2350    0.7790 h1        1 AAB      0.066700
     17 H1'        -1.7210   -2.1240   -1.3370 h2        1 AAB      0.045700
     18 HO1'       -3.5170   -1.0440   -1.1150 ho        1 AAB      0.422000
     19 H2'1       -0.8740    0.3200   -1.9440 hc        1 AAB      0.042200
     20 H2'2       -0.6180   -1.0760   -2.6850 hc        1 AAB      0.042200
     21 H3'         1.3390   -0.1210   -1.2920 h1        1 AAB      0.095700
     22 HO3'        2.0220   -2.0780   -1.6880 ho        1 AAB      0.498000
@<TRIPOS>BOND
     1    1    3 1   
     2    1    4 2   
     3    1    5 1   
     4    5    6 1   
     5    6    7 1   
     6    6   14 1   
     7    6   15 1   
     8    7    8 1   
     9    7   12 1   
    10    7   16 1   
    11    8    9 1   
    12    9   10 1   
    13    9   11 1   
    14    9   17 1   
    15   10   18 1   
    16   11   12 1   
    17   11   19 1   
    18   11   20 1   
    19   12   13 1   
    20   12   21 1   
    21   13   22 1   
@<TRIPOS>SUBSTRUCTURE
     1 AAB         1 TEMP              0 ****  ****    0 ROOT
