@<TRIPOS>MOLECULE
AAB
   22    22     1     0     0
SMALL
bcc


@<TRIPOS>ATOM
      1 P          -0.7770    0.2840   -2.0670 p5        1 AAB      1.331900
      2 O1P        -1.0030   -0.5170   -3.3120 o         1 AAB     -0.933167
      3 O2P        -0.1020    1.6200   -2.2050 o         1 AAB     -0.933167
      4 O3P        -1.8750    0.2480   -1.0220 o         1 AAB     -0.933167
      5 O5'         0.4250   -0.6370   -1.2060 os        1 AAB     -0.561200
      6 C5'         0.8630   -0.0450   -0.0530 c3        1 AAB      0.228400
      7 C4'         0.2350   -0.7220    1.1880 c3        1 AAB      0.062100
      8 O4'         1.2050   -0.7310    2.2690 os        1 AAB     -0.469600
      9 C1'         0.6730   -0.1310    3.4310 c3        1 AAB      0.334900
     10 O1'         1.4650    1.0230    3.6390 oh        1 AAB     -0.661800
     11 C2'        -0.8050    0.1960    3.2080 c3        1 AAB     -0.147400
     12 C3'        -1.0360   -0.0110    1.7030 c3        1 AAB      0.153100
     13 O3'        -2.1810   -0.8140    1.5220 oh        1 AAB     -0.675800
     14 H5'1        0.6270    1.0570   -0.0460 h1        1 AAB     -0.003800
     15 H5'2        1.9830   -0.1750    0.0380 h1        1 AAB     -0.003800
     16 H4'         0.0160   -1.7980    0.9600 h1        1 AAB      0.066700
     17 H1'         0.8690   -0.7970    4.3130 h2        1 AAB      0.045700
     18 HO1'        1.6060    1.4300    2.7740 ho        1 AAB      0.422000
     19 H2'1       -1.4530   -0.4920    3.8020 hc        1 AAB      0.042200
     20 H2'2       -1.0250    1.2470    3.5080 hc        1 AAB      0.042200
     21 H3'        -1.1810    0.9710    1.1740 h1        1 AAB      0.095700
     22 HO3'       -2.4040   -0.7260    0.5660 ho        1 AAB      0.498000
@<TRIPOS>BOND
     1    1    2 1   
     2    1    3 1   
     3    1    4 1   
     4    1    5 1   
     5    5    6 1   
     6    6    7 1   
     7    6   14 1   
     8    6   15 1   
     9    7    8 1   
    10    7   12 1   
    11    7   16 1   
    12    8    9 1   
    13    9   10 1   
    14    9   11 1   
    15    9   17 1   
    16   10   18 1   
    17   11   12 1   
    18   11   19 1   
    19   11   20 1   
    20   12   13 1   
    21   12   21 1   
    22   13   22 1   
@<TRIPOS>SUBSTRUCTURE
     1 AAB         1 TEMP              0 ****  ****    0 ROOT
