@<TRIPOS>MOLECULE
AAC
   14    11     1     0     0
SMALL
bcc


@<TRIPOS>ATOM
      1 C1         -2.0860   -0.8650   -1.1430 c1        1 AAC      0.326000
      2 C2         -0.8840    0.0540   -1.1390 c2        1 AAC     -0.121000
      3 C3          0.9740    0.6590    0.3560 c1        1 AAC      0.277000
      4 C4          1.8230    0.3710    1.5740 c2        1 AAC     -0.243000
      5 N1         -0.0820   -0.2210    0.0020 n3        1 AAC     -0.326000
      6 O1         -3.0940   -0.5860   -0.4420 o         1 AAC     -0.573500
      7 O2         -2.0770   -1.9110   -1.8440 o         1 AAC     -0.573500
      8 O3          1.1980    1.6420   -0.3230 o         1 AAC     -0.423000
      9 HC21       -1.1860    0.9850   -1.1100 h4        1 AAC      0.079500
     10 HC22       -0.3580   -0.0940   -1.9520 h4        1 AAC      0.079500
     11 HC41        1.2470    0.2930    2.3630 ha        1 AAC      0.087333
     12 HC42        2.4620    1.1020    1.7070 ha        1 AAC      0.087333
     13 HC43        2.3110   -0.4690    1.4410 ha        1 AAC      0.087333
     14 HN1        -0.2480   -0.9600    0.5100 hn        1 AAC      0.236000
@<TRIPOS>BOND
     1    1    6 1   
     2    1    7 1   
     3    2    5 1   
     4    2    9 1   
     5    2   10 1   
     6    3    5 1   
     7    3    8 1   
     8    4   11 1   
     9    4   12 1   
    10    4   13 1   
    11    5   14 1   
@<TRIPOS>SUBSTRUCTURE
     1 AAC         1 TEMP              0 ****  ****    0 ROOT
