@<TRIPOS>MOLECULE
AAC
   14    13     1     0     0
SMALL
bcc


@<TRIPOS>ATOM
      1 C1         -0.0740    0.0000    0.0160 c         1 AAC      0.909600
      2 C2          1.4840    0.0000    0.0080 c3        1 AAC     -0.042000
      3 C3          3.3860    0.0000    1.5940 c         1 AAC      0.638100
      4 C4          3.8020   -0.0000    3.0530 c3        1 AAC     -0.173100
      5 N1          2.0510   -0.0000    1.3280 n         1 AAC     -0.528900
      6 O1         -0.6320    0.0000   -1.1140 o         1 AAC     -0.838300
      7 O2         -0.6830    0.0000    1.1240 o         1 AAC     -0.838300
      8 O3          4.2640    0.0000    0.6960 o         1 AAC     -0.670100
      9 HC21        1.8380    0.9070   -0.5540 h1        1 AAC      0.035700
     10 HC22        1.8380   -0.9070   -0.5550 h1        1 AAC      0.035700
     11 HC41        4.9160   -0.0000    3.1090 hc        1 AAC      0.047367
     12 HC42        3.4110   -0.9080    3.5700 hc        1 AAC      0.047367
     13 HC43        3.4110    0.9080    3.5700 hc        1 AAC      0.047367
     14 HN1         1.3860   -0.0000    2.0720 hn        1 AAC      0.331500
@<TRIPOS>BOND
     1    1    2 1   
     2    1    6 1   
     3    1    7 1   
     4    2    5 1   
     5    2    9 1   
     6    2   10 1   
     7    3    4 1   
     8    3    5 1   
     9    3    8 2   
    10    4   11 1   
    11    4   12 1   
    12    4   13 1   
    13    5   14 1   
@<TRIPOS>SUBSTRUCTURE
     1 AAC         1 TEMP              0 ****  ****    0 ROOT
