@<TRIPOS>MOLECULE
AAC
   14    13     1     0     0
SMALL
bcc


@<TRIPOS>ATOM
      1 C1         -0.1100    0.0000   -1.8900 c         1 AAC      0.909600
      2 C2          0.6340    0.0000   -0.5210 c3        1 AAC     -0.042000
      3 C3          0.1360    0.0000    1.9050 c         1 AAC      0.638100
      4 C4         -0.9520   -0.0000    2.9610 c3        1 AAC     -0.173100
      5 N1         -0.2600   -0.0000    0.6030 n         1 AAC     -0.528900
      6 O1          0.6220    0.0000   -2.9160 o         1 AAC     -0.838300
      7 O2         -1.3740    0.0000   -1.9030 o         1 AAC     -0.838300
      8 O3          1.3430    0.0000    2.2540 o         1 AAC     -0.670100
      9 HC21        1.2970    0.9070   -0.4750 h1        1 AAC      0.035700
     10 HC22        1.2970   -0.9070   -0.4750 h1        1 AAC      0.035700
     11 HC41       -0.4750   -0.0000    3.9700 hc        1 AAC      0.047367
     12 HC42       -1.5930    0.9080    2.8610 hc        1 AAC      0.047367
     13 HC43       -1.5930   -0.9080    2.8610 hc        1 AAC      0.047367
     14 HN1        -1.2310   -0.0000    0.3690 hn        1 AAC      0.331500
@<TRIPOS>BOND
     1    1    2 1   
     2    1    6 1   
     3    1    7 1   
     4    2    5 1   
     5    2    9 1   
     6    2   10 1   
     7    3    4 1   
     8    3    5 1   
     9    3    8 2   
    10    4   11 1   
    11    4   12 1   
    12    4   13 1   
    13    5   14 1   
@<TRIPOS>SUBSTRUCTURE
     1 AAC         1 TEMP              0 ****  ****    0 ROOT
