@<TRIPOS>MOLECULE
AAD
   45    47     1     0     0
SMALL
bcc


@<TRIPOS>ATOM
      1 C4'        -0.5890    2.6760   -0.4850 c3        1 AAD      0.150100
      2 O4'        -1.4400    2.7950    0.6600 os        1 AAD     -0.448600
      3 C3'         0.5310    1.6720   -0.1300 c3        1 AAD      0.094100
      4 O3'         1.7370    2.3900    0.0590 oh        1 AAD     -0.617800
      5 C2'         0.0780    1.0050    1.1900 c3        1 AAD      0.091100
      6 O2'         0.9750    1.2650    2.2390 oh        1 AAD     -0.565800
      7 C1'        -1.3250    1.6210    1.4980 c3        1 AAD      0.235800
      8 N9         -2.4250    0.7310    1.2890 na        1 AAD     -0.303000
      9 C8         -3.5480    0.5660    2.1540 cc        1 AAD      0.419700
     10 N7         -4.4570   -0.2930    1.6870 nd        1 AAD     -0.515100
     11 C5         -3.9580   -0.7260    0.4460 ca        1 AAD     -0.234200
     12 C6         -4.4580   -1.6510   -0.5330 ca        1 AAD      0.776200
     13 N6         -5.6500   -2.2840   -0.3460 nh        1 AAD     -0.938500
     14 N1         -3.7090   -1.8650   -1.6750 nb        1 AAD     -0.782000
     15 C2         -2.5450   -1.1880   -1.8020 ca        1 AAD      0.699900
     16 N3         -1.9550   -0.2920   -0.9670 nb        1 AAD     -0.794000
     17 C4         -2.6830   -0.0820    0.1690 ca        1 AAD      0.461800
     18 N2         -4.4260    6.2770   -2.6970 n3        1 AAD     -0.673300
     19 O2         -3.2040    6.6190   -3.1710 os        1 AAD     -0.268100
     20 CG         -2.0270    4.5240   -2.6440 c3        1 AAD     -0.041100
     21 SD         -1.3240    5.2030   -1.1920 s4        1 AAD     -0.041900
     22 CE         -0.3870    6.5390   -1.7510 c3        1 AAD     -0.071800
     23 C5'        -0.0550    4.0590   -0.8180 c3        1 AAD     -0.015100
     24 HC4        -1.2000    2.2680   -1.3380 h1        1 AAD      0.084700
     25 HC3         0.6520    0.9120   -0.9470 h1        1 AAD      0.099700
     26 HO3         2.4030    1.7500    0.3530 ho        1 AAD      0.444000
     27 HC2         0.0490   -0.1160    1.1040 h1        1 AAD      0.136700
     28 HO2         1.1050    2.2230    2.2960 ho        1 AAD      0.414000
     29 HC1        -1.3790    2.0200    2.5550 h2        1 AAD      0.116700
     30 HC8        -3.6060    1.0990    3.1120 h5        1 AAD      0.082800
     31 HN61       -6.1380   -2.1510    0.5070 hn        1 AAD      0.459800
     32 HN62       -5.9770   -2.9560   -0.9980 hn        1 AAD      0.459800
     33 HC2A       -1.9830   -1.4060   -2.7380 h5        1 AAD      0.055100
     34 HN21       -5.0960    6.3690   -3.4570 hn        1 AAD      0.367800
     35 HN22       -4.6530    6.9960   -2.0130 hn        1 AAD      0.367800
     36 HCB1       -1.5670    6.0320   -4.1740 h1        1 AAD      0.088700
     37 HCB2       -3.0380    4.9800   -4.5000 h1        1 AAD      0.088700
     38 HCG2       -1.3730    3.7560   -3.1340 h1        1 AAD      0.139700
     39 HCE1        0.1550    6.9990   -0.8850 h1        1 AAD      0.135033
     40 HCE2       -1.0740    7.3230   -2.1720 h1        1 AAD      0.135033
     41 HCE3        0.3750    6.3140   -2.5360 h1        1 AAD      0.135033
     42 HC51        0.7180    3.9410   -1.6220 h1        1 AAD      0.142200
     43 HC52        0.4940    4.4540    0.0840 h1        1 AAD      0.142200
     44 HCG1       -2.9480    3.9800   -2.2780 h1        1 AAD      0.139700
     45 CB         -2.4520    5.5180   -3.7070 c3        1 AAD      0.146400
@<TRIPOS>BOND
     1    1    2 1   
     2    1    3 1   
     3    1   23 1   
     4    1   24 1   
     5    2    7 1   
     6    3    4 1   
     7    3    5 1   
     8    3   25 1   
     9    4   26 1   
    10    5    6 1   
    11    5    7 1   
    12    5   27 1   
    13    6   28 1   
    14    7    8 1   
    15    7   29 1   
    16    8    9 1   
    17    8   17 1   
    18    9   10 2   
    19    9   30 1   
    20   10   11 1   
    21   11   12 ar  
    22   11   17 ar  
    23   12   13 1   
    24   12   14 ar  
    25   13   31 1   
    26   13   32 1   
    27   14   15 ar  
    28   15   16 ar  
    29   15   33 1   
    30   16   17 ar  
    31   18   19 1   
    32   18   34 1   
    33   18   35 1   
    34   19   45 1   
    35   20   21 1   
    36   20   38 1   
    37   20   44 1   
    38   20   45 1   
    39   21   22 1   
    40   21   23 1   
    41   22   39 1   
    42   22   40 1   
    43   22   41 1   
    44   23   42 1   
    45   23   43 1   
    46   36   45 1   
    47   37   45 1   
@<TRIPOS>SUBSTRUCTURE
     1 AAD         1 TEMP              0 ****  ****    0 ROOT
