@<TRIPOS>MOLECULE
AAD
   45    43     1     0     0
SMALL
bcc


@<TRIPOS>ATOM
      1 C4'        -0.9480   -0.5060    0.7870 c3        1 AAD      0.119100
      2 O4'         0.3340   -0.5450    0.7430 os        1 AAD     -0.451600
      3 C3'        -1.2820    0.2090    2.1100 c3        1 AAD      0.111100
      4 O3'        -2.2170   -0.4980    2.8090 oh        1 AAD     -0.574800
      5 C2'         0.0310    0.2650    2.8860 c3        1 AAD      0.088100
      6 O2'        -0.1710   -0.2260    4.2760 oh        1 AAD     -0.593800
      7 C1'         0.8300   -0.5270    2.2470 c3        1 AAD      0.263800
      8 N9          2.1980   -0.0270    2.3170 n3        1 AAD     -0.149400
      9 C8          2.9550   -1.0030    2.8370 c1        1 AAD      0.180400
     10 N7          4.2600   -0.6820    2.6240 ne        1 AAD     -0.359400
     11 C5          4.2990    0.5000    1.9670 cg        1 AAD     -0.194000
     12 C6          5.3710    1.3050    1.5320 c1        1 AAD      0.636600
     13 N6          6.8400    1.2520    1.4330 n3        1 AAD     -0.798400
     14 N1          5.1250    2.4850    0.9230 n1        1 AAD     -0.579800
     15 C2          3.8350    2.9010    0.7280 c1        1 AAD      0.418300
     16 N3          2.7810    2.1140    1.1540 n1        1 AAD     -0.599800
     17 C4          3.0290    0.9100    1.7750 c1        1 AAD      0.011700
     18 N2         -3.6340   -0.9250   -6.2610 n3        1 AAD     -0.671300
     19 O2         -2.8390   -0.2460   -5.3890 os        1 AAD     -0.268100
     20 CB         -2.8640   -0.8960   -4.0970 c3        1 AAD      0.145400
     21 CG         -2.3730    0.0600   -3.0450 c3        1 AAD     -0.022100
     22 SD         -2.1500   -0.7660   -1.5730 s4        1 AAD     -0.116900
     23 CE         -3.6040   -1.3460   -1.0390 c3        1 AAD     -0.047800
     24 C5'        -1.4960    0.3040   -0.4050 c3        1 AAD     -0.015100
     25 HC4        -1.3200   -1.4220    0.7850 h1        1 AAD      0.087700
     26 HC3        -1.6160    1.1380    1.9250 h1        1 AAD      0.117700
     27 HO3        -3.0030   -0.0830    2.7580 ho        1 AAD      0.429000
     28 HC2         0.3720    1.1470    2.8910 h1        1 AAD      0.104700
     29 HO2        -0.4460    0.4390    4.7880 ho        1 AAD      0.438000
     30 HC1         0.7820   -1.4390    2.6330 h2        1 AAD      0.126700
     31 HC8         2.6300   -1.8260    3.2200 DU        1 AAD      0.215000
     32 HN61        7.2710    0.4670    1.5380 hn        1 AAD      0.460300
     33 HN62        7.3150    2.0140    1.2240 hn        1 AAD      0.460300
     34 HC2A        3.6600    3.7520    0.2900 ha        1 AAD      0.136500
     35 HN21       -3.1130   -1.4150   -6.8330 hn        1 AAD      0.365300
     36 HN22       -4.1460   -0.3230   -6.7480 hn        1 AAD      0.365300
     37 HCB1       -3.7810   -1.1700   -3.8860 h1        1 AAD      0.091700
     38 HCB2       -2.2900   -1.6780   -4.1170 h1        1 AAD      0.091700
     39 HCG1       -3.0220    0.7570   -2.9220 h1        1 AAD      0.146700
     40 HCG2       -1.5490    0.4390   -3.3270 h1        1 AAD      0.146700
     41 HCE1       -4.3020   -0.7020   -1.2350 h1        1 AAD      0.133700
     42 HCE2       -3.5600   -1.4990   -0.0560 h1        1 AAD      0.133700
     43 HCE3       -3.8030   -2.1890   -1.4910 h1        1 AAD      0.133700
     44 HC51       -0.7580    0.8320   -0.8130 h1        1 AAD      0.140700
     45 HC52       -2.2160    0.9300   -0.0820 h1        1 AAD      0.140700
@<TRIPOS>BOND
     1    1    2 1   
     2    1    3 1   
     3    1   24 1   
     4    1   25 1   
     5    2    7 1   
     6    3    4 1   
     7    3    5 1   
     8    3   26 1   
     9    4   27 1   
    10    5    6 1   
    11    5    7 1   
    12    5   28 1   
    13    6   29 1   
    14    7    8 1   
    15    7   30 1   
    16    8    9 2   
    17    8   17 1   
    18    9   10 2   
    19   10   11 1   
    20   11   17 3   
    21   12   13 1   
    22   12   14 3   
    23   13   32 1   
    24   13   33 1   
    25   15   16 3   
    26   15   34 1   
    27   18   19 1   
    28   18   35 1   
    29   18   36 1   
    30   19   20 1   
    31   20   21 1   
    32   20   37 1   
    33   20   38 1   
    34   21   22 1   
    35   21   39 1   
    36   21   40 1   
    37   22   23 1   
    38   22   24 1   
    39   23   41 1   
    40   23   42 1   
    41   23   43 1   
    42   24   44 1   
    43   24   45 1   
@<TRIPOS>SUBSTRUCTURE
     1 AAD         1 TEMP              0 ****  ****    0 ROOT
