@<TRIPOS>MOLECULE
AAE
   12    11     1     0     0
SMALL
bcc


@<TRIPOS>ATOM
      1 O1          1.7370   -1.6550   -1.2610 o         1 AAE     -0.833300
      2 C2          1.7000   -0.7920   -0.3380 c         1 AAE      0.925600
      3 O3          1.1230   -0.9570    0.7690 o         1 AAE     -0.833300
      4 C4          2.3570    0.5910   -0.5890 c3        1 AAE     -0.311400
      5 C5          3.7720    0.5000   -1.0430 c         1 AAE      0.598100
      6 O8          4.7280    0.9030   -0.3600 o         1 AAE     -0.613100
      7 C9          3.9890   -0.1020   -2.3960 c3        1 AAE     -0.214100
      8 H41         2.2900    1.1890    0.3540 hc        1 AAE      0.050700
      9 H42         1.7500    1.0950   -1.3840 hc        1 AAE      0.050700
     10 H91         3.5450    0.5620   -3.1760 hc        1 AAE      0.060700
     11 H92         5.0740   -0.2420   -2.6090 hc        1 AAE      0.060700
     12 H93         3.4560   -1.0910   -2.4290 hc        1 AAE      0.060700
@<TRIPOS>BOND
     1    1    2 1   
     2    2    3 1   
     3    2    4 1   
     4    4    5 1   
     5    4    8 1   
     6    4    9 1   
     7    5    6 2   
     8    5    7 1   
     9    7   10 1   
    10    7   11 1   
    11    7   12 1   
@<TRIPOS>SUBSTRUCTURE
     1 AAE         1 TEMP              0 ****  ****    0 ROOT
