@<TRIPOS>MOLECULE
AAE
   12    11     1     0     0
SMALL
bcc


@<TRIPOS>ATOM
      1 O1          0.6390   -0.1920    0.4580 o         1 AAE     -0.833300
      2 C2          1.6140   -0.5240   -0.2680 c         1 AAE      0.925600
      3 O3          2.2210   -1.6300   -0.1880 o         1 AAE     -0.833300
      4 C4          2.0470    0.4830   -1.3660 c3        1 AAE     -0.312400
      5 C5          3.5040    0.7860   -1.3470 c         1 AAE      0.598100
      6 O8          3.9580    1.9080   -1.0620 o         1 AAE     -0.613100
      7 C9          4.4150   -0.3450   -1.7070 c3        1 AAE     -0.214100
      8 H41         1.4540    1.4230   -1.2360 hc        1 AAE      0.050700
      9 H42         1.7840    0.0180   -2.3490 hc        1 AAE      0.050700
     10 H91         4.2570   -0.6260   -2.7760 hc        1 AAE      0.060700
     11 H92         5.4840   -0.0710   -1.5550 hc        1 AAE      0.060700
     12 H93         4.1460   -1.2290   -1.0660 hc        1 AAE      0.060700
@<TRIPOS>BOND
     1    1    2 1   
     2    2    3 1   
     3    2    4 1   
     4    4    5 1   
     5    4    8 1   
     6    4    9 1   
     7    5    6 2   
     8    5    7 1   
     9    7   10 1   
    10    7   11 1   
    11    7   12 1   
@<TRIPOS>SUBSTRUCTURE
     1 AAE         1 TEMP              0 ****  ****    0 ROOT
