@<TRIPOS>MOLECULE
AAE
   12    11     1     0     0
SMALL
bcc


@<TRIPOS>ATOM
      1 O1         -1.9470    0.9660    1.6130 o         1 AAE     -0.833300
      2 C2         -0.7080    0.7620    1.6990 c         1 AAE      0.925600
      3 O3         -0.1810    0.5490    2.8230 o         1 AAE     -0.833300
      4 C4          0.1490    0.7740    0.4520 c3        1 AAE     -0.312400
      5 C5          0.1930   -0.6170   -0.1430 c         1 AAE      0.598100
      6 O8          0.0870   -1.5890    0.5780 o         1 AAE     -0.613100
      7 C9          0.3680   -0.7960   -1.6340 c3        1 AAE     -0.214100
      8 H41        -0.2330    1.3950   -0.2000 hc        1 AAE      0.050700
      9 H42         1.0560    1.0590    0.6820 hc        1 AAE      0.050700
     10 H91         0.2570   -1.7420   -1.8650 hc        1 AAE      0.060700
     11 H92         1.2650   -0.5000   -1.8960 hc        1 AAE      0.060700
     12 H93        -0.3040   -0.2630   -2.1090 hc        1 AAE      0.060700
@<TRIPOS>BOND
     1    1    2 1   
     2    2    3 1   
     3    2    4 1   
     4    4    5 1   
     5    4    8 1   
     6    4    9 1   
     7    5    6 2   
     8    5    7 1   
     9    7   10 1   
    10    7   11 1   
    11    7   12 1   
@<TRIPOS>SUBSTRUCTURE
     1 AAE         1 TEMP              0 ****  ****    0 ROOT
