@<TRIPOS>MOLECULE
AAE
   12    11     1     0     0
SMALL
bcc


@<TRIPOS>ATOM
      1 O1         -0.0320    0.1700   -2.0480 o         1 AAE     -0.833300
      2 C2         -0.2750    0.5080   -0.8590 c         1 AAE      0.925600
      3 O3         -0.0330    1.6510   -0.3760 o         1 AAE     -0.833300
      4 C4         -0.9690   -0.5470    0.0430 c3        1 AAE     -0.312400
      5 C5         -0.2760   -0.7600    1.3430 c         1 AAE      0.598100
      6 O8          0.2810   -1.8300    1.6440 o         1 AAE     -0.613100
      7 C9         -0.2930    0.3950    2.2930 c3        1 AAE     -0.214100
      8 H41        -1.0330   -1.5090   -0.5250 hc        1 AAE      0.050700
      9 H42        -2.0050   -0.1690    0.2390 hc        1 AAE      0.050700
     10 H91         0.3440    0.1970    3.1860 hc        1 AAE      0.060700
     11 H92         0.0780    1.3040    1.7460 hc        1 AAE      0.060700
     12 H93        -1.3410    0.5890    2.6260 hc        1 AAE      0.060700
@<TRIPOS>BOND
     1    1    2 1   
     2    2    3 1   
     3    2    4 1   
     4    4    5 1   
     5    4    8 1   
     6    4    9 1   
     7    5    6 2   
     8    5    7 1   
     9    7   10 1   
    10    7   11 1   
    11    7   12 1   
@<TRIPOS>SUBSTRUCTURE
     1 AAE         1 TEMP              0 ****  ****    0 ROOT
