@<TRIPOS>MOLECULE
AAF
   60    62     1     0     0
SMALL
bcc


@<TRIPOS>ATOM
      1 C1          0.8060    0.0730    0.1360 c         1 AAF      0.687100
      2 C2          2.2230   -0.5370    0.0480 c3        1 AAF      0.110500
      3 C4          2.9660   -0.2430    1.3730 c3        1 AAF     -0.096400
      4 C5          4.2100    0.5490    0.9920 c3        1 AAF     -0.108400
      5 C6          4.1370    0.7700   -0.5340 c3        1 AAF      0.151500
      6 C9          4.1090    2.2780   -0.8840 c3        1 AAF      0.106800
      7 O3          0.6430    1.3160    0.2110 o         1 AAF     -0.687100
      8 N7          2.9590    0.0760   -1.0580 n3        1 AAF     -0.842200
      9 N8         -0.2910   -0.7550    0.2180 n         1 AAF     -0.455800
     10 C10        -1.6470   -0.2210    0.2330 c3        1 AAF      0.088700
     11 C11        -2.6080   -1.3970   -0.0460 c3        1 AAF     -0.103400
     12 C12        -1.7390   -2.6340   -0.2490 c3        1 AAF     -0.090400
     13 C13        -0.2830   -2.1870   -0.0520 c3        1 AAF      0.082000
     14 C14        -1.9650    0.4580    1.5950 c3        1 AAF      0.074800
     15 N15         2.7990    2.9170   -0.6020 n4        1 AAF     -0.659800
     16 C16         2.8680    4.4460   -0.4850 c         1 AAF      0.642100
     17 O17         2.3960    4.8590    0.5810 o         1 AAF     -0.496100
     18 N18        -3.2840    1.1480    1.5820 n4        1 AAF     -0.832600
     19 N19         3.4410    5.1330   -1.5140 n         1 AAF     -0.412100
     20 C20         3.4990    6.5570   -1.5680 ca        1 AAF      0.023600
     21 C21         3.6530    7.1580   -2.8380 ca        1 AAF     -0.151500
     22 C22         3.7550    8.5410   -2.9360 ca        1 AAF     -0.046500
     23 C23         3.6980    9.3370   -1.7870 ca        1 AAF     -0.103600
     24 C24         3.5420    8.7410   -0.5310 ca        1 AAF     -0.046500
     25 C25         3.4430    7.3560   -0.4130 ca        1 AAF     -0.151500
     26 C26         3.7970   10.8080   -1.8610 c         1 AAF      0.633700
     27 O27         3.7100   11.6020   -0.9230 o         1 AAF     -0.511000
     28 O28         4.0050   11.2900   -3.1210 os        1 AAF     -0.434900
     29 C29         4.1190   12.7130   -3.2470 c3        1 AAF      0.125700
     30 H2          2.1530   -1.6530   -0.1020 h1        1 AAF      0.087700
     31 H41         2.3220    0.3390    2.0770 hc        1 AAF      0.079700
     32 H42         3.2410   -1.2040    1.8760 hc        1 AAF      0.079700
     33 H51         4.2560    1.5170    1.5490 hc        1 AAF      0.081700
     34 H52         5.1380   -0.0230    1.2460 hc        1 AAF      0.081700
     35 H6          5.0830    0.3800   -1.0170 h1        1 AAF      0.101700
     36 H91         4.9040    2.7990   -0.2770 hx        1 AAF      0.107200
     37 H92         4.3390    2.4090   -1.9800 hx        1 AAF      0.107200
     38 HN7         3.2040   -0.5990   -1.7570 hn        1 AAF      0.409800
     39 H10        -1.7330    0.5660   -0.5750 h1        1 AAF      0.078700
     40 H111       -3.2130   -1.1840   -0.9630 hc        1 AAF      0.067200
     41 H112       -3.3130   -1.5620    0.8060 hc        1 AAF      0.067200
     42 H121       -1.8810   -3.0560   -1.2760 hc        1 AAF      0.089200
     43 H122       -2.0020   -3.4360    0.4850 hc        1 AAF      0.089200
     44 H131        0.3190   -2.4050   -0.9780 h1        1 AAF      0.071700
     45 H132        0.1860   -2.7240    0.8180 h1        1 AAF      0.071700
     46 H141       -1.9820   -0.3110    2.4200 hx        1 AAF      0.126700
     47 H142       -1.1710    1.2320    1.8200 hx        1 AAF      0.126700
     48 HN15        2.4250    2.5650    0.3000 hn        1 AAF      0.478800
     49 H181       -4.0320    0.4850    1.3450 hn        1 AAF      0.467467
     50 H182       -3.4750    1.5490    2.5080 hn        1 AAF      0.467467
     51 HN19        3.7400    4.6560   -2.3400 hn        1 AAF      0.347500
     52 H21         3.7020    6.5520   -3.7570 ha        1 AAF      0.156000
     53 H22         3.8820    9.0180   -3.9250 ha        1 AAF      0.184000
     54 H24         3.5010    9.3790    0.3710 ha        1 AAF      0.184000
     55 H25         3.3210    6.9140    0.5890 ha        1 AAF      0.156000
     56 H291        4.2900   12.8610   -4.3430 h1        1 AAF      0.063700
     57 H292        4.9830   13.0780   -2.6410 h1        1 AAF      0.063700
     58 H293        3.1740   13.2000   -2.9060 h1        1 AAF      0.063700
     59 H152        2.1130    2.6450   -1.3170 hn        1 AAF      0.478800
     60 H183       -3.2850    1.9030    0.8870 hn        1 AAF      0.467467
@<TRIPOS>BOND
     1    1    2 1   
     2    1    7 2   
     3    1    9 1   
     4    2    3 1   
     5    2    8 1   
     6    2   30 1   
     7    3    4 1   
     8    3   31 1   
     9    3   32 1   
    10    4    5 1   
    11    4   33 1   
    12    4   34 1   
    13    5    6 1   
    14    5    8 1   
    15    5   35 1   
    16    6   15 1   
    17    6   36 1   
    18    6   37 1   
    19    8   38 1   
    20    9   10 1   
    21    9   13 1   
    22   10   11 1   
    23   10   14 1   
    24   10   39 1   
    25   11   12 1   
    26   11   40 1   
    27   11   41 1   
    28   12   13 1   
    29   12   42 1   
    30   12   43 1   
    31   13   44 1   
    32   13   45 1   
    33   14   18 1   
    34   14   46 1   
    35   14   47 1   
    36   15   16 1   
    37   15   48 1   
    38   15   59 1   
    39   16   17 2   
    40   16   19 1   
    41   18   49 1   
    42   18   50 1   
    43   18   60 1   
    44   19   20 1   
    45   19   51 1   
    46   20   21 ar  
    47   20   25 ar  
    48   21   22 ar  
    49   21   52 1   
    50   22   23 ar  
    51   22   53 1   
    52   23   24 ar  
    53   23   26 1   
    54   24   25 ar  
    55   24   54 1   
    56   25   55 1   
    57   26   27 2   
    58   26   28 1   
    59   28   29 1   
    60   29   56 1   
    61   29   57 1   
    62   29   58 1   
@<TRIPOS>SUBSTRUCTURE
     1 AAF         1 TEMP              0 ****  ****    0 ROOT
