@<TRIPOS>MOLECULE
AAF
   58    60     1     0     0
SMALL
bcc


@<TRIPOS>ATOM
      1 C1         -3.7210    0.1780    0.1910 c         1 AAF      0.677100
      2 C2         -3.3080    1.6190    0.5610 c3        1 AAF      0.100500
      3 C4         -4.0040    2.6100   -0.4080 c3        1 AAF     -0.098400
      4 C5         -2.8780    3.3030   -1.1700 c3        1 AAF     -0.103400
      5 C6         -1.5900    2.5390   -0.7860 c3        1 AAF      0.121500
      6 C9         -1.1990    1.5950   -1.9550 c3        1 AAF      0.092000
      7 O3         -3.0090   -0.5720   -0.5070 o         1 AAF     -0.619100
      8 N7         -1.8580    1.8010    0.4550 n3        1 AAF     -0.790200
      9 N8         -4.9580   -0.2570    0.6220 n         1 AAF     -0.482800
     10 C10        -5.4510   -1.6070    0.3540 c3        1 AAF      0.111700
     11 C11        -6.7030   -1.8040    1.2360 c3        1 AAF     -0.084400
     12 C12        -6.9900   -0.4610    1.8990 c3        1 AAF     -0.090400
     13 C13        -5.8050    0.4550    1.5540 c3        1 AAF      0.096000
     14 C14        -5.7770   -1.8320   -1.1460 c3        1 AAF      0.141800
     15 N15        -0.3600    0.4740   -1.6200 n         1 AAF     -0.501900
     16 C16         0.9610    0.7610   -1.2030 c         1 AAF      0.755100
     17 O17         1.4800    1.8770   -1.4410 o         1 AAF     -0.634100
     18 N18        -6.1310   -3.2040   -1.4240 n3        1 AAF     -0.915800
     19 N19         1.6820   -0.2780   -0.5750 n         1 AAF     -0.471100
     20 C20         3.0520   -0.2880   -0.3010 ca        1 AAF      0.125600
     21 C21         3.6320   -1.5110    0.1330 ca        1 AAF     -0.199500
     22 C22         4.9790   -1.5810    0.4540 ca        1 AAF     -0.041500
     23 C23         5.7920   -0.4450    0.3530 ca        1 AAF     -0.177600
     24 C24         5.2310    0.7640   -0.0770 ca        1 AAF     -0.041500
     25 C25         3.8830    0.8510   -0.4000 ca        1 AAF     -0.199500
     26 C26         7.2180   -0.4870    0.6840 c         1 AAF      0.651700
     27 O27         8.0400    0.4340    0.6470 o         1 AAF     -0.551000
     28 O28         7.6710   -1.7200    1.0860 os        1 AAF     -0.443900
     29 C29         9.0560   -1.8090    1.4180 c3        1 AAF      0.128700
     30 H2         -3.6320    1.8210    1.6230 h1        1 AAF      0.062700
     31 H41        -4.6140    3.3450    0.1700 hc        1 AAF      0.056700
     32 H42        -4.6880    2.0720   -1.1090 hc        1 AAF      0.056700
     33 H51        -2.7940    4.3750   -0.8650 hc        1 AAF      0.055700
     34 H52        -3.0520    3.2750   -2.2720 hc        1 AAF      0.055700
     35 H6         -0.7310    3.2490   -0.6220 h1        1 AAF      0.078700
     36 H91        -0.6730    2.2240   -2.7270 h1        1 AAF      0.068200
     37 H92        -2.1360    1.1540   -2.4010 h1        1 AAF      0.068200
     38 HN7        -1.5220    2.3170    1.2450 hn        1 AAF      0.367800
     39 H10        -4.6420   -2.3380    0.6520 h1        1 AAF      0.060700
     40 H111       -6.5000   -2.5910    2.0030 hc        1 AAF      0.064200
     41 H112       -7.5730   -2.1420    0.6210 hc        1 AAF      0.064200
     42 H121       -7.0870   -0.5690    3.0060 hc        1 AAF      0.053700
     43 H122       -7.9410   -0.0210    1.5120 hc        1 AAF      0.053700
     44 H131       -5.2320    0.7120    2.4890 h1        1 AAF      0.038200
     45 H132       -6.1570    1.4170    1.0870 h1        1 AAF      0.038200
     46 H141       -6.6570   -1.1890   -1.4310 h1        1 AAF      0.042200
     47 H142       -4.8870   -1.4830   -1.7500 h1        1 AAF      0.042200
     48 HN15       -0.8500   -0.2360   -1.1060 hn        1 AAF      0.320500
     49 H181       -6.2920   -3.3210   -2.4050 hn        1 AAF      0.351300
     50 H182       -5.4010   -3.8270   -1.1370 hn        1 AAF      0.351300
     51 HN19        1.2220   -1.1550   -0.4620 hn        1 AAF      0.319500
     52 H21         3.0170   -2.4200    0.2210 ha        1 AAF      0.158500
     53 H22         5.4170   -2.5350    0.7900 ha        1 AAF      0.154500
     54 H24         5.8740    1.6570   -0.1580 ha        1 AAF      0.154500
     55 H25         3.4750    1.8190   -0.7370 ha        1 AAF      0.158500
     56 H291        9.6790   -1.5440    0.5310 h1        1 AAF      0.049367
     57 H292        9.2900   -1.1240    2.2680 h1        1 AAF      0.049367
     58 H293        9.1900   -2.8810    1.7070 h1        1 AAF      0.049367
@<TRIPOS>BOND
     1    1    2 1   
     2    1    7 2   
     3    1    9 1   
     4    2    3 1   
     5    2    8 1   
     6    2   30 1   
     7    3    4 1   
     8    3   31 1   
     9    3   32 1   
    10    4    5 1   
    11    4   33 1   
    12    4   34 1   
    13    5    6 1   
    14    5    8 1   
    15    5   35 1   
    16    6   15 1   
    17    6   36 1   
    18    6   37 1   
    19    8   38 1   
    20    9   10 1   
    21    9   13 1   
    22   10   11 1   
    23   10   14 1   
    24   10   39 1   
    25   11   12 1   
    26   11   40 1   
    27   11   41 1   
    28   12   13 1   
    29   12   42 1   
    30   12   43 1   
    31   13   44 1   
    32   13   45 1   
    33   14   18 1   
    34   14   46 1   
    35   14   47 1   
    36   15   16 1   
    37   15   48 1   
    38   16   17 2   
    39   16   19 1   
    40   18   49 1   
    41   18   50 1   
    42   19   20 1   
    43   19   51 1   
    44   20   21 ar  
    45   20   25 ar  
    46   21   22 ar  
    47   21   52 1   
    48   22   23 ar  
    49   22   53 1   
    50   23   24 ar  
    51   23   26 1   
    52   24   25 ar  
    53   24   54 1   
    54   25   55 1   
    55   26   27 2   
    56   26   28 1   
    57   28   29 1   
    58   29   56 1   
    59   29   57 1   
    60   29   58 1   
@<TRIPOS>SUBSTRUCTURE
     1 AAF         1 TEMP              0 ****  ****    0 ROOT
