@<TRIPOS>MOLECULE
AAF
   60    62     1     0     0
SMALL
bcc


@<TRIPOS>ATOM
      1 C1          0.8070    0.0750    0.1500 c         1 AAF      0.687100
      2 C2          2.2230   -0.5340    0.0640 c3        1 AAF      0.110500
      3 C4          2.9670   -0.2350    1.3880 c3        1 AAF     -0.096400
      4 C5          4.2090    0.5570    1.0030 c3        1 AAF     -0.108400
      5 C6          4.1370    0.7690   -0.5240 c3        1 AAF      0.151500
      6 C9          4.1090    2.2760   -0.8820 c3        1 AAF      0.106800
      7 O3          0.6430    1.3190    0.2180 o         1 AAF     -0.687100
      8 N7          2.9590    0.0730   -1.0450 n7        1 AAF     -0.842200
      9 N8         -0.2910   -0.7520    0.2370 n         1 AAF     -0.455800
     10 C10        -1.6470   -0.2180    0.2510 c3        1 AAF      0.088700
     11 C11        -2.6080   -1.3950   -0.0220 c3        1 AAF     -0.103400
     12 C12        -1.7390   -2.6330   -0.2200 c3        1 AAF     -0.090400
     13 C13        -0.2830   -2.1850   -0.0260 c3        1 AAF      0.082000
     14 C14        -1.9640    0.4680    1.6090 c3        1 AAF      0.074800
     15 N15         2.7990    2.9170   -0.6050 ny        1 AAF     -0.659800
     16 C16         2.8670    4.4460   -0.4950 c         1 AAF      0.642100
     17 O17         2.3940    4.8640    0.5680 o         1 AAF     -0.496100
     18 N18        -3.2830    1.1590    1.5940 nz        1 AAF     -0.832600
     19 N19         3.4420    5.1280   -1.5270 ns        1 AAF     -0.412100
     20 C20         3.5000    6.5510   -1.5870 ca        1 AAF      0.023600
     21 C21         3.6550    7.1460   -2.8600 ca        1 AAF     -0.151500
     22 C22         3.7580    8.5290   -2.9650 ca        1 AAF     -0.046500
     23 C23         3.6990    9.3310   -1.8190 ca        1 AAF     -0.103600
     24 C24         3.5430    8.7410   -0.5600 ca        1 AAF     -0.046500
     25 C25         3.4440    7.3560   -0.4360 ca        1 AAF     -0.151500
     26 C26         3.7980   10.8010   -1.9000 c         1 AAF      0.633700
     27 O27         3.7110   11.5990   -0.9660 o         1 AAF     -0.511000
     28 O28         4.0060   11.2770   -3.1620 os        1 AAF     -0.434900
     29 C29         4.1210   12.7000   -3.2950 c3        1 AAF      0.125700
     30 H2          2.1530   -1.6520   -0.0800 h1        1 AAF      0.087700
     31 H41         3.2430   -1.1940    1.8940 hc        1 AAF      0.079700
     32 H42         2.3220    0.3500    2.0900 hc        1 AAF      0.079700
     33 H51         5.1390   -0.0130    1.2600 hc        1 AAF      0.081700
     34 H52         4.2550    1.5280    1.5550 hc        1 AAF      0.081700
     35 H6          5.0830    0.3770   -1.0050 h1        1 AAF      0.101700
     36 H91         4.9040    2.8000   -0.2770 hx        1 AAF      0.107200
     37 H92         4.3400    2.4010   -1.9780 hx        1 AAF      0.107200
     38 HN7         3.2040   -0.6050   -1.7400 hn        1 AAF      0.409800
     39 H10        -1.7330    0.5650   -0.5620 h1        1 AAF      0.078700
     40 H111       -3.2140   -1.1870   -0.9390 hc        1 AAF      0.067200
     41 H112       -3.3120   -1.5560    0.8320 hc        1 AAF      0.067200
     42 H121       -1.8810   -3.0600   -1.2450 hc        1 AAF      0.089200
     43 H122       -2.0020   -3.4320    0.5190 hc        1 AAF      0.089200
     44 H131        0.3180   -2.4080   -0.9510 h1        1 AAF      0.071700
     45 H132        0.1870   -2.7180    0.8470 h1        1 AAF      0.071700
     46 H141       -1.1700    1.2430    1.8290 hx        1 AAF      0.126700
     47 H142       -1.9800   -0.2960    2.4380 hx        1 AAF      0.126700
     48 HN15        2.1130    2.6410   -1.3190 hn        1 AAF      0.478800
     49 H181       -4.0300    0.4940    1.3610 hn        1 AAF      0.467467
     50 H182       -3.4730    1.5640    2.5180 hn        1 AAF      0.467467
     51 HN19        3.7420    4.6470   -2.3500 hn        1 AAF      0.347500
     52 H21         3.7050    6.5360   -3.7760 ha        1 AAF      0.156000
     53 H22         3.8850    9.0010   -3.9560 ha        1 AAF      0.184000
     54 H24         3.5010    9.3830    0.3390 ha        1 AAF      0.184000
     55 H25         3.3200    6.9190    0.5680 ha        1 AAF      0.156000
     56 H291        4.2910   12.8420   -4.3910 h1        1 AAF      0.063700
     57 H292        4.9850   13.0680   -2.6910 h1        1 AAF      0.063700
     58 H293        3.1760   13.1880   -2.9560 h1        1 AAF      0.063700
     59 H152        2.4250    2.5690    0.3000 hn        1 AAF      0.478800
     60 H183       -3.2840    1.9100    0.8950 hn        1 AAF      0.467467
@<TRIPOS>BOND
     1    1    2 1   
     2    1    7 2   
     3    1    9 1   
     4    2    3 1   
     5    2    8 1   
     6    2   30 1   
     7    3    4 1   
     8    3   31 1   
     9    3   32 1   
    10    4    5 1   
    11    4   33 1   
    12    4   34 1   
    13    5    6 1   
    14    5    8 1   
    15    5   35 1   
    16    6   15 1   
    17    6   36 1   
    18    6   37 1   
    19    8   38 1   
    20    9   10 1   
    21    9   13 1   
    22   10   11 1   
    23   10   14 1   
    24   10   39 1   
    25   11   12 1   
    26   11   40 1   
    27   11   41 1   
    28   12   13 1   
    29   12   42 1   
    30   12   43 1   
    31   13   44 1   
    32   13   45 1   
    33   14   18 1   
    34   14   46 1   
    35   14   47 1   
    36   15   16 1   
    37   15   48 1   
    38   15   59 1   
    39   16   17 2   
    40   16   19 1   
    41   18   49 1   
    42   18   50 1   
    43   18   60 1   
    44   19   20 1   
    45   19   51 1   
    46   20   21 ar  
    47   20   25 ar  
    48   21   22 ar  
    49   21   52 1   
    50   22   23 ar  
    51   22   53 1   
    52   23   24 ar  
    53   23   26 1   
    54   24   25 ar  
    55   24   54 1   
    56   25   55 1   
    57   26   27 2   
    58   26   28 1   
    59   28   29 1   
    60   29   56 1   
    61   29   57 1   
    62   29   58 1   
@<TRIPOS>SUBSTRUCTURE
     1 AAF         1 TEMP              0 ****  ****    0 ROOT
