@<TRIPOS>MOLECULE
AAF
   61    63     1     0     0
SMALL
bcc


@<TRIPOS>ATOM
      1 C1          0.0120    0.2300    0.1910 c         1 AAF      0.664100
      2 C2          0.9120    1.4350    0.5130 c3        1 AAF      0.091500
      3 C4          0.2750    2.2780    1.6480 c3        1 AAF     -0.098400
      4 C5          0.2980    3.7250    1.1660 c3        1 AAF     -0.094400
      5 C6          1.1380    3.6820   -0.1330 c3        1 AAF      0.114500
      6 C9          0.6360    4.7440   -1.1210 c3        1 AAF      0.113800
      7 O3         -0.8110    0.2800   -0.7490 o         1 AAF     -0.629100
      8 N7          1.1430    2.3090   -0.6550 n3        1 AAF     -0.793200
      9 N8          0.0780   -0.8820    1.0030 n         1 AAF     -0.455800
     10 C10        -0.6070   -2.1210    0.6510 c3        1 AAF      0.089700
     11 C11        -0.0380   -3.2310    1.5620 c3        1 AAF     -0.104400
     12 C12         1.0180   -2.5760    2.4470 c3        1 AAF     -0.089400
     13 C13         1.0930   -1.1030    2.0240 c3        1 AAF      0.082000
     14 C14        -2.1460   -1.9890    0.8170 c3        1 AAF      0.075800
     15 N15         1.5880    4.8690   -2.2970 n4        1 AAF     -0.643800
     16 C16         1.0700    5.8160   -3.3240 c         1 AAF      0.480100
     17 O17        -0.1270    5.9590   -3.5110 o         1 AAF     -0.290100
     18 N18        -2.8680   -3.1890    0.3120 n4        1 AAF     -0.833600
     19 N19         2.0580    6.6040   -4.1360 n4        1 AAF     -0.495200
     20 C20         3.2160    7.0690   -3.3670 ca        1 AAF     -0.134400
     21 C21         3.2050    8.3630   -2.8140 ca        1 AAF     -0.119000
     22 C22         4.3530    8.8340   -2.1740 ca        1 AAF     -0.047000
     23 C23         5.4910    8.0270   -2.0840 ca        1 AAF     -0.023600
     24 C24         5.4950    6.7380   -2.6460 ca        1 AAF     -0.047000
     25 C25         4.3650    6.2510   -3.2920 ca        1 AAF     -0.119000
     26 C26         6.7270    8.4980   -1.4030 c         1 AAF      0.617700
     27 O27         7.6750    7.7800   -1.0870 o         1 AAF     -0.470000
     28 O28         6.7290    9.8260   -1.1390 os        1 AAF     -0.421900
     29 C29         7.9200   10.3560   -0.5200 c3        1 AAF      0.123700
     30 H2          1.9350    1.0730    0.8270 h1        1 AAF      0.111700
     31 H41        -0.7730    1.9500    1.8580 hc        1 AAF      0.088700
     32 H42         0.8690    2.1580    2.5890 hc        1 AAF      0.088700
     33 H51        -0.7380    4.0980    0.9680 hc        1 AAF      0.084700
     34 H52         0.7740    4.4000    1.9200 hc        1 AAF      0.084700
     35 H6          2.2130    3.9110    0.1440 h1        1 AAF      0.093700
     36 H91         0.5900    5.7460   -0.6040 hx        1 AAF      0.135200
     37 H92        -0.3860    4.4860   -1.5270 hx        1 AAF      0.135200
     38 HN7         0.3970    2.1720   -1.3220 hn        1 AAF      0.371800
     39 H10        -0.3950   -2.3510   -0.4370 h1        1 AAF      0.079700
     40 H111        0.4190   -4.0380    0.9350 hc        1 AAF      0.071700
     41 H112       -0.8350   -3.6910    2.1960 hc        1 AAF      0.071700
     42 H121        2.0130   -3.0700    2.3160 hc        1 AAF      0.091200
     43 H122        0.7410   -2.6570    3.5290 hc        1 AAF      0.091200
     44 H131        2.1170   -0.8710    1.6150 h1        1 AAF      0.066700
     45 H132        0.8910   -0.4180    2.8930 h1        1 AAF      0.066700
     46 H141       -2.4110   -1.8550    1.9050 hx        1 AAF      0.127200
     47 H142       -2.5090   -1.0930    0.2290 hx        1 AAF      0.127200
     48 HN15        2.5180    5.1670   -1.9480 hn        1 AAF      0.501300
     49 H181       -2.7080   -3.3050   -0.6950 hn        1 AAF      0.469467
     50 H182       -3.8760   -3.0820    0.4770 hn        1 AAF      0.469467
     51 HN19        2.3810    6.0230   -4.9320 hn        1 AAF      0.515800
     52 H21         2.3260    9.0290   -2.8920 ha        1 AAF      0.171000
     53 H22         4.3720    9.8600   -1.7500 ha        1 AAF      0.221500
     54 H24         6.4170    6.1230   -2.5790 ha        1 AAF      0.221500
     55 H25         4.4130    5.2620   -3.7780 ha        1 AAF      0.171000
     56 H291        7.6860   11.4470   -0.4310 h1        1 AAF      0.080700
     57 H292        8.7990   10.1700   -1.1820 h1        1 AAF      0.080700
     58 H293        8.0660    9.8760    0.4770 h1        1 AAF      0.080700
     59 H152        1.6940    3.9340   -2.7340 hn        1 AAF      0.501300
     60 H183       -2.5390   -4.0340    0.7950 hn        1 AAF      0.469467
     61 H192        1.5470    7.4270   -4.5250 hn        1 AAF      0.515800
@<TRIPOS>BOND
     1    1    2 1   
     2    1    7 2   
     3    1    9 1   
     4    2    3 1   
     5    2    8 1   
     6    2   30 1   
     7    3    4 1   
     8    3   31 1   
     9    3   32 1   
    10    4    5 1   
    11    4   33 1   
    12    4   34 1   
    13    5    6 1   
    14    5    8 1   
    15    5   35 1   
    16    6   15 1   
    17    6   36 1   
    18    6   37 1   
    19    8   38 1   
    20    9   10 1   
    21    9   13 1   
    22   10   11 1   
    23   10   14 1   
    24   10   39 1   
    25   11   12 1   
    26   11   40 1   
    27   11   41 1   
    28   12   13 1   
    29   12   42 1   
    30   12   43 1   
    31   13   44 1   
    32   13   45 1   
    33   14   18 1   
    34   14   46 1   
    35   14   47 1   
    36   15   16 1   
    37   15   48 1   
    38   15   59 1   
    39   16   17 2   
    40   16   19 1   
    41   18   49 1   
    42   18   50 1   
    43   18   60 1   
    44   19   20 1   
    45   19   51 1   
    46   19   61 1   
    47   20   21 ar  
    48   20   25 ar  
    49   21   22 ar  
    50   21   52 1   
    51   22   23 ar  
    52   22   53 1   
    53   23   24 ar  
    54   23   26 1   
    55   24   25 ar  
    56   24   54 1   
    57   25   55 1   
    58   26   27 2   
    59   26   28 1   
    60   28   29 1   
    61   29   56 1   
    62   29   57 1   
    63   29   58 1   
@<TRIPOS>SUBSTRUCTURE
     1 AAF         1 TEMP              0 ****  ****    0 ROOT
