@<TRIPOS>MOLECULE
AAF
   58    57     1     0     0
SMALL
bcc


@<TRIPOS>ATOM
      1 C1          0.2850   -3.3040   -0.9290 c1        1 AAF      0.333000
      2 C2          1.6790   -3.4170   -0.7450 c2        1 AAF     -0.048000
      3 C4          1.9800   -3.2340    0.5550 c3        1 AAF     -0.171000
      4 C5          2.2120   -1.7140    0.7300 c3        1 AAF     -0.186000
      5 C6          2.3280   -1.1210   -0.6970 c3        1 AAF     -0.067000
      6 C9          1.0300   -0.2970   -1.0600 c3        1 AAF     -0.030000
      7 O3         -0.2950   -2.2880   -0.5810 o         1 AAF     -0.422000
      8 N7          2.4460   -2.1280   -1.4850 n3        1 AAF     -0.288000
      9 N8         -0.4620   -4.4220   -1.4060 n3        1 AAF     -0.319000
     10 C10        -2.0440   -4.5230   -1.5500 c3        1 AAF      0.029000
     11 C11        -2.2740   -5.2220   -2.6510 c3        1 AAF     -0.162000
     12 C12        -1.0360   -6.1170   -2.8200 c3        1 AAF     -0.170000
     13 C13         0.0180   -5.5660   -1.8070 c3        1 AAF     -0.024000
     14 C14        -2.6470   -5.2440   -0.3210 c3        1 AAF     -0.090000
     15 N15         0.5930    0.4500    0.0910 n         1 AAF     -0.325000
     16 C16         0.6030    1.8950    0.0570 c2        1 AAF      0.387000
     17 O17         1.4150    2.4900   -0.6640 o         1 AAF     -0.400000
     18 N18        -4.1010   -5.0400   -0.2970 n3        1 AAF     -0.350000
     19 N19        -0.2680    2.6590    0.9750 n         1 AAF     -0.329000
     20 C20        -0.1730    4.1160    1.0310 c2        1 AAF      0.138000
     21 C21        -1.3300    4.8830    1.0530 c2        1 AAF     -0.214000
     22 C22        -1.2530    6.2500    1.2710 c1        1 AAF     -0.043000
     23 C23        -0.0180    6.8540    1.4660 c1        1 AAF     -0.160000
     24 C24         1.1320    6.0930    1.4430 c1        1 AAF     -0.040000
     25 C25         1.0540    4.7170    1.2250 c1        1 AAF     -0.187000
     26 C26         0.0540    8.3240    1.8160 c2        1 AAF      0.353000
     27 O27        -0.9010    9.0370    1.6270 o         1 AAF     -0.367000
     28 O28         1.1940    8.8370    2.4510 os        1 AAF     -0.279000
     29 C29         0.9600   10.0410    3.1620 c3        1 AAF     -0.061000
     30 H2          1.8440   -4.3170   -1.1210 h4        1 AAF      0.094000
     31 H41         2.7850   -3.7230    0.7830 hc        1 AAF      0.106500
     32 H42         1.2380   -3.5250    1.1160 hc        1 AAF      0.106500
     33 H51         3.0620   -1.5530    1.2420 hc        1 AAF      0.105500
     34 H52         1.4720   -1.3210    1.1910 hc        1 AAF      0.105500
     35 H6          3.1400   -0.5340   -0.7630 h1        1 AAF      0.093000
     36 H91         0.3210   -0.9120   -1.3410 h1        1 AAF      0.113500
     37 H92         1.2380    0.3350   -1.8060 h1        1 AAF      0.113500
     38 HN7         3.3540   -2.3280   -1.6040 hn        1 AAF      0.161000
     39 H10        -2.4340   -3.6140   -1.6380 h1        1 AAF      0.101000
     40 H111       -3.1030   -5.7900   -2.5360 hc        1 AAF      0.104500
     41 H112       -2.3750   -4.6140   -3.4380 hc        1 AAF      0.104500
     42 H121       -0.6820   -6.0470   -3.7640 hc        1 AAF      0.093500
     43 H122       -1.2610   -7.0620   -2.6040 hc        1 AAF      0.093500
     44 H131        0.1140   -6.1750   -1.0550 h1        1 AAF      0.083000
     45 H132        0.8860   -5.4350   -2.2550 h1        1 AAF      0.083000
     46 H141       -2.4510   -6.2070   -0.3760 h1        1 AAF      0.080000
     47 H142       -2.2490   -4.8740    0.5080 h1        1 AAF      0.080000
     48 HN15        0.3660   -0.0010    0.8880 hn        1 AAF      0.228000
     49 H181       -4.3370   -4.5670    0.4770 hn        1 AAF      0.148000
     50 H182       -4.5250   -5.8510   -0.2990 hn        1 AAF      0.148000
     51 HN19       -0.9160    2.2150    1.4810 hn        1 AAF      0.258000
     52 H21        -2.1540    4.4810    0.9240 ha        1 AAF      0.137000
     53 H22        -2.0400    6.7710    1.2860 ha        1 AAF      0.153000
     54 H24         1.9730    6.5040    1.5760 ha        1 AAF      0.154000
     55 H25         1.8510    4.1910    1.2090 ha        1 AAF      0.178000
     56 H291        0.3600   10.6140    2.6440 h1        1 AAF      0.088000
     57 H292        1.7970   10.4980    3.3060 h1        1 AAF      0.088000
     58 H293        0.5480    9.8330    4.0290 h1        1 AAF      0.088000
@<TRIPOS>BOND
     1    1    7 1   
     2    1    9 1   
     3    2    3 1   
     4    2    8 1   
     5    2   30 1   
     6    3    4 1   
     7    3   31 1   
     8    3   32 1   
     9    4    5 1   
    10    4   33 1   
    11    4   34 1   
    12    5    6 1   
    13    5    8 1   
    14    5   35 1   
    15    6   15 1   
    16    6   36 1   
    17    6   37 1   
    18    8   38 1   
    19    9   10 1   
    20    9   13 1   
    21   10   11 1   
    22   10   14 1   
    23   10   39 1   
    24   11   12 1   
    25   11   40 1   
    26   11   41 1   
    27   12   13 1   
    28   12   42 1   
    29   12   43 1   
    30   13   44 1   
    31   13   45 1   
    32   14   18 1   
    33   14   46 1   
    34   14   47 1   
    35   15   16 1   
    36   15   48 1   
    37   16   17 1   
    38   16   19 1   
    39   18   49 1   
    40   18   50 1   
    41   19   20 1   
    42   19   51 1   
    43   20   21 1   
    44   20   25 1   
    45   21   22 1   
    46   21   52 1   
    47   22   53 1   
    48   23   24 1   
    49   23   26 1   
    50   24   54 1   
    51   25   55 1   
    52   26   27 1   
    53   26   28 1   
    54   28   29 1   
    55   29   56 1   
    56   29   57 1   
    57   29   58 1   
@<TRIPOS>SUBSTRUCTURE
     1 AAF         1 TEMP              0 ****  ****    0 ROOT
