@<TRIPOS>MOLECULE
AAG
   30    29     1     0     0
SMALL
bcc


@<TRIPOS>ATOM
      1 N1         -0.0400   -0.2610   -0.1480 n         1 AAG     -0.518900
      2 C1          1.3990   -0.1790   -0.0050 c3        1 AAG     -0.048300
      3 C2          1.8610   -0.0780    1.4530 c3        1 AAG     -0.070400
      4 C4          1.6440    1.3100    2.0150 c3        1 AAG     -0.093400
      5 C5          1.9900    1.3340    3.5040 c3        1 AAG      0.176800
      6 N2          1.8450    2.6480    4.0960 nh        1 AAG     -0.843200
      7 C6          1.7860    2.7250    5.5240 c2        1 AAG      0.746100
      8 N3          1.1410    3.9040    6.0430 nh        1 AAG     -0.883800
      9 N4          2.2870    1.8590    6.3740 n2        1 AAG     -0.903100
     10 C3          2.1150   -1.4270   -0.6520 c         1 AAG      0.912600
     11 O1          3.3720   -1.3810   -0.6960 o         1 AAG     -0.828800
     12 O2          1.4030   -2.3760   -1.0850 o         1 AAG     -0.828800
     13 C8         -0.8390    0.8170   -0.4250 c         1 AAG      0.639100
     14 C9         -2.2640    0.5260   -0.8560 c3        1 AAG     -0.176100
     15 O4         -0.4660    2.0060   -0.2820 o         1 AAG     -0.665100
     16 HN1        -0.3540   -1.1660   -0.4400 hn        1 AAG      0.326500
     17 HC1         1.7680    0.7360   -0.5530 h1        1 AAG      0.058700
     18 HC21        2.9570   -0.3280    1.4660 hc        1 AAG      0.051700
     19 HC22        1.3310   -0.8380    2.0840 hc        1 AAG      0.051700
     20 HC41        0.5780    1.6230    1.8570 hc        1 AAG      0.056200
     21 HC42        2.2870    2.0410    1.4590 hc        1 AAG      0.056200
     22 HC51        1.3450    0.5700    4.0310 h1        1 AAG      0.035700
     23 HC52        3.0640    1.0180    3.6360 h1        1 AAG      0.035700
     24 HN2         1.1700    3.2120    3.6200 hn        1 AAG      0.404800
     25 HN31        1.4330    4.7330    5.5670 hn        1 AAG      0.381800
     26 HN32        1.2690    3.9980    7.0310 hn        1 AAG      0.381800
     27 HN4         2.6310    1.0140    5.9740 hn        1 AAG      0.394400
     28 HC91       -2.8080    1.4920   -0.9830 hc        1 AAG      0.050367
     29 HC92       -2.7890   -0.0910   -0.0880 hc        1 AAG      0.050367
     30 HC93       -2.2660   -0.0250   -1.8270 hc        1 AAG      0.050367
@<TRIPOS>BOND
     1    1    2 1   
     2    1   13 1   
     3    1   16 1   
     4    2    3 1   
     5    2   10 1   
     6    2   17 1   
     7    3    4 1   
     8    3   18 1   
     9    3   19 1   
    10    4    5 1   
    11    4   20 1   
    12    4   21 1   
    13    5    6 1   
    14    5   22 1   
    15    5   23 1   
    16    6    7 1   
    17    6   24 1   
    18    7    8 1   
    19    7    9 2   
    20    8   25 1   
    21    8   26 1   
    22    9   27 1   
    23   10   11 1   
    24   10   12 1   
    25   13   14 1   
    26   13   15 2   
    27   14   28 1   
    28   14   29 1   
    29   14   30 1   
@<TRIPOS>SUBSTRUCTURE
     1 AAG         1 TEMP              0 ****  ****    0 ROOT
