@<TRIPOS>MOLECULE
AAG
   33    32     1     0     0
SMALL
bcc


@<TRIPOS>ATOM
      1 N1          0.0000    0.0000    0.0000 ny        1 AAG      0.118200
      2 C1          1.4630    0.0000    0.0000 c3        1 AAG     -0.170500
      3 C2          1.9740    0.0000    1.4410 c3        1 AAG     -0.005400
      4 C4          1.4630    1.2480    2.1630 c3        1 AAG     -0.049400
      5 C5          1.9740    1.2470    3.6060 c3        1 AAG     -0.034200
      6 N2          1.4870    2.4420    4.2970 ny        1 AAG      0.088000
      7 C6          1.8190    2.6590    5.6130 c2        1 AAG     -0.058900
      8 N3          1.3600    3.7820    6.2630 nz        1 AAG      0.203400
      9 N4          2.5690    1.8020    6.2450 n2        1 AAG     -0.252100
     10 C3          1.9660   -1.2290   -0.7120 c         1 AAG      0.927600
     11 O1          3.0220   -1.1990   -1.2980 o         1 AAG     -0.730300
     12 O2          1.2420   -2.3580   -0.6930 o         1 AAG     -0.730300
     13 C8         -0.6760    0.5830   -1.0100 c         1 AAG      0.342100
     14 C9         -2.1810    0.5830   -1.0100 c3        1 AAG     -0.055100
     15 O4         -0.0690    1.1090   -1.9190 o         1 AAG     -0.401100
     16 HN1        -0.2910   -0.9570    0.0290 hn        1 AAG      0.254800
     17 HC1         1.8240    0.8850   -0.5100 hx        1 AAG      0.100700
     18 HC21        1.6140   -0.8850    1.9520 hc        1 AAG      0.068200
     19 HC22        3.0570    0.0010    1.4410 hc        1 AAG      0.068200
     20 HC41        0.3800    1.2460    2.1640 hc        1 AAG      0.033700
     21 HC42        1.8230    2.1330    1.6530 hc        1 AAG      0.033700
     22 HC51        1.6140    0.3620    4.1160 hx        1 AAG      0.100200
     23 HC52        3.0580    1.2480    3.6050 hx        1 AAG      0.100200
     24 HN2         0.4870    2.4180    4.2500 hn        1 AAG      0.250300
     25 HN31        1.6660    4.5990    5.7730 hn        1 AAG      0.247467
     26 HN32        0.3600    3.7650    6.2920 hn        1 AAG      0.247467
     27 HN4         2.9030    0.9850    5.7750 hn        1 AAG      0.393400
     28 HC91       -2.5430   -0.3180   -0.5300 hc        1 AAG      0.052700
     29 HC92       -2.5430    0.6190   -2.0300 hc        1 AAG      0.052700
     30 HC93       -2.5430    1.4500   -0.4680 hc        1 AAG      0.052700
     31 H12        -0.2910    0.4550    0.8430 hn        1 AAG      0.254800
     32 H22         1.8170    3.2330    3.7800 hn        1 AAG      0.250300
     33 H33         1.7220    3.7980    7.1960 hn        1 AAG      0.247467
@<TRIPOS>BOND
     1    1    2 1   
     2    1   13 1   
     3    1   16 1   
     4    1   31 1   
     5    2    3 1   
     6    2   10 1   
     7    2   17 1   
     8    3    4 1   
     9    3   18 1   
    10    3   19 1   
    11    4    5 1   
    12    4   20 1   
    13    4   21 1   
    14    5    6 1   
    15    5   22 1   
    16    5   23 1   
    17    6    7 1   
    18    6   24 1   
    19    6   32 1   
    20    7    8 1   
    21    7    9 2   
    22    8   25 1   
    23    8   26 1   
    24    8   33 1   
    25    9   27 1   
    26   10   11 1   
    27   10   12 1   
    28   13   14 1   
    29   13   15 2   
    30   14   28 1   
    31   14   29 1   
    32   14   30 1   
@<TRIPOS>SUBSTRUCTURE
     1 AAG         1 TEMP              0 ****  ****    0 ROOT
