@<TRIPOS>MOLECULE
AAG
   30    28     1     0     0
SMALL
bcc


@<TRIPOS>ATOM
      1 N1         -2.3730   -0.5660   -1.4330 n         1 AAG     -0.532900
      2 C1         -0.9230   -0.4530   -1.4410 c3        1 AAG     -0.026300
      3 C2         -0.4090   -0.5200   -0.0260 c3        1 AAG     -0.078400
      4 C4          0.9170    0.3070    0.0900 c3        1 AAG     -0.097400
      5 C5          1.3110    0.4460    1.5850 c3        1 AAG      0.145800
      6 N2          2.6630    0.9680    1.6840 nh        1 AAG     -0.762000
      7 C6          3.2610    1.1940    2.9900 c2        1 AAG      0.313000
      8 N3          4.2050    0.2660    3.5120 nh        1 AAG     -0.838600
      9 N4          2.9290    2.2540    3.6870 n1        1 AAG     -0.351000
     10 C3         -0.3410   -1.5710   -2.2330 c         1 AAG      0.916600
     11 O1          0.4680   -1.3290   -3.1540 o         1 AAG     -0.837800
     12 O2         -0.6110   -2.7640   -1.9290 o         1 AAG     -0.837800
     13 C8         -3.1240   -0.2260   -2.5990 c         1 AAG      0.644100
     14 C9         -4.6260   -0.3850   -2.6010 c3        1 AAG     -0.175100
     15 O4         -2.5590    0.2200   -3.5760 o         1 AAG     -0.660100
     16 HN1        -2.7950   -0.9190   -0.7090 hn        1 AAG      0.329500
     17 HC1        -0.6660    0.3940   -1.8390 h1        1 AAG      0.059700
     18 HC21       -1.0780   -0.1510    0.5790 hc        1 AAG      0.038700
     19 HC22       -0.2330   -1.4620    0.2140 hc        1 AAG      0.038700
     20 HC41        1.6350   -0.1550   -0.3970 hc        1 AAG      0.039200
     21 HC42        0.7820    1.1960   -0.2950 hc        1 AAG      0.039200
     22 HC51        1.2690   -0.4270    2.0150 h1        1 AAG      0.070200
     23 HC52        0.6910    1.0590    2.0300 h1        1 AAG      0.070200
     24 HN2         3.1500    1.1160    0.9300 hn        1 AAG      0.365800
     25 HN31        4.5520    0.3890    4.3530 hn        1 AAG      0.421300
     26 HN32        4.4370   -0.4650    3.0290 hn        1 AAG      0.421300
     27 HN4         2.3250    2.8470    3.3530 DU        1 AAG      0.136000
     28 HC91       -5.0060    0.1110   -1.8520 hc        1 AAG      0.050367
     29 HC92       -4.8560   -1.3410   -2.5130 hc        1 AAG      0.050367
     30 HC93       -4.9960   -0.0310   -3.4550 hc        1 AAG      0.050367
@<TRIPOS>BOND
     1    1    2 1   
     2    1   13 1   
     3    1   16 1   
     4    2    3 1   
     5    2   10 1   
     6    2   17 1   
     7    3    4 1   
     8    3   18 1   
     9    3   19 1   
    10    4    5 1   
    11    4   20 1   
    12    4   21 1   
    13    5    6 1   
    14    5   22 1   
    15    5   23 1   
    16    6    7 1   
    17    6   24 1   
    18    7    8 1   
    19    7    9 2   
    20    8   25 1   
    21    8   26 1   
    22   10   11 1   
    23   10   12 1   
    24   13   14 1   
    25   13   15 2   
    26   14   28 1   
    27   14   29 1   
    28   14   30 1   
@<TRIPOS>SUBSTRUCTURE
     1 AAG         1 TEMP              0 ****  ****    0 ROOT
