@<TRIPOS>MOLECULE
AAG
   30    29     1     0     0
SMALL
bcc


@<TRIPOS>ATOM
      1 N1          0.6240    0.5930   -2.0860 n         1 AAG     -0.517900
      2 C1         -0.5140   -0.2040   -1.6750 c3        1 AAG     -0.047300
      3 C2         -1.0160    0.1340   -0.2660 c3        1 AAG     -0.068400
      4 C4         -0.1380   -0.4820    0.8010 c3        1 AAG     -0.098400
      5 C5         -0.5280    0.0460    2.1820 c3        1 AAG      0.184800
      6 N2          0.2590   -0.5630    3.2400 nh        1 AAG     -0.799200
      7 C6          0.1810   -0.0020    4.5520 c2        1 AAG      0.741100
      8 N3          1.1550   -0.5060    5.4940 nh        1 AAG     -0.933800
      9 N4         -0.7290    0.8950    4.8560 n2        1 AAG     -0.871100
     10 C3         -1.7230   -0.0410   -2.6750 c         1 AAG      0.911600
     11 O1         -2.6960   -0.8180   -2.4980 o         1 AAG     -0.829800
     12 O2         -1.6440    0.8350   -3.5810 o         1 AAG     -0.829800
     13 C8          1.9230    0.1710   -2.0050 c         1 AAG      0.639100
     14 C9          2.9590    0.9830   -2.7570 c3        1 AAG     -0.176100
     15 O4          2.2900   -0.8030   -1.3030 o         1 AAG     -0.667100
     16 HN1         0.3930    1.2730   -2.7850 hn        1 AAG      0.325500
     17 HC1        -0.2170   -1.2940   -1.6880 h1        1 AAG      0.058700
     18 HC21       -1.0740    1.2440   -0.1270 hc        1 AAG      0.052700
     19 HC22       -2.0600   -0.2740   -0.1820 hc        1 AAG      0.052700
     20 HC41       -0.2460   -1.5980    0.7690 hc        1 AAG      0.052200
     21 HC42        0.9390   -0.2510    0.5850 hc        1 AAG      0.052200
     22 HC51       -0.4240    1.1700    2.1800 h1        1 AAG      0.049200
     23 HC52       -1.6100   -0.1920    2.3860 h1        1 AAG      0.049200
     24 HN2         1.2040   -0.7320    2.9490 hn        1 AAG      0.393800
     25 HN31        0.7620   -0.6590    6.3990 hn        1 AAG      0.375800
     26 HN32        1.6540   -1.3120    5.1830 hn        1 AAG      0.375800
     27 HN4        -0.7660    1.1450    5.8200 hn        1 AAG      0.374400
     28 HC91        3.9710    0.5600   -2.5490 hc        1 AAG      0.050033
     29 HC92        2.7620    0.9350   -3.8550 hc        1 AAG      0.050033
     30 HC93        2.9360    2.0500   -2.4310 hc        1 AAG      0.050033
@<TRIPOS>BOND
     1    1    2 1   
     2    1   13 1   
     3    1   16 1   
     4    2    3 1   
     5    2   10 1   
     6    2   17 1   
     7    3    4 1   
     8    3   18 1   
     9    3   19 1   
    10    4    5 1   
    11    4   20 1   
    12    4   21 1   
    13    5    6 1   
    14    5   22 1   
    15    5   23 1   
    16    6    7 1   
    17    6   24 1   
    18    7    8 1   
    19    7    9 2   
    20    8   25 1   
    21    8   26 1   
    22    9   27 1   
    23   10   11 1   
    24   10   12 1   
    25   13   14 1   
    26   13   15 2   
    27   14   28 1   
    28   14   29 1   
    29   14   30 1   
@<TRIPOS>SUBSTRUCTURE
     1 AAG         1 TEMP              0 ****  ****    0 ROOT
