@<TRIPOS>MOLECULE
AAH
   39    39     1     0     0
SMALL
bcc


@<TRIPOS>ATOM
      1 C1          0.6340    6.3680   -0.3520 cc        1 AAH     -0.131600
      2 C2         -0.1430    5.5680   -1.1220 cd        1 AAH     -0.211500
      3 C3          0.2180    4.1980   -1.4270 cd        1 AAH     -0.014000
      4 C4          1.4930    3.7560   -0.8770 cd        1 AAH     -0.211500
      5 C5          2.2690    4.5530   -0.1060 cc        1 AAH     -0.131600
      6 C6          1.8750    5.8990    0.2070 cc        1 AAH     -0.124100
      7 N7          2.6820    6.7240    1.0150 no        1 AAH      0.230300
      8 O8          2.3560    7.8770    1.2750 o         1 AAH     -0.379000
      9 O9          3.7390    6.3110    1.4840 o         1 AAH     -0.379000
     10 C10        -0.5260    3.3170   -2.1550 c2        1 AAH     -0.086000
     11 N11        -1.7770    3.5650   -2.8020 nh        1 AAH     -0.557400
     12 C12        -2.1050    2.5550   -3.7960 c3        1 AAH     -0.077400
     13 P13        -1.7010    3.0000   -5.4110 p5        1 AAH      1.344600
     14 O14        -2.4710    4.1630   -5.9110 o         1 AAH     -0.878500
     15 O15        -1.6600    1.7270   -6.1820 o         1 AAH     -0.878500
     16 O16        -0.1490    3.5270   -5.3230 oh        1 AAH     -0.787400
     17 C17        -2.8450    3.7220   -1.7990 c3        1 AAH      0.167800
     18 C18        -4.1250    4.3890   -2.3020 c3        1 AAH     -0.081400
     19 C19        -5.1890    4.3600   -1.2190 c3        1 AAH     -0.065400
     20 C20        -6.4810    5.0000   -1.6710 c3        1 AAH     -0.178400
     21 C21        -7.6240    4.8330   -0.6630 c         1 AAH      0.903600
     22 O22        -7.8510    3.6960   -0.1510 o         1 AAH     -0.875800
     23 O23        -8.3440    5.8460   -0.4000 o         1 AAH     -0.875800
     24 H1          0.3350    7.4070   -0.1390 ha        1 AAH      0.107500
     25 H2         -1.0760    5.9530   -1.5610 ha        1 AAH      0.109500
     26 H4          1.8150    2.7330   -1.1180 ha        1 AAH      0.109500
     27 H5          3.2270    4.1880    0.2980 ha        1 AAH      0.107500
     28 H101       -0.0780    4.3800   -4.9130 ho        1 AAH      0.424000
     29 H102       -0.0890    2.3130   -2.3340 h4        1 AAH      0.095000
     30 H121       -1.6290    1.5610   -3.5690 h1        1 AAH      0.045200
     31 H122       -3.2120    2.3580   -3.7860 h1        1 AAH      0.045200
     32 H171       -3.1250    2.7190   -1.3590 h1        1 AAH      0.019700
     33 H172       -2.4360    4.3510   -0.9580 h1        1 AAH      0.019700
     34 H181       -3.9040    5.4470   -2.5950 hc        1 AAH      0.043700
     35 H182       -4.5120    3.8720   -3.2180 hc        1 AAH      0.043700
     36 H191       -5.4010    3.3000   -0.9160 hc        1 AAH      0.033200
     37 H192       -4.8100    4.8920   -0.3070 hc        1 AAH      0.033200
     38 H201       -6.3200    6.0920   -1.8610 hc        1 AAH      0.021200
     39 H202       -6.8120    4.5340   -2.6350 hc        1 AAH      0.021200
@<TRIPOS>BOND
     1    1    2 2   
     2    1    6 1   
     3    1   24 1   
     4    2    3 1   
     5    2   25 1   
     6    3    4 1   
     7    3   10 2   
     8    4    5 2   
     9    4   26 1   
    10    5    6 1   
    11    5   27 1   
    12    6    7 2   
    13    7    8 1   
    14    7    9 1   
    15   10   11 1   
    16   10   29 1   
    17   11   12 1   
    18   11   17 1   
    19   12   13 1   
    20   12   30 1   
    21   12   31 1   
    22   13   14 1   
    23   13   15 1   
    24   13   16 1   
    25   16   28 1   
    26   17   18 1   
    27   17   32 1   
    28   17   33 1   
    29   18   19 1   
    30   18   34 1   
    31   18   35 1   
    32   19   20 1   
    33   19   36 1   
    34   19   37 1   
    35   20   21 1   
    36   20   38 1   
    37   20   39 1   
    38   21   22 1   
    39   21   23 1   
@<TRIPOS>SUBSTRUCTURE
     1 AAH         1 TEMP              0 ****  ****    0 ROOT
