@<TRIPOS>MOLECULE
AAI
   44    46     1     0     0
SMALL
bcc


@<TRIPOS>ATOM
      1 C1         -0.1130   -0.0120    0.0870 cc        1 AAI      0.470800
      2 N2          1.3080   -0.1840    0.0630 na        1 AAI     -0.270300
      3 C3          1.7550   -0.0060    1.3560 ca        1 AAI      0.021800
      4 C4          0.5620    0.2780    2.1630 ca        1 AAI      0.060400
      5 N5         -0.5720    0.2620    1.3210 nd        1 AAI     -0.532100
      6 C6          3.0340   -0.0520    1.9480 ca        1 AAI     -0.239600
      7 C7          3.1050    0.1870    3.3390 ca        1 AAI     -0.067000
      8 C8          1.9740    0.4550    4.0930 ca        1 AAI     -0.154000
      9 C9          0.6890    0.5050    3.5250 ca        1 AAI      0.028000
     10 C10         4.1630   -0.3360    1.1020 c         1 AAI      0.582700
     11 N11         5.5350   -0.3800    1.7630 nz        1 AAI     -0.757400
     12 O12         4.2080   -0.5560   -0.1050 o         1 AAI     -0.468100
     13 C13        -0.9370   -0.1370   -1.1620 c3        1 AAI     -0.095000
     14 C14        -0.5270    0.9090   -2.1890 c3        1 AAI     -0.077900
     15 C15        -1.3470    0.7390   -3.4680 c3        1 AAI      0.165800
     16 N16        -1.2590   -0.6070   -4.0220 n3        1 AAI     -0.734600
     17 C17        -1.6210   -1.6290   -3.0510 c3        1 AAI      0.165800
     18 C18        -0.8160   -1.5340   -1.7540 c3        1 AAI     -0.077900
     19 C19        -2.0030   -0.7170   -5.2720 c3        1 AAI      0.167800
     20 C20        -1.7740   -2.0250   -6.0270 c3        1 AAI     -0.081400
     21 C21        -2.3690   -1.9340   -7.4090 c3        1 AAI     -0.096100
     22 H2          1.8570   -0.3910   -0.7350 hn        1 AAI      0.335700
     23 H7          4.0740    0.1660    3.8610 ha        1 AAI      0.119000
     24 H8          2.0780    0.6350    5.1760 ha        1 AAI      0.167000
     25 H9         -0.1950    0.7210    4.1490 ha        1 AAI      0.185000
     26 H111        6.2500   -0.5900    1.0560 hn        1 AAI      0.465800
     27 H112        5.7410    0.5250    2.1950 hn        1 AAI      0.465800
     28 H13        -2.0180    0.0410   -0.8820 hc        1 AAI      0.105700
     29 H141        0.5630    0.8160   -2.4290 hc        1 AAI      0.052950
     30 H142       -0.7070    1.9380   -1.7840 hc        1 AAI      0.052950
     31 H151       -2.4160    1.0320   -3.2480 h1        1 AAI      0.044950
     32 H152       -0.9480    1.4540   -4.2410 h1        1 AAI      0.044950
     33 H171       -2.7210   -1.5910   -2.7920 h1        1 AAI      0.044950
     34 H172       -1.4140   -2.6330   -3.5180 h1        1 AAI      0.044950
     35 H181       -1.2110   -2.2940   -1.0320 hc        1 AAI      0.052950
     36 H182        0.2570   -1.7780   -1.9640 hc        1 AAI      0.052950
     37 H191       -1.6660    0.1330   -5.9330 h1        1 AAI      0.038200
     38 H192       -3.1140   -0.5930   -5.1020 h1        1 AAI      0.038200
     39 H201       -0.6770   -2.2430   -6.1000 hc        1 AAI      0.046200
     40 H202       -2.2510   -2.8760   -5.4730 hc        1 AAI      0.046200
     41 H211       -3.4610   -1.7080   -7.3570 hc        1 AAI      0.039700
     42 H212       -2.2340   -2.9020   -7.9490 hc        1 AAI      0.039700
     43 H213       -1.8720   -1.1290   -8.0030 hc        1 AAI      0.039700
     44 H113        5.5490   -1.1050    2.4850 hn        1 AAI      0.465800
@<TRIPOS>BOND
     1    1    2 1   
     2    1    5 2   
     3    1   13 1   
     4    2    3 1   
     5    2   22 1   
     6    3    4 ar  
     7    3    6 ar  
     8    4    5 1   
     9    4    9 ar  
    10    6    7 ar  
    11    6   10 1   
    12    7    8 ar  
    13    7   23 1   
    14    8    9 ar  
    15    8   24 1   
    16    9   25 1   
    17   10   11 1   
    18   10   12 2   
    19   11   26 1   
    20   11   27 1   
    21   11   44 1   
    22   13   14 1   
    23   13   18 1   
    24   13   28 1   
    25   14   15 1   
    26   14   29 1   
    27   14   30 1   
    28   15   16 1   
    29   15   31 1   
    30   15   32 1   
    31   16   17 1   
    32   16   19 1   
    33   17   18 1   
    34   17   33 1   
    35   17   34 1   
    36   18   35 1   
    37   18   36 1   
    38   19   20 1   
    39   19   37 1   
    40   19   38 1   
    41   20   21 1   
    42   20   39 1   
    43   20   40 1   
    44   21   41 1   
    45   21   42 1   
    46   21   43 1   
@<TRIPOS>SUBSTRUCTURE
     1 AAI         1 TEMP              0 ****  ****    0 ROOT
