@<TRIPOS>MOLECULE
AAI
   44    46     1     0     0
SMALL
bcc


@<TRIPOS>ATOM
      1 C1         -0.1120    0.0030    0.0840 cc        1 AAI      0.470800
      2 N2          1.3080   -0.1770    0.0610 na        1 AAI     -0.270300
      3 C3          1.7560    0.0070    1.3530 ca        1 AAI      0.021800
      4 C4          0.5640    0.3040    2.1570 ca        1 AAI      0.060400
      5 N5         -0.5690    0.2880    1.3150 nd        1 AAI     -0.532100
      6 C6          3.0340   -0.0400    1.9470 ca        1 AAI     -0.239600
      7 C7          3.1050    0.2090    3.3370 ca        1 AAI     -0.067000
      8 C8          1.9750    0.4880    4.0870 ca        1 AAI     -0.154000
      9 C9          0.6910    0.5410    3.5180 ca        1 AAI      0.028000
     10 C10         4.1620   -0.3360    1.1040 c         1 AAI      0.582700
     11 N11         5.5330   -0.3830    1.7670 n4        1 AAI     -0.757400
     12 O12         4.2070   -0.5660   -0.1010 o         1 AAI     -0.468100
     13 C13        -0.9350   -0.1280   -1.1650 c3        1 AAI     -0.095000
     14 C14        -0.5180    0.9080   -2.2000 c3        1 AAI     -0.077900
     15 C15        -1.3380    0.7320   -3.4790 c3        1 AAI      0.165800
     16 N16        -1.2580   -0.6190   -4.0220 n3        1 AAI     -0.734600
     17 C17        -1.6260   -1.6310   -3.0430 c3        1 AAI      0.165800
     18 C18        -0.8220   -1.5300   -1.7460 c3        1 AAI     -0.077900
     19 C19        -2.0020   -0.7340   -5.2720 c3        1 AAI      0.167800
     20 C20        -1.7800   -2.0500   -6.0160 c3        1 AAI     -0.081400
     21 C21        -2.3730   -1.9660   -7.3990 c3        1 AAI     -0.096100
     22 H2          1.8570   -0.3930   -0.7350 hn        1 AAI      0.335700
     23 H7          4.0740    0.1860    3.8590 ha        1 AAI      0.119000
     24 H8          2.0790    0.6760    5.1690 ha        1 AAI      0.167000
     25 H9         -0.1920    0.7660    4.1400 ha        1 AAI      0.185000
     26 H111        5.5430   -1.1020    2.4940 hn        1 AAI      0.465800
     27 H112        5.7440    0.5240    2.1920 hn        1 AAI      0.465800
     28 H13        -2.0150    0.0580   -0.8880 hc        1 AAI      0.105700
     29 H141        0.5720    0.8060   -2.4390 hc        1 AAI      0.052950
     30 H142       -0.6930    1.9410   -1.8040 hc        1 AAI      0.052950
     31 H151       -0.9340    1.4390   -4.2570 h1        1 AAI      0.044950
     32 H152       -2.4060    1.0330   -3.2620 h1        1 AAI      0.044950
     33 H171       -2.7260   -1.5850   -2.7850 h1        1 AAI      0.044950
     34 H172       -1.4240   -2.6400   -3.5020 h1        1 AAI      0.044950
     35 H181       -1.2210   -2.2820   -1.0190 hc        1 AAI      0.052950
     36 H182        0.2510   -1.7820   -1.9540 hc        1 AAI      0.052950
     37 H191       -3.1120   -0.6030   -5.1030 h1        1 AAI      0.038200
     38 H192       -1.6590    0.1090   -5.9390 h1        1 AAI      0.038200
     39 H201       -2.2610   -2.8940   -5.4550 hc        1 AAI      0.046200
     40 H202       -0.6830   -2.2740   -6.0870 hc        1 AAI      0.046200
     41 H211       -3.4640   -1.7340   -7.3500 hc        1 AAI      0.039700
     42 H212       -2.2440   -2.9400   -7.9310 hc        1 AAI      0.039700
     43 H213       -1.8710   -1.1690   -7.9990 hc        1 AAI      0.039700
     44 H113        6.2470   -0.6020    1.0610 hn        1 AAI      0.465800
@<TRIPOS>BOND
     1    1    2 1   
     2    1    5 2   
     3    1   13 1   
     4    2    3 1   
     5    2   22 1   
     6    3    4 ar  
     7    3    6 ar  
     8    4    5 1   
     9    4    9 ar  
    10    6    7 ar  
    11    6   10 1   
    12    7    8 ar  
    13    7   23 1   
    14    8    9 ar  
    15    8   24 1   
    16    9   25 1   
    17   10   11 1   
    18   10   12 2   
    19   11   26 1   
    20   11   27 1   
    21   11   44 1   
    22   13   14 1   
    23   13   18 1   
    24   13   28 1   
    25   14   15 1   
    26   14   29 1   
    27   14   30 1   
    28   15   16 1   
    29   15   31 1   
    30   15   32 1   
    31   16   17 1   
    32   16   19 1   
    33   17   18 1   
    34   17   33 1   
    35   17   34 1   
    36   18   35 1   
    37   18   36 1   
    38   19   20 1   
    39   19   37 1   
    40   19   38 1   
    41   20   21 1   
    42   20   39 1   
    43   20   40 1   
    44   21   41 1   
    45   21   42 1   
    46   21   43 1   
@<TRIPOS>SUBSTRUCTURE
     1 AAI         1 TEMP              0 ****  ****    0 ROOT
