@<TRIPOS>MOLECULE
AAI
   44    46     1     0     0
SMALL
bcc


@<TRIPOS>ATOM
      1 C1         -0.1120   -0.0050    0.0860 cc        1 AAI      0.470800
      2 N2          1.3090   -0.1800    0.0620 na        1 AAI     -0.270300
      3 C3          1.7560    0.0000    1.3540 ca        1 AAI      0.021800
      4 C4          0.5630    0.2900    2.1600 ca        1 AAI      0.060400
      5 N5         -0.5700    0.2740    1.3180 nd        1 AAI     -0.532100
      6 C6          3.0350   -0.0460    1.9470 ca        1 AAI     -0.239600
      7 C7          3.1060    0.1980    3.3380 ca        1 AAI     -0.067000
      8 C8          1.9750    0.4700    4.0900 ca        1 AAI     -0.154000
      9 C9          0.6900    0.5220    3.5210 ca        1 AAI      0.028000
     10 C10         4.1630   -0.3350    1.1030 c         1 AAI      0.582700
     11 N11         5.5350   -0.3800    1.7650 n4        1 AAI     -0.757400
     12 O12         4.2080   -0.5600   -0.1030 o         1 AAI     -0.468100
     13 C13        -0.9350   -0.1320   -1.1630 c3        1 AAI     -0.095000
     14 C14        -0.5220    0.9090   -2.1950 c3        1 AAI     -0.077900
     15 C15        -1.3430    0.7350   -3.4730 c3        1 AAI      0.165800
     16 N16        -1.2590   -0.6130   -4.0220 n3        1 AAI     -0.734600
     17 C17        -1.6240   -1.6300   -3.0470 c3        1 AAI      0.165800
     18 C18        -0.8180   -1.5320   -1.7510 c3        1 AAI     -0.077900
     19 C19        -2.0040   -0.7260   -5.2720 c3        1 AAI      0.167800
     20 C20        -1.7770   -2.0370   -6.0220 c3        1 AAI     -0.081400
     21 C21        -2.3730   -1.9490   -7.4040 c3        1 AAI     -0.096100
     22 H2          1.8580   -0.3920   -0.7350 hn        1 AAI      0.335700
     23 H7          4.0750    0.1760    3.8600 ha        1 AAI      0.119000
     24 H8          2.0790    0.6550    5.1730 ha        1 AAI      0.167000
     25 H9         -0.1930    0.7420    4.1450 ha        1 AAI      0.185000
     26 H111        6.2490   -0.5940    1.0580 hn        1 AAI      0.465800
     27 H112        5.7430    0.5250    2.1930 hn        1 AAI      0.465800
     28 H13        -2.0160    0.0490   -0.8850 hc        1 AAI      0.105700
     29 H141        0.5680    0.8110   -2.4340 hc        1 AAI      0.052950
     30 H142       -0.7000    1.9400   -1.7940 hc        1 AAI      0.052950
     31 H151       -2.4110    1.0320   -3.2550 h1        1 AAI      0.044950
     32 H152       -0.9420    1.4470   -4.2490 h1        1 AAI      0.044950
     33 H171       -1.4180   -2.6370   -3.5100 h1        1 AAI      0.044950
     34 H172       -2.7230   -1.5880   -2.7880 h1        1 AAI      0.044950
     35 H181       -1.2150   -2.2880   -1.0260 hc        1 AAI      0.052950
     36 H182        0.2550   -1.7800   -1.9590 hc        1 AAI      0.052950
     37 H191       -3.1140   -0.5990   -5.1010 h1        1 AAI      0.038200
     38 H192       -1.6650    0.1220   -5.9350 h1        1 AAI      0.038200
     39 H201       -2.2550   -2.8850   -5.4640 hc        1 AAI      0.046200
     40 H202       -0.6800   -2.2560   -6.0950 hc        1 AAI      0.046200
     41 H211       -3.4650   -1.7220   -7.3520 hc        1 AAI      0.039700
     42 H212       -1.8750   -1.1470   -8.0010 hc        1 AAI      0.039700
     43 H213       -2.2400   -2.9200   -7.9400 hc        1 AAI      0.039700
     44 H113        5.5470   -1.1030    2.4890 hn        1 AAI      0.465800
@<TRIPOS>BOND
     1    1    2 1   
     2    1    5 2   
     3    1   13 1   
     4    2    3 1   
     5    2   22 1   
     6    3    4 ar  
     7    3    6 ar  
     8    4    5 1   
     9    4    9 ar  
    10    6    7 ar  
    11    6   10 1   
    12    7    8 ar  
    13    7   23 1   
    14    8    9 ar  
    15    8   24 1   
    16    9   25 1   
    17   10   11 1   
    18   10   12 2   
    19   11   26 1   
    20   11   27 1   
    21   11   44 1   
    22   13   14 1   
    23   13   18 1   
    24   13   28 1   
    25   14   15 1   
    26   14   29 1   
    27   14   30 1   
    28   15   16 1   
    29   15   31 1   
    30   15   32 1   
    31   16   17 1   
    32   16   19 1   
    33   17   18 1   
    34   17   33 1   
    35   17   34 1   
    36   18   35 1   
    37   18   36 1   
    38   19   20 1   
    39   19   37 1   
    40   19   38 1   
    41   20   21 1   
    42   20   39 1   
    43   20   40 1   
    44   21   41 1   
    45   21   42 1   
    46   21   43 1   
@<TRIPOS>SUBSTRUCTURE
     1 AAI         1 TEMP              0 ****  ****    0 ROOT
