@<TRIPOS>MOLECULE
AAI
   43    38     1     0     0
SMALL
bcc


@<TRIPOS>ATOM
      1 C1          0.5560    0.1820    1.2350 c1        1 AAI      0.026000
      2 N2          1.8540   -0.2300    1.3510 n2        1 AAI     -0.216000
      3 C3          2.3000    0.1250    2.5870 c1        1 AAI      0.018000
      4 C4          1.2770    0.7570    3.2390 c1        1 AAI     -0.084000
      5 N5          0.2010    0.7910    2.4010 n1        1 AAI     -0.143000
      6 C6          3.5470   -0.0510    3.2310 c1        1 AAI     -0.129000
      7 C7          3.7340    0.4190    4.5240 c2        1 AAI     -0.082000
      8 C8          2.6930    1.0630    5.1880 c1        1 AAI     -0.171000
      9 C9          1.4680    1.2360    4.5570 c1        1 AAI     -0.042000
     10 C10         4.7700   -0.7660    2.6480 c1        1 AAI      0.357000
     11 N11         5.9110   -0.0090    2.2350 n2        1 AAI     -0.427000
     12 O12         4.7530   -1.9730    2.4980 o         1 AAI     -0.407000
     13 C13        -0.7340    0.3150    0.3280 c2        1 AAI     -0.047000
     14 C14        -0.4010    1.1210   -0.8580 c3        1 AAI     -0.156500
     15 C15        -1.5300    1.1450   -1.8800 c3        1 AAI     -0.068500
     16 N16        -2.0010   -0.2040   -2.2310 n3        1 AAI     -0.257000
     17 C17        -2.3350   -1.0150   -1.0540 c3        1 AAI     -0.068500
     18 C18        -1.2100   -1.0470   -0.0330 c3        1 AAI     -0.156500
     19 C19        -3.1600   -0.1020   -3.0940 c3        1 AAI     -0.065000
     20 C20        -2.9620   -0.9980   -4.3240 c3        1 AAI     -0.161000
     21 C21        -4.0870   -0.7460   -5.3210 c3        1 AAI     -0.212000
     22 H2          2.3360   -0.6650    0.7140 DU        1 AAI      0.287000
     23 H7          4.5950    0.2980    4.9690 ha        1 AAI      0.128000
     24 H8          2.8250    1.3930    6.0980 ha        1 AAI      0.136000
     25 H9          0.7390    1.6870    5.0220 ha        1 AAI      0.151000
     26 H111        6.6810   -0.4410    1.9800 hn        1 AAI      0.227500
     27 H112        5.8650    0.9040    2.1970 hn        1 AAI      0.227500
     28 H13        -1.4330    0.7720    0.8350 ha        1 AAI      0.126000
     29 H141        0.4000    0.7490   -1.2790 hc        1 AAI      0.095250
     30 H142       -0.2120    2.0390   -0.5740 hc        1 AAI      0.095250
     31 H151       -1.2130    1.5910   -2.6920 h1        1 AAI      0.073750
     32 H152       -2.2810    1.6550   -1.5110 h1        1 AAI      0.073750
     33 H171       -2.5260   -1.9280   -1.3440 h1        1 AAI      0.073750
     34 H172       -3.1360   -0.6420   -0.6310 h1        1 AAI      0.073750
     35 H181       -0.4620   -1.5560   -0.4020 hc        1 AAI      0.095250
     36 H182       -1.5300   -1.4950    0.7760 hc        1 AAI      0.095250
     37 H191       -3.9580   -0.3920   -2.6040 h1        1 AAI      0.070000
     38 H192       -3.2720    0.8260   -3.3810 h1        1 AAI      0.070000
     39 H201       -2.1040   -0.7920   -4.7420 hc        1 AAI      0.087000
     40 H202       -2.9740   -1.9370   -4.0490 hc        1 AAI      0.087000
     41 H211       -4.9470   -0.7510   -4.8520 hc        1 AAI      0.073667
     42 H212       -3.9540    0.1250   -5.7510 hc        1 AAI      0.073667
     43 H213       -4.0830   -1.4530   -6.0050 hc        1 AAI      0.073667
@<TRIPOS>BOND
     1    1    2 1   
     2    1    5 1   
     3    2    3 1   
     4    3    6 1   
     5    4    9 1   
     6    6    7 1   
     7    7    8 1   
     8    7   23 1   
     9    8   24 1   
    10    9   25 1   
    11   10   12 1   
    12   11   26 1   
    13   11   27 1   
    14   13   14 1   
    15   13   18 1   
    16   13   28 1   
    17   14   15 1   
    18   14   29 1   
    19   14   30 1   
    20   15   16 1   
    21   15   31 1   
    22   15   32 1   
    23   16   17 1   
    24   16   19 1   
    25   17   18 1   
    26   17   33 1   
    27   17   34 1   
    28   18   35 1   
    29   18   36 1   
    30   19   20 1   
    31   19   37 1   
    32   19   38 1   
    33   20   21 1   
    34   20   39 1   
    35   20   40 1   
    36   21   41 1   
    37   21   42 1   
    38   21   43 1   
@<TRIPOS>SUBSTRUCTURE
     1 AAI         1 TEMP              0 ****  ****    0 ROOT
