@<TRIPOS>MOLECULE
AAI
   43    45     1     0     0
SMALL
bcc


@<TRIPOS>ATOM
      1 C1         -0.3810   -1.0410   -0.2410 cc        1 AAI      0.427800
      2 N2         -1.1200    0.1340    0.0310 na        1 AAI     -0.259300
      3 C3         -2.4610   -0.2330    0.0500 ca        1 AAI     -0.027200
      4 C4         -2.4910   -1.6610   -0.2360 ca        1 AAI      0.055400
      5 N5         -1.1730   -2.1230   -0.4130 nd        1 AAI     -0.570100
      6 C6         -3.6420    0.5000    0.2690 ca        1 AAI     -0.149600
      7 C7         -4.8400   -0.2110    0.2270 ca        1 AAI     -0.082000
      8 C8         -4.8740   -1.5870   -0.0440 ca        1 AAI     -0.171000
      9 C9         -3.7210   -2.3250   -0.2810 ca        1 AAI     -0.042000
     10 C10        -3.5400    1.9550    0.5420 c         1 AAI      0.683700
     11 N11        -4.6560    2.7450    0.4250 n         1 AAI     -0.667000
     12 O12        -2.4540    2.4900    0.8670 o         1 AAI     -0.646100
     13 C13         1.1160   -1.0370   -0.3290 c3        1 AAI     -0.083000
     14 C14         1.5970   -0.1250   -1.4490 c3        1 AAI     -0.077900
     15 C15         3.1230   -0.1250   -1.5090 c3        1 AAI      0.168300
     16 N16         3.7520    0.2220   -0.2400 n3        1 AAI     -0.731600
     17 C17         3.2650   -0.5830    0.8720 c3        1 AAI      0.168300
     18 C18         1.7420   -0.6010    0.9890 c3        1 AAI     -0.077900
     19 C19         5.2050    0.2140   -0.3520 c3        1 AAI      0.171800
     20 C20         5.9310    0.7940    0.8610 c3        1 AAI     -0.082400
     21 C21         7.3940    0.9810    0.5490 c3        1 AAI     -0.094100
     22 H2         -0.7710    1.0330    0.2580 hn        1 AAI      0.336700
     23 H7         -5.7970    0.2960    0.4200 ha        1 AAI      0.128000
     24 H8         -5.8510   -2.0950   -0.0660 ha        1 AAI      0.136000
     25 H9         -3.7670   -3.4020   -0.4950 ha        1 AAI      0.151000
     26 H111       -5.5180    2.3810    0.1150 hn        1 AAI      0.314000
     27 H112       -4.5780    3.7170    0.5950 hn        1 AAI      0.314000
     28 H13         1.4550   -2.0900   -0.5550 hc        1 AAI      0.086700
     29 H141        1.2000   -0.4830   -2.4330 hc        1 AAI      0.055950
     30 H142        1.2260    0.9200   -1.2850 hc        1 AAI      0.055950
     31 H151        3.4650   -1.1380   -1.8770 h1        1 AAI      0.034450
     32 H152        3.4480    0.6410   -2.2690 h1        1 AAI      0.034450
     33 H171        3.6310   -1.6500    0.8020 h1        1 AAI      0.034450
     34 H172        3.6840   -0.1390    1.8180 h1        1 AAI      0.034450
     35 H181        1.3750    0.4180    1.2740 hc        1 AAI      0.055950
     36 H182        1.4540   -1.3130    1.8040 hc        1 AAI      0.055950
     37 H191        5.6010   -0.8290   -0.5370 h1        1 AAI      0.030700
     38 H192        5.4720    0.8400   -1.2520 h1        1 AAI      0.030700
     39 H201        5.4750    1.7780    1.1490 hc        1 AAI      0.047700
     40 H202        5.8220    0.1030    1.7380 hc        1 AAI      0.047700
     41 H211        7.8630    0.0130    0.2510 hc        1 AAI      0.034367
     42 H212        7.5310    1.7100   -0.2860 hc        1 AAI      0.034367
     43 H213        7.9310    1.3710    1.4480 hc        1 AAI      0.034367
@<TRIPOS>BOND
     1    1    2 1   
     2    1    5 2   
     3    1   13 1   
     4    2    3 1   
     5    2   22 1   
     6    3    4 ar  
     7    3    6 ar  
     8    4    5 1   
     9    4    9 ar  
    10    6    7 ar  
    11    6   10 1   
    12    7    8 ar  
    13    7   23 1   
    14    8    9 ar  
    15    8   24 1   
    16    9   25 1   
    17   10   11 1   
    18   10   12 2   
    19   11   26 1   
    20   11   27 1   
    21   13   14 1   
    22   13   18 1   
    23   13   28 1   
    24   14   15 1   
    25   14   29 1   
    26   14   30 1   
    27   15   16 1   
    28   15   31 1   
    29   15   32 1   
    30   16   17 1   
    31   16   19 1   
    32   17   18 1   
    33   17   33 1   
    34   17   34 1   
    35   18   35 1   
    36   18   36 1   
    37   19   20 1   
    38   19   37 1   
    39   19   38 1   
    40   20   21 1   
    41   20   39 1   
    42   20   40 1   
    43   21   41 1   
    44   21   42 1   
    45   21   43 1   
@<TRIPOS>SUBSTRUCTURE
     1 AAI         1 TEMP              0 ****  ****    0 ROOT
