@<TRIPOS>MOLECULE
AAL
   21    22     1     0     0
SMALL
bcc


@<TRIPOS>ATOM
      1 C1          1.4510    0.6110   -0.1550 c3        1 AAL      0.303900
      2 C2          0.8920   -0.6950   -0.7830 c3        1 AAL      0.067100
      3 C3         -0.6470   -0.7500   -0.7470 c3        1 AAL      0.147100
      4 C4         -1.0520   -0.4410    0.7130 c3        1 AAL      0.080100
      5 C5         -0.7560    1.0840    0.6990 c3        1 AAL      0.086100
      6 C6         -1.2390    1.5080   -0.7010 c3        1 AAL      0.090400
      7 O1          2.6290    0.3360    0.5590 oh        1 AAL     -0.602800
      8 O2          1.3670   -1.8200   -0.0660 oh        1 AAL     -0.598800
      9 O3         -1.1440    0.3390   -1.5390 os        1 AAL     -0.408600
     10 O4         -2.4180   -0.7300    0.8920 oh        1 AAL     -0.571800
     11 O5          0.6490    1.2590    0.8320 os        1 AAL     -0.440600
     12 H1          1.7210    1.3580   -0.9520 h2        1 AAL      0.089700
     13 H2          1.2390   -0.7430   -1.8530 h1        1 AAL      0.067700
     14 H3         -1.0690   -1.6890   -1.1700 h1        1 AAL      0.117700
     15 H4         -0.4100   -0.9910    1.4480 h1        1 AAL      0.081700
     16 H5         -1.2100    1.6660    1.5340 h1        1 AAL      0.101700
     17 H61        -2.3130    1.8160   -0.6880 h1        1 AAL      0.067700
     18 H62        -0.5950    2.3010   -1.1530 h1        1 AAL      0.067700
     19 HO1         2.3760   -0.0210    1.4230 ho        1 AAL      0.426000
     20 HO2         2.3320   -1.8130   -0.1480 ho        1 AAL      0.421000
     21 HO4        -2.5980   -0.6360    1.8360 ho        1 AAL      0.406000
@<TRIPOS>BOND
     1    1    2 1   
     2    1    7 1   
     3    1   11 1   
     4    1   12 1   
     5    2    3 1   
     6    2    8 1   
     7    2   13 1   
     8    3    4 1   
     9    3    9 1   
    10    3   14 1   
    11    4    5 1   
    12    4   10 1   
    13    4   15 1   
    14    5    6 1   
    15    5   11 1   
    16    5   16 1   
    17    6    9 1   
    18    6   17 1   
    19    6   18 1   
    20    7   19 1   
    21    8   20 1   
    22   10   21 1   
@<TRIPOS>SUBSTRUCTURE
     1 AAL         1 TEMP              0 ****  ****    0 ROOT
