@<TRIPOS>MOLECULE
AAL
   21    22     1     0     0
SMALL
bcc


@<TRIPOS>ATOM
      1 C1         -1.0540   -0.0270   -1.3210 c3        1 AAL      0.304900
      2 C2          0.5230   -0.0270   -1.3210 c3        1 AAL      0.071100
      3 C3          1.1370   -0.0270    0.0100 c3        1 AAL      0.105100
      4 C4          0.4070    0.5740    1.0030 c3        1 AAL      0.081100
      5 C5         -0.8150   -0.0330    1.2220 c3        1 AAL      0.127100
      6 C6         -0.3580   -1.4690    1.3880 c3        1 AAL      0.087400
      7 O1         -1.4690    1.0370   -1.9720 oh        1 AAL     -0.604800
      8 O2          0.9750    1.1390   -2.0260 oh        1 AAL     -0.601800
      9 O3          1.1010   -1.4740    0.4940 os        1 AAL     -0.410600
     10 O4          1.2390    0.5170    2.3370 oh        1 AAL     -0.580800
     11 O5         -1.7250   -0.0280    0.1130 os        1 AAL     -0.439600
     12 H1         -1.3590   -0.8190   -1.8020 h2        1 AAL      0.089700
     13 H2          0.8310   -0.8180   -1.8020 h1        1 AAL      0.066700
     14 H3          2.0520    0.3130   -0.0170 h1        1 AAL      0.102700
     15 H4          0.2570    1.5080    0.7640 h1        1 AAL      0.081700
     16 H5         -1.2380    0.2990    2.0370 h1        1 AAL      0.116700
     17 H61        -0.1920   -1.6760    2.3280 h1        1 AAL      0.069200
     18 H62        -1.0060   -2.0880    1.0020 h1        1 AAL      0.069200
     19 HO1        -2.2470    0.8610   -2.3620 ho        1 AAL      0.428000
     20 HO2         1.5200    0.8940   -2.6830 ho        1 AAL      0.423000
     21 HO4         1.4200    1.3430    2.6080 ho        1 AAL      0.413000
@<TRIPOS>BOND
     1    1    2 1   
     2    1    7 1   
     3    1   11 1   
     4    1   12 1   
     5    2    3 1   
     6    2    8 1   
     7    2   13 1   
     8    3    4 1   
     9    3    9 1   
    10    3   14 1   
    11    4    5 1   
    12    4   10 1   
    13    4   15 1   
    14    5    6 1   
    15    5   11 1   
    16    5   16 1   
    17    6    9 1   
    18    6   17 1   
    19    6   18 1   
    20    7   19 1   
    21    8   20 1   
    22   10   21 1   
@<TRIPOS>SUBSTRUCTURE
     1 AAL         1 TEMP              0 ****  ****    0 ROOT
