@<TRIPOS>MOLECULE
AAM
   35    37     1     0     0
SMALL
bcc


@<TRIPOS>ATOM
      1 C8A        -1.4150    0.9970    1.6720 cc        1 AAM      0.465700
      2 N9A        -1.8690    1.6130    2.7870 nd        1 AAM     -0.678700
      3 C4A        -1.1650    1.0060    3.8480 ca        1 AAM      0.554300
      4 C5A        -0.2560   -0.0090    3.2920 ca        1 AAM     -0.344800
      5 N7A        -0.4430    0.0170    1.9090 na        1 AAM     -0.128300
      6 N3A        -1.2320    1.2410    5.1960 nb        1 AAM     -0.687000
      7 C2A        -0.3940    0.4800    5.9230 ca        1 AAM      0.622900
      8 N1A         0.5130   -0.4600    5.5250 nb        1 AAM     -0.792000
      9 C6A         0.5980   -0.7260    4.1870 ca        1 AAM      0.682200
     10 N6A         1.4510   -1.7260    3.7070 nh        1 AAM     -0.921500
     11 P           0.9770    0.3380   -4.6140 p5        1 AAM      1.335900
     12 O1P         1.1450   -1.0810   -5.0720 o         1 AAM     -0.929167
     13 O2P         0.6220    1.3820   -5.6240 o         1 AAM     -0.929167
     14 O3P         1.9420    0.7440   -3.5150 o         1 AAM     -0.929167
     15 O6'        -0.4590    0.2170   -3.6250 os        1 AAM     -0.555200
     16 C5'        -0.3830   -0.7430   -2.6560 c3        1 AAM      0.241400
     17 C4'        -0.0790   -0.0940   -1.2810 c3        1 AAM      0.055100
     18 O5'        -0.7250   -0.8840   -0.2460 os        1 AAM     -0.425600
     19 C3'         1.4220   -0.0360   -0.9430 c3        1 AAM      0.131100
     20 O3'         1.8680    1.2970   -0.8640 oh        1 AAM     -0.687800
     21 C2'         1.5530   -0.6870    0.4530 c3        1 AAM      0.097100
     22 O2'         2.3390    0.0170    1.3800 oh        1 AAM     -0.630800
     23 C1'         0.0760   -0.9270    0.9210 c3        1 AAM      0.208800
     24 H8A        -1.7480    1.2200    0.6440 h5        1 AAM      0.101800
     25 H2A        -0.4260    0.6450    7.0190 h5        1 AAM      0.026100
     26 HN61        2.1550   -2.0190    4.3500 hn        1 AAM      0.409300
     27 HN62        1.8120   -1.5320    2.7940 hn        1 AAM      0.409300
     28 H5'1        0.4090   -1.5070   -2.8960 h1        1 AAM      0.005200
     29 H5'2       -1.3800   -1.2650   -2.5540 h1        1 AAM      0.005200
     30 H4'        -0.5250    0.9360   -1.2450 h1        1 AAM      0.061700
     31 H3'         2.0320   -0.5950   -1.7080 h1        1 AAM      0.131700
     32 HO3'        2.0500    1.5630   -1.8000 ho        1 AAM      0.517000
     33 H2'         2.0350   -1.7010    0.3650 h1        1 AAM      0.061700
     34 HO2'        2.3320    0.9540    1.1300 ho        1 AAM      0.446000
     35 H1'        -0.0560   -1.9610    1.3570 h2        1 AAM      0.070700
@<TRIPOS>BOND
     1    1    2 2   
     2    1    5 1   
     3    1   24 1   
     4    2    3 1   
     5    3    4 ar  
     6    3    6 ar  
     7    4    5 1   
     8    4    9 ar  
     9    5   23 1   
    10    6    7 ar  
    11    7    8 ar  
    12    7   25 1   
    13    8    9 ar  
    14    9   10 1   
    15   10   26 1   
    16   10   27 1   
    17   11   12 1   
    18   11   13 1   
    19   11   14 1   
    20   11   15 1   
    21   15   16 1   
    22   16   17 1   
    23   16   28 1   
    24   16   29 1   
    25   17   18 1   
    26   17   19 1   
    27   17   30 1   
    28   18   23 1   
    29   19   20 1   
    30   19   21 1   
    31   19   31 1   
    32   20   32 1   
    33   21   22 1   
    34   21   23 1   
    35   21   33 1   
    36   22   34 1   
    37   23   35 1   
@<TRIPOS>SUBSTRUCTURE
     1 AAM         1 TEMP              0 ****  ****    0 ROOT
