@<TRIPOS>MOLECULE
AAM
   35    37     1     0     0
SMALL
bcc


@<TRIPOS>ATOM
      1 C8A        -0.0150    0.4550    0.1250 cc        1 AAM      0.465700
      2 N9A         1.3160    0.2750   -0.0330 nd        1 AAM     -0.678700
      3 C4A         1.7760   -0.1610    1.2270 ca        1 AAM      0.554300
      4 C5A         0.6290   -0.2370    2.1460 ca        1 AAM     -0.344800
      5 N7A        -0.4880    0.1610    1.4100 na        1 AAM     -0.128300
      6 N3A         3.0410   -0.4890    1.6360 nb        1 AAM     -0.687000
      7 C2A         3.1110   -0.8880    2.9190 ca        1 AAM      0.622900
      8 N1A         2.1250   -1.0320    3.8530 nb        1 AAM     -0.792000
      9 C6A         0.8520   -0.7040    3.4790 ca        1 AAM      0.682200
     10 N6A        -0.2020   -0.7560    4.4000 nv        1 AAM     -0.921500
     11 P          -6.6200    0.0520   -1.2480 p5        1 AAM      1.335900
     12 O1P        -7.5030    0.7830   -0.2810 o         1 AAM     -0.928833
     13 O2P        -7.0450   -0.0460   -2.6780 o         1 AAM     -0.928833
     14 O3P        -5.9330   -1.1630   -0.6490 o         1 AAM     -0.928833
     15 O6'        -5.2220    1.1010   -1.3040 os        1 AAM     -0.555200
     16 C5'        -4.6970    1.3870   -0.0760 c3        1 AAM      0.241400
     17 C4'        -3.4340    0.5230    0.1800 c3        1 AAM      0.055100
     18 O5'        -2.5100    1.2900    1.0000 os        1 AAM     -0.425600
     19 C3'        -3.7240   -0.7920    0.9250 c3        1 AAM      0.131100
     20 O3'        -3.4400   -1.9040    0.1100 oh        1 AAM     -0.687800
     21 C2'        -2.7580   -0.8010    2.1320 c3        1 AAM      0.097100
     22 O2'        -2.0610   -2.0020    2.3420 oh        1 AAM     -0.630800
     23 C1'        -1.8320    0.4440    1.9100 c3        1 AAM      0.208800
     24 H8A        -0.7070    0.7960   -0.6640 h5        1 AAM      0.101800
     25 H2A         4.1240   -1.1580    3.2820 h5        1 AAM      0.026100
     26 HN61       -0.0130   -1.2870    5.2220 hn        1 AAM      0.409300
     27 HN62       -1.0810   -0.9850    3.9800 hn        1 AAM      0.409300
     28 H5'1       -4.3620    2.4660   -0.0440 h1        1 AAM      0.005200
     29 H5'2       -5.4470    1.2080    0.7440 h1        1 AAM      0.005200
     30 H4'        -2.9190    0.3120   -0.7950 h1        1 AAM      0.061700
     31 H3'        -4.7970   -0.8360    1.2670 h1        1 AAM      0.131700
     32 HO3'       -4.2460   -2.0230   -0.4520 ho        1 AAM      0.517000
     33 H2'        -3.3270   -0.6180    3.0860 h1        1 AAM      0.061700
     34 HO2'       -1.9980   -2.4660    1.4930 ho        1 AAM      0.446000
     35 H1'        -1.7060    1.0400    2.8620 h2        1 AAM      0.070700
@<TRIPOS>BOND
     1    1    2 2   
     2    1    5 1   
     3    1   24 1   
     4    2    3 1   
     5    3    4 ar  
     6    3    6 ar  
     7    4    5 1   
     8    4    9 ar  
     9    5   23 1   
    10    6    7 ar  
    11    7    8 ar  
    12    7   25 1   
    13    8    9 ar  
    14    9   10 1   
    15   10   26 1   
    16   10   27 1   
    17   11   12 1   
    18   11   13 1   
    19   11   14 1   
    20   11   15 1   
    21   15   16 1   
    22   16   17 1   
    23   16   28 1   
    24   16   29 1   
    25   17   18 1   
    26   17   19 1   
    27   17   30 1   
    28   18   23 1   
    29   19   20 1   
    30   19   21 1   
    31   19   31 1   
    32   20   32 1   
    33   21   22 1   
    34   21   23 1   
    35   21   33 1   
    36   22   34 1   
    37   23   35 1   
@<TRIPOS>SUBSTRUCTURE
     1 AAM         1 TEMP              0 ****  ****    0 ROOT
