@<TRIPOS>MOLECULE
AAM
   35    37     1     0     0
SMALL
bcc


@<TRIPOS>ATOM
      1 C8A        -0.0210    0.4890    0.1330 cc        1 AAM      0.465700
      2 N9A         1.3150    0.3390   -0.0140 nd        1 AAM     -0.678700
      3 C4A         1.7750   -0.0720    1.2550 ca        1 AAM      0.554300
      4 C5A         0.6230   -0.1630    2.1670 ca        1 AAM     -0.344800
      5 N7A        -0.4970    0.1990    1.4180 na        1 AAM     -0.128300
      6 N3A         3.0450   -0.3650    1.6780 nb        1 AAM     -0.687000
      7 C2A         3.1130   -0.7470    2.9660 ca        1 AAM      0.622900
      8 N1A         2.1240   -0.9030    3.8940 nb        1 AAM     -0.792000
      9 C6A         0.8470   -0.6090    3.5070 ca        1 AAM      0.682200
     10 N6A        -0.2130   -0.6750    4.4200 nh        1 AAM     -0.921500
     11 P          -6.6030   -0.0830   -1.2850 p5        1 AAM      1.335900
     12 O1P        -7.5120    0.6380   -0.3340 o         1 AAM     -0.929167
     13 O2P        -7.0140   -0.2080   -2.7170 o         1 AAM     -0.929167
     14 O3P        -5.8930   -1.2740   -0.6660 o         1 AAM     -0.929167
     15 O6'        -5.2300    0.9970   -1.3430 os        1 AAM     -0.555200
     16 C5'        -4.7210    1.3100   -0.1150 c3        1 AAM      0.241400
     17 C4'        -3.4410    0.4790    0.1610 c3        1 AAM      0.055100
     18 O5'        -2.5420    1.2770    0.9790 os        1 AAM     -0.425600
     19 C3'        -3.7060   -0.8340    0.9200 c3        1 AAM      0.131100
     20 O3'        -3.3900   -1.9490    0.1200 oh        1 AAM     -0.687800
     21 C2'        -2.7500   -0.8060    2.1340 c3        1 AAM      0.097100
     22 O2'        -2.0260   -1.9880    2.3640 oh        1 AAM     -0.630800
     23 C1'        -1.8510    0.4570    1.9040 c3        1 AAM      0.208800
     24 H8A        -0.7150    0.8050   -0.6650 h5        1 AAM      0.101800
     25 H2A         4.1290   -0.9900    3.3400 h5        1 AAM      0.026100
     26 HN61       -1.0830   -0.9290    3.9970 hn        1 AAM      0.409300
     27 HN62       -0.0180   -1.1920    5.2500 hn        1 AAM      0.409300
     28 H5'1       -4.4120    2.3960   -0.0930 h1        1 AAM      0.005200
     29 H5'2       -5.4740    1.1230    0.7020 h1        1 AAM      0.005200
     30 H4'        -2.9140    0.2680   -0.8070 h1        1 AAM      0.061700
     31 H3'        -4.7810   -0.8990    1.2540 h1        1 AAM      0.131700
     32 HO3'       -4.1890   -2.0930   -0.4460 ho        1 AAM      0.517000
     33 H2'        -3.3300   -0.6250    3.0820 h1        1 AAM      0.061700
     34 HO2'       -1.9460   -2.4600    1.5210 ho        1 AAM      0.446000
     35 H1'        -1.7460    1.0670    2.8500 h2        1 AAM      0.070700
@<TRIPOS>BOND
     1    1    2 2   
     2    1    5 1   
     3    1   24 1   
     4    2    3 1   
     5    3    4 ar  
     6    3    6 ar  
     7    4    5 1   
     8    4    9 ar  
     9    5   23 1   
    10    6    7 ar  
    11    7    8 ar  
    12    7   25 1   
    13    8    9 ar  
    14    9   10 1   
    15   10   26 1   
    16   10   27 1   
    17   11   12 1   
    18   11   13 1   
    19   11   14 1   
    20   11   15 1   
    21   15   16 1   
    22   16   17 1   
    23   16   28 1   
    24   16   29 1   
    25   17   18 1   
    26   17   19 1   
    27   17   30 1   
    28   18   23 1   
    29   19   20 1   
    30   19   21 1   
    31   19   31 1   
    32   20   32 1   
    33   21   22 1   
    34   21   23 1   
    35   21   33 1   
    36   22   34 1   
    37   23   35 1   
@<TRIPOS>SUBSTRUCTURE
     1 AAM         1 TEMP              0 ****  ****    0 ROOT
