@<TRIPOS>MOLECULE
AAM
   35    30     1     0     0
SMALL
bcc


@<TRIPOS>ATOM
      1 C8A         1.6140   -0.5200   -1.5400 c1        1 AAM      0.015500
      2 N9A         2.9120   -0.9360   -1.5290 n2        1 AAM     -0.201000
      3 C4A         3.0670   -1.8180   -0.4970 c1        1 AAM      0.015500
      4 C5A         1.8820   -1.9460    0.1200 c1        1 AAM     -0.179000
      5 N7A         0.9730   -1.1350   -0.5320 n1        1 AAM     -0.160000
      6 N3A         4.1540   -2.5420   -0.0580 n1        1 AAM     -0.160000
      7 C2A         4.0280   -3.3870    1.0000 c1        1 AAM     -0.046000
      8 N1A         2.8130   -3.5200    1.6340 n1        1 AAM     -0.273000
      9 C6A         1.7530   -2.8160    1.2100 c1        1 AAM      0.155000
     10 N6A         0.8570   -3.6210    2.0360 n3        1 AAM     -0.325000
     11 P          -1.5870    4.4490    1.7820 p3        1 AAM      2.527000
     12 O1P        -1.7650    5.4130    0.6420 o         1 AAM     -0.988000
     13 O2P        -0.6330    5.0440    2.8060 os        1 AAM     -1.175000
     14 O3P        -2.9400    4.1830    2.4370 o         1 AAM     -0.988000
     15 O6'        -0.9900    3.0880    1.2370 os        1 AAM     -0.737000
     16 C5'        -1.8290    2.2430    0.4710 c3        1 AAM      0.022000
     17 C4'        -1.0930    1.8040   -0.7890 c3        1 AAM     -0.046000
     18 O5'         0.2660    1.0230   -0.3930 os        1 AAM     -0.292000
     19 C3'        -1.8050    0.9770   -1.4430 c3        1 AAM      0.146000
     20 O3'        -1.5370    1.1050   -2.9130 oh        1 AAM     -0.724000
     21 C2'        -1.3650   -0.4260   -0.9310 c3        1 AAM     -0.080000
     22 O2'        -1.1080   -1.2510   -1.9740 oh        1 AAM     -0.361000
     23 C1'        -0.0840   -0.1850   -0.1180 c2        1 AAM      0.129000
     24 H8A         1.2100    0.0180   -2.2070 DU        1 AAM      0.276000
     25 H2A         4.8210   -3.8250    1.3700 ha        1 AAM      0.154000
     26 HN61       -0.0390   -3.4070    2.0880 hn        1 AAM      0.208500
     27 HN62        1.1660   -4.3400    2.4560 hn        1 AAM      0.208500
     28 H5'1       -2.0680    1.4570    0.9990 h1        1 AAM      0.071000
     29 H5'2       -2.6440    2.7290    0.2220 h1        1 AAM      0.071000
     30 H4'        -0.8790    2.5930   -1.3560 h1        1 AAM      0.106000
     31 H3'        -2.7890    1.1300   -1.2470 h1        1 AAM      0.000000
     32 HO3'       -2.2610    1.3270   -3.3190 ho        1 AAM      0.215000
     33 H2'        -2.0270   -0.7890   -0.3870 h1        1 AAM      0.083000
     34 HO2'       -1.8120   -1.8450   -2.0790 ho        1 AAM      0.229000
     35 H1'        -0.2610   -0.2740    0.8040 h4        1 AAM      0.104000
@<TRIPOS>BOND
     1    1    2 1   
     2    1    5 1   
     3    2    3 1   
     4    3    6 1   
     5    4    9 1   
     6    7    8 1   
     7    7   25 1   
     8    9   10 1   
     9   10   26 1   
    10   10   27 1   
    11   11   12 1   
    12   11   14 1   
    13   11   15 1   
    14   15   16 1   
    15   16   17 1   
    16   16   28 1   
    17   16   29 1   
    18   17   18 1   
    19   17   19 1   
    20   17   30 1   
    21   18   23 1   
    22   19   20 1   
    23   19   21 1   
    24   19   31 1   
    25   20   32 1   
    26   21   22 1   
    27   21   23 1   
    28   21   33 1   
    29   22   34 1   
    30   23   35 1   
@<TRIPOS>SUBSTRUCTURE
     1 AAM         1 TEMP              0 ****  ****    0 ROOT
