@<TRIPOS>MOLECULE
AAN
   19    16     1     0     0
SMALL
bcc


@<TRIPOS>ATOM
      1 C1         -2.0480    0.0800   -2.3510 c1        1 AAN      0.343000
      2 C2         -0.5370    0.0180   -2.3020 c2        1 AAN     -0.236000
      3 C1'        -0.0800    0.0040   -0.8600 c2        1 AAN      0.052000
      4 C2'        -0.0750   -1.1840   -0.1460 c2        1 AAN     -0.174000
      5 C3'         0.3890   -1.2060    1.1600 c1        1 AAN     -0.073000
      6 C4'         0.8480   -0.0400    1.7520 c1        1 AAN     -0.175000
      7 N4'         1.3630   -0.0720    3.0730 no        1 AAN      0.572000
      8 O3'         2.2930   -0.8160    3.3490 o         1 AAN     -0.395000
      9 O4'         0.8350    0.7450    4.0320 o         1 AAN     -0.395000
     10 C5'         0.8430    1.1480    1.0390 c1        1 AAN     -0.072000
     11 C6'         0.3790    1.1700   -0.2670 c1        1 AAN     -0.143000
     12 O1         -2.6960   -0.8330   -2.9270 o         1 AAN     -0.560500
     13 O2         -2.6560    1.0530   -1.8330 o         1 AAN     -0.560500
     14 H21        -0.2290   -0.7950   -2.7500 ha        1 AAN      0.089000
     15 H22        -0.1640    0.8010   -2.7550 ha        1 AAN      0.089000
     16 H2'        -0.3980   -2.0050   -0.5630 ha        1 AAN      0.137000
     17 H3'         0.3920   -2.0430    1.6620 ha        1 AAN      0.147000
     18 H5'         1.1660    1.9690    1.4560 ha        1 AAN      0.152000
     19 H6'         0.3750    2.0070   -0.7690 ha        1 AAN      0.202000
@<TRIPOS>BOND
     1    1   12 1   
     2    1   13 1   
     3    2    3 1   
     4    2   14 1   
     5    2   15 1   
     6    3    4 1   
     7    3   11 1   
     8    4    5 1   
     9    4   16 1   
    10    5   17 1   
    11    6    7 1   
    12    6   10 1   
    13    7    8 1   
    14    7    9 1   
    15   10   18 1   
    16   11   19 1   
@<TRIPOS>SUBSTRUCTURE
     1 AAN         1 TEMP              0 ****  ****    0 ROOT
