@<TRIPOS>MOLECULE
AAN
   19    19     1     0     0
SMALL
bcc


@<TRIPOS>ATOM
      1 C1          0.0160    0.6020   -0.0880 c         1 AAN      0.923600
      2 C2          1.4400   -0.0150    0.0180 c3        1 AAN     -0.200100
      3 C1'         1.9390   -0.0780    1.4060 ca        1 AAN      0.044700
      4 C2'         2.4650   -1.2690    1.9310 ca        1 AAN     -0.158500
      5 C3'         2.9700   -1.3210    3.2240 ca        1 AAN     -0.072500
      6 C4'         2.9490   -0.1610    4.0180 ca        1 AAN     -0.220200
      7 N4'         3.5020   -0.2010    5.3850 no        1 AAN      0.317200
      8 O3'         3.4960    0.7970    6.0620 o         1 AAN     -0.245000
      9 O4'         3.9610   -1.2320    5.8120 o         1 AAN     -0.245000
     10 C5'         2.4000    1.0360    3.5170 ca        1 AAN     -0.072500
     11 C6'         1.9030    1.0670    2.2230 ca        1 AAN     -0.158500
     12 O1         -0.1240    1.8120    0.2450 o         1 AAN     -0.825800
     13 O2         -0.8960   -0.1410   -0.5350 o         1 AAN     -0.825800
     14 H21         1.4260   -1.0320   -0.4480 hc        1 AAN      0.049700
     15 H22         2.1190    0.6450   -0.5830 hc        1 AAN      0.049700
     16 H2'         2.4710   -2.1780    1.3110 ha        1 AAN      0.169500
     17 H3'         3.3830   -2.2600    3.6260 ha        1 AAN      0.149500
     18 H5'         2.3640    1.9360    4.1520 ha        1 AAN      0.149500
     19 H6'         1.4240    1.9800    1.8120 ha        1 AAN      0.169500
@<TRIPOS>BOND
     1    1    2 1   
     2    1   12 1   
     3    1   13 1   
     4    2    3 1   
     5    2   14 1   
     6    2   15 1   
     7    3    4 ar  
     8    3   11 ar  
     9    4    5 ar  
    10    4   16 1   
    11    5    6 ar  
    12    5   17 1   
    13    6    7 1   
    14    6   10 ar  
    15    7    8 1   
    16    7    9 1   
    17   10   11 ar  
    18   10   18 1   
    19   11   19 1   
@<TRIPOS>SUBSTRUCTURE
     1 AAN         1 TEMP              0 ****  ****    0 ROOT
