@<TRIPOS>MOLECULE
AAN
   19    19     1     0     0
SMALL
bcc


@<TRIPOS>ATOM
      1 C1          0.0140   -0.4480   -0.1200 c         1 AAN      0.923600
      2 C2          1.4460    0.1440    0.0210 c3        1 AAN     -0.200100
      3 C1'         1.9420    0.1250    1.4110 ca        1 AAN      0.044700
      4 C2'         1.8880   -1.0620    2.1650 ca        1 AAN     -0.158500
      5 C3'         2.3820   -1.1080    3.4600 ca        1 AAN     -0.072500
      6 C4'         2.9470    0.0530    4.0250 ca        1 AAN     -0.220200
      7 N4'         3.4970    0.0110    5.3930 no        1 AAN      0.317200
      8 O3'         3.9700    1.0110    5.8760 o         1 AAN     -0.245000
      9 O4'         3.4750   -1.0220    6.0160 o         1 AAN     -0.245000
     10 C5'         2.9850    1.2540    3.2960 ca        1 AAN     -0.072500
     11 C6'         2.4830    1.2790    2.0010 ca        1 AAN     -0.158500
     12 O1         -0.1430   -1.6720    0.1450 o         1 AAN     -0.825800
     13 O2         -0.8870    0.3310   -0.5270 o         1 AAN     -0.825800
     14 H21         1.4460    1.1850   -0.3890 hc        1 AAN      0.049700
     15 H22         2.1180   -0.4920   -0.6140 hc        1 AAN      0.049700
     16 H2'         1.3980   -1.9440    1.7050 ha        1 AAN      0.169500
     17 H3'         2.3330   -2.0400    4.0450 ha        1 AAN      0.149500
     18 H5'         3.4110    2.1630    3.7490 ha        1 AAN      0.149500
     19 H6'         2.5030    2.2200    1.4310 ha        1 AAN      0.169500
@<TRIPOS>BOND
     1    1    2 1   
     2    1   12 1   
     3    1   13 1   
     4    2    3 1   
     5    2   14 1   
     6    2   15 1   
     7    3    4 ar  
     8    3   11 ar  
     9    4    5 ar  
    10    4   16 1   
    11    5    6 ar  
    12    5   17 1   
    13    6    7 1   
    14    6   10 ar  
    15    7    8 1   
    16    7    9 1   
    17   10   11 ar  
    18   10   18 1   
    19   11   19 1   
@<TRIPOS>SUBSTRUCTURE
     1 AAN         1 TEMP              0 ****  ****    0 ROOT
