@<TRIPOS>MOLECULE
AAN
   19    19     1     0     0
SMALL
bcc


@<TRIPOS>ATOM
      1 C1          0.4390    0.2160    3.3230 c         1 AAN      0.923600
      2 C2         -0.1380   -0.9330    2.4460 c3        1 AAN     -0.200100
      3 C1'        -0.1170   -0.6220    1.0040 ca        1 AAN      0.044700
      4 C2'         1.0670   -0.1680    0.3950 ca        1 AAN     -0.158500
      5 C3'         1.1150    0.0930   -0.9660 ca        1 AAN     -0.072500
      6 C4'        -0.0410   -0.1000   -1.7480 ca        1 AAN     -0.220200
      7 N4'         0.0030    0.1530   -3.2000 no        1 AAN      0.317200
      8 O3'        -0.9930   -0.0050   -3.8630 o         1 AAN     -0.245000
      9 O4'         1.0340    0.5090   -3.7140 o         1 AAN     -0.245000
     10 C5'        -1.2400   -0.5290   -1.1520 ca        1 AAN     -0.072500
     11 C6'        -1.2670   -0.7840    0.2130 ca        1 AAN     -0.158500
     12 O1          1.6610    0.5010    3.1840 o         1 AAN     -0.825800
     13 O2         -0.3480    0.7600    4.1410 o         1 AAN     -0.825800
     14 H21         0.5050   -1.8320    2.6350 hc        1 AAN      0.049700
     15 H22        -1.1780   -1.1590    2.7920 hc        1 AAN      0.049700
     16 H2'         1.9450    0.0150    1.0470 ha        1 AAN      0.169500
     17 H3'         2.0450    0.4530   -1.4340 ha        1 AAN      0.149500
     18 H5'        -2.1460   -0.6610   -1.7640 ha        1 AAN      0.149500
     19 H6'        -2.2070   -1.1090    0.6840 ha        1 AAN      0.169500
@<TRIPOS>BOND
     1    1    2 1   
     2    1   12 1   
     3    1   13 1   
     4    2    3 1   
     5    2   14 1   
     6    2   15 1   
     7    3    4 ar  
     8    3   11 ar  
     9    4    5 ar  
    10    4   16 1   
    11    5    6 ar  
    12    5   17 1   
    13    6    7 1   
    14    6   10 ar  
    15    7    8 1   
    16    7    9 1   
    17   10   11 ar  
    18   10   18 1   
    19   11   19 1   
@<TRIPOS>SUBSTRUCTURE
     1 AAN         1 TEMP              0 ****  ****    0 ROOT
