@<TRIPOS>MOLECULE
AAN
   19    19     1     0     0
SMALL
bcc


@<TRIPOS>ATOM
      1 C1          0.0630   -0.5980   -0.1290 c         1 AAN      0.923600
      2 C2          1.5010   -0.0190    0.0030 c3        1 AAN     -0.200100
      3 C1'         1.9640    0.0610    1.4020 ca        1 AAN      0.044700
      4 C2'         1.8730   -1.0640    2.2420 ca        1 AAN     -0.158500
      5 C3'         2.3360   -1.0180    3.5480 ca        1 AAN     -0.072500
      6 C4'         2.9070    0.1740    4.0370 ca        1 AAN     -0.220200
      7 N4'         3.4240    0.2290    5.4180 no        1 AAN      0.317200
      8 O3'         3.9020    1.2550    5.8340 o         1 AAN     -0.245000
      9 O4'         3.3710   -0.7530    6.1160 o         1 AAN     -0.245000
     10 C5'         2.9820    1.3150    3.2200 ca        1 AAN     -0.072500
     11 C6'         2.5100    1.2480    1.9150 ca        1 AAN     -0.158500
     12 O1         -0.1210   -1.7960    0.2250 o         1 AAN     -0.825800
     13 O2         -0.8160    0.1600   -0.6160 o         1 AAN     -0.825800
     14 H21         1.5280    0.9870   -0.4860 hc        1 AAN      0.049700
     15 H22         2.1760   -0.7110   -0.5660 hc        1 AAN      0.049700
     16 H2'         1.3790   -1.9710    1.8380 ha        1 AAN      0.169500
     17 H3'         2.2570   -1.9020    4.2010 ha        1 AAN      0.149500
     18 H5'         3.4120    2.2500    3.6120 ha        1 AAN      0.149500
     19 H6'         2.5590    2.1430    1.2760 ha        1 AAN      0.169500
@<TRIPOS>BOND
     1    1    2 1   
     2    1   12 1   
     3    1   13 1   
     4    2    3 1   
     5    2   14 1   
     6    2   15 1   
     7    3    4 ar  
     8    3   11 ar  
     9    4    5 ar  
    10    4   16 1   
    11    5    6 ar  
    12    5   17 1   
    13    6    7 1   
    14    6   10 ar  
    15    7    8 1   
    16    7    9 1   
    17   10   11 ar  
    18   10   18 1   
    19   11   19 1   
@<TRIPOS>SUBSTRUCTURE
     1 AAN         1 TEMP              0 ****  ****    0 ROOT
