@<TRIPOS>MOLECULE
AAP
   41    42     1     0     0
SMALL
bcc


@<TRIPOS>ATOM
      1 C           0.3050    1.5370   -0.1210 c         1 AAP      0.543100
      2 CA          1.4630    0.5350   -0.0120 c3        1 AAP      0.134800
      3 O          -0.5230    1.5280   -1.0160 o         1 AAP     -0.350100
      4 N           0.1070    2.5370    0.9720 n4        1 AAP     -0.738400
      5 C1          1.7860    0.1680    1.4050 ca        1 AAP     -0.245300
      6 C2          2.5520    0.9840    2.2650 ca        1 AAP      0.017400
      7 C3          2.8790    0.5710    3.5550 ca        1 AAP     -0.090500
      8 C4          2.4360   -0.6730    4.0200 ca        1 AAP     -0.040000
      9 C5          1.6680   -1.4900    3.1990 ca        1 AAP     -0.090500
     10 C6          1.3450   -1.0780    1.8970 ca        1 AAP      0.017400
     11 CL2         3.1190    2.5130    1.7590 cl        1 AAP     -0.040900
     12 CL6         0.4070   -2.1170    0.9450 cl        1 AAP     -0.040900
     13 N'          2.6840    0.9670   -0.7830 n4        1 AAP     -0.633400
     14 C1'         2.5170    0.9130   -2.2420 ca        1 AAP     -0.018400
     15 C2'         2.2490    2.0880   -2.9890 ca        1 AAP     -0.179600
     16 C3'         2.1740    1.9720   -4.3820 ca        1 AAP     -0.045000
     17 C4'         2.3440    0.7430   -5.0190 ca        1 AAP     -0.082000
     18 C5'         2.6060   -0.4150   -4.2770 ca        1 AAP      0.014700
     19 C6'         2.6950   -0.3240   -2.8790 ca        1 AAP     -0.123000
     20 C'          2.0240    3.4110   -2.3590 c         1 AAP      0.647700
     21 O'          1.6640    3.4690   -1.1610 o         1 AAP     -0.693100
     22 CM'         2.2260    4.6350   -3.1730 c3        1 AAP     -0.209100
     23 CM5         2.7980   -1.7140   -4.9570 c3        1 AAP     -0.090800
     24 HA          1.0680   -0.3980   -0.5560 hx        1 AAP      0.178700
     25 HN1        -0.8590    2.8980    0.9430 hn        1 AAP      0.492133
     26 HN2         0.2910    2.1190    1.8920 hn        1 AAP      0.492133
     27 H3          3.4930    1.2170    4.2110 ha        1 AAP      0.201500
     28 H4          2.7030   -1.0030    5.0420 ha        1 AAP      0.200000
     29 H5          1.3140   -2.4730    3.5670 ha        1 AAP      0.201500
     30 HN'         2.9510    1.9300   -0.4980 hn        1 AAP      0.482300
     31 H3'         1.9700    2.8690   -4.9950 ha        1 AAP      0.182000
     32 H4'         2.2750    0.6820   -6.1210 ha        1 AAP      0.193000
     33 H6'         2.9170   -1.2400   -2.3040 ha        1 AAP      0.166000
     34 HM'1        1.3490    4.7800   -3.8590 hc        1 AAP      0.106033
     35 HM'2        3.1540    4.5560   -3.7930 hc        1 AAP      0.106033
     36 HM'3        2.3030    5.5380   -2.5140 hc        1 AAP      0.106033
     37 HM51        1.9740   -1.8950   -5.6950 hc        1 AAP      0.085367
     38 HM52        2.8200   -2.5650   -4.2340 hc        1 AAP      0.085367
     39 HM53        3.7680   -1.7070   -5.5220 hc        1 AAP      0.085367
     40 HN3         0.7540    3.3320    0.8200 hn        1 AAP      0.492133
     41 H'2         3.4500    0.3260   -0.5160 hn        1 AAP      0.482300
@<TRIPOS>BOND
     1    1    2 1   
     2    1    3 2   
     3    1    4 1   
     4    2    5 1   
     5    2   13 1   
     6    2   24 1   
     7    4   25 1   
     8    4   26 1   
     9    4   40 1   
    10    5    6 ar  
    11    5   10 ar  
    12    6    7 ar  
    13    6   11 1   
    14    7    8 ar  
    15    7   27 1   
    16    8    9 ar  
    17    8   28 1   
    18    9   10 ar  
    19    9   29 1   
    20   10   12 1   
    21   13   14 1   
    22   13   30 1   
    23   13   41 1   
    24   14   15 ar  
    25   14   19 ar  
    26   15   16 ar  
    27   15   20 1   
    28   16   17 ar  
    29   16   31 1   
    30   17   18 ar  
    31   17   32 1   
    32   18   19 ar  
    33   18   23 1   
    34   19   33 1   
    35   20   21 2   
    36   20   22 1   
    37   22   34 1   
    38   22   35 1   
    39   22   36 1   
    40   23   37 1   
    41   23   38 1   
    42   23   39 1   
@<TRIPOS>SUBSTRUCTURE
     1 AAP         1 TEMP              0 ****  ****    0 ROOT
