@<TRIPOS>MOLECULE
AAP
   40    41     1     0     0
SMALL
bcc


@<TRIPOS>ATOM
      1 C          -0.1210   -0.2610    0.0670 c         1 AAP      0.524100
      2 CA          1.3640    0.1690   -0.0460 c3        1 AAP      0.211800
      3 O          -0.5510   -1.3970    0.1670 o         1 AAP     -0.407100
      4 N          -1.1510    0.8370    0.0580 n4        1 AAP     -0.765400
      5 C1          1.9200    0.1980    1.3580 ca        1 AAP     -0.149300
      6 C2          1.6250    1.2120    2.2850 ca        1 AAP      0.035400
      7 C3          2.1860    1.2150    3.5650 ca        1 AAP     -0.104500
      8 C4          3.0550    0.1920    3.9420 ca        1 AAP     -0.074000
      9 C5          3.3610   -0.8270    3.0460 ca        1 AAP     -0.104500
     10 C6          2.7990   -0.8260    1.7630 ca        1 AAP      0.035400
     11 CL2         0.5790    2.5160    1.9130 cl        1 AAP     -0.058400
     12 CL6         3.2190   -2.0990    0.7230 cl        1 AAP     -0.058400
     13 N'          1.5000    1.3880   -0.7960 nh        1 AAP     -0.769600
     14 C1'         1.9040    1.3090   -2.1500 ca        1 AAP      0.158600
     15 C2'         2.6830    2.3360   -2.7440 ca        1 AAP     -0.207600
     16 C3'         2.9590    2.2620   -4.1170 ca        1 AAP     -0.054000
     17 C4'         2.5080    1.2070   -4.8970 ca        1 AAP     -0.150000
     18 C5'         1.7600    0.1760   -4.3140 ca        1 AAP     -0.002300
     19 C6'         1.4620    0.2330   -2.9530 ca        1 AAP     -0.208000
     20 C'          3.2140    3.4920   -1.9840 c         1 AAP      0.587700
     21 O'          2.6470    3.9410   -0.9760 o         1 AAP     -0.560100
     22 CM'         4.4790    4.1080   -2.4900 c3        1 AAP     -0.200100
     23 CM5         1.2980   -0.9610   -5.1420 c3        1 AAP     -0.071800
     24 HA          1.8410   -0.7070   -0.6080 h1        1 AAP      0.141700
     25 HN1        -1.1800    1.2670   -0.8720 hn        1 AAP      0.470800
     26 HN2        -0.8580    1.5620    0.7480 hn        1 AAP      0.470800
     27 H3          1.9490    2.0270    4.2740 ha        1 AAP      0.177500
     28 H4          3.5010    0.1940    4.9510 ha        1 AAP      0.173000
     29 H5          4.0490   -1.6370    3.3430 ha        1 AAP      0.177500
     30 HN'         1.9260    2.1410   -0.2820 hn        1 AAP      0.459800
     31 H3'         3.5490    3.0650   -4.5940 ha        1 AAP      0.153000
     32 H4'         2.7390    1.1740   -5.9730 ha        1 AAP      0.158000
     33 H6'         0.8670   -0.5850   -2.5160 ha        1 AAP      0.122000
     34 HM'1        4.9690    4.6990   -1.6770 hc        1 AAP      0.077367
     35 HM'2        5.1870    3.3250   -2.8530 hc        1 AAP      0.077367
     36 HM'3        4.2430    4.8050   -3.3330 hc        1 AAP      0.077367
     37 HM51        0.7900   -0.5880   -6.0670 hc        1 AAP      0.061700
     38 HM52        0.5840   -1.6150   -4.5850 hc        1 AAP      0.061700
     39 HM53        2.1750   -1.5840   -5.4550 hc        1 AAP      0.061700
     40 HN3        -2.0800    0.4760    0.2940 hn        1 AAP      0.470800
@<TRIPOS>BOND
     1    1    2 1   
     2    1    3 2   
     3    1    4 1   
     4    2    5 1   
     5    2   13 1   
     6    2   24 1   
     7    4   25 1   
     8    4   26 1   
     9    4   40 1   
    10    5    6 ar  
    11    5   10 ar  
    12    6    7 ar  
    13    6   11 1   
    14    7    8 ar  
    15    7   27 1   
    16    8    9 ar  
    17    8   28 1   
    18    9   10 ar  
    19    9   29 1   
    20   10   12 1   
    21   13   14 1   
    22   13   30 1   
    23   14   15 ar  
    24   14   19 ar  
    25   15   16 ar  
    26   15   20 1   
    27   16   17 ar  
    28   16   31 1   
    29   17   18 ar  
    30   17   32 1   
    31   18   19 ar  
    32   18   23 1   
    33   19   33 1   
    34   20   21 2   
    35   20   22 1   
    36   22   34 1   
    37   22   35 1   
    38   22   36 1   
    39   23   37 1   
    40   23   38 1   
    41   23   39 1   
@<TRIPOS>SUBSTRUCTURE
     1 AAP         1 TEMP              0 ****  ****    0 ROOT
