@<TRIPOS>MOLECULE
AAP
   39    35     1     0     0
SMALL
bcc


@<TRIPOS>ATOM
      1 C          -2.2710   -0.4340    1.0900 c1        1 AAP      0.264000
      2 CA         -0.8230   -0.6550    0.9390 c2        1 AAP      0.039000
      3 O          -2.7300    0.6720    0.9460 o         1 AAP     -0.354000
      4 N          -3.0920   -1.4820    1.3270 n3        1 AAP     -0.426000
      5 C1         -0.1810   -0.8340    2.3360 c2        1 AAP     -0.081000
      6 C2          0.6740   -1.8740    2.5660 c1        1 AAP     -0.043000
      7 C3          1.3090   -2.0050    3.8330 c1        1 AAP     -0.117000
      8 C4          1.0590   -1.0700    4.8400 c1        1 AAP     -0.117000
      9 C5          0.1810   -0.0030    4.6030 c1        1 AAP     -0.125000
     10 C6         -0.4370    0.1250    3.3710 c2        1 AAP     -0.049000
     11 CL2         1.0420   -2.9930    1.2860 cl        1 AAP      0.001000
     12 CL6        -1.5600    1.4270    3.0960 cl        1 AAP      0.024000
     13 N'         -0.2400    0.4660    0.2920 n3        1 AAP     -0.287000
     14 C1'         0.0150    0.4300   -1.1570 c2        1 AAP      0.152000
     15 C2'         0.9670    1.2820   -1.7170 c2        1 AAP     -0.212000
     16 C3'         1.1510    1.3120   -3.1010 c1        1 AAP     -0.060000
     17 C4'         0.3800    0.4860   -3.9270 c1        1 AAP     -0.185000
     18 C5'        -0.5740   -0.3680   -3.3660 c1        1 AAP     -0.006000
     19 C6'        -0.7560   -0.3950   -1.9810 c1        1 AAP     -0.200000
     20 C'          1.7840    2.1790   -0.8290 c2        1 AAP      0.284000
     21 O'          1.6180    2.1610    0.3420 o         1 AAP     -0.317000
     22 CM'         2.8290    3.0830   -1.4290 c3        1 AAP     -0.266000
     23 CM5        -1.4560   -1.2700   -4.2870 c3        1 AAP     -0.186000
     24 HA         -0.6700   -1.4600    0.4030 h4        1 AAP      0.141000
     25 HN1        -3.9650   -1.3500    1.4140 hn        1 AAP      0.224500
     26 HN2        -2.7450   -2.3190    1.4270 hn        1 AAP      0.224500
     27 H3          1.9040   -2.7270    3.9930 ha        1 AAP      0.151000
     28 H4          1.5020   -1.1620    5.7260 ha        1 AAP      0.151000
     29 H5          0.0070    0.6490    5.3030 ha        1 AAP      0.157000
     30 HN'        -0.1000    1.2240    0.7520 hn        1 AAP      0.246000
     31 H3'         1.8310    1.9210   -3.5010 ha        1 AAP      0.130000
     32 H4'         0.5090    0.5070   -4.8980 ha        1 AAP      0.135000
     33 H6'        -1.4240   -0.9900   -1.5860 ha        1 AAP      0.137000
     34 HM'1        3.3560    3.5220   -0.6950 hc        1 AAP      0.102333
     35 HM'2        2.3910    3.7710   -1.9720 hc        1 AAP      0.102333
     36 HM'3        3.4420    2.5450   -2.0050 hc        1 AAP      0.102333
     37 HM51       -2.4050   -1.0110   -4.1920 hc        1 AAP      0.087333
     38 HM52       -1.1780   -1.1560   -5.2160 hc        1 AAP      0.087333
     39 HM53       -1.3460   -2.2050   -4.0270 hc        1 AAP      0.087333
@<TRIPOS>BOND
     1    1    3 1   
     2    1    4 1   
     3    2    5 1   
     4    2   13 1   
     5    2   24 1   
     6    4   25 1   
     7    4   26 1   
     8    5    6 1   
     9    5   10 1   
    10    6   11 1   
    11    7    8 1   
    12    7   27 1   
    13    8   28 1   
    14    9   10 1   
    15    9   29 1   
    16   10   12 1   
    17   13   14 1   
    18   13   30 1   
    19   14   15 1   
    20   14   19 1   
    21   15   16 1   
    22   15   20 1   
    23   16   31 1   
    24   17   18 1   
    25   17   32 1   
    26   18   23 1   
    27   19   33 1   
    28   20   21 1   
    29   20   22 1   
    30   22   34 1   
    31   22   35 1   
    32   22   36 1   
    33   23   37 1   
    34   23   38 1   
    35   23   39 1   
@<TRIPOS>SUBSTRUCTURE
     1 AAP         1 TEMP              0 ****  ****    0 ROOT
