@<TRIPOS>MOLECULE
AAP
   40    41     1     0     0
SMALL
bcc


@<TRIPOS>ATOM
      1 C          -0.1080   -0.2390    0.1130 c         1 AAP      0.524100
      2 CA          1.3780    0.1810   -0.0280 c3        1 AAP      0.211800
      3 O          -0.5430   -1.3710    0.2310 o         1 AAP     -0.407100
      4 N          -1.1310    0.8640    0.1100 nz        1 AAP     -0.765400
      5 C1          1.9560    0.2210    1.3670 ca        1 AAP     -0.149300
      6 C2          1.6820    1.2460    2.2880 ca        1 AAP      0.035400
      7 C3          2.2630    1.2590    3.5580 ca        1 AAP     -0.104500
      8 C4          3.1320    0.2350    3.9320 ca        1 AAP     -0.074000
      9 C5          3.4180   -0.7950    3.0420 ca        1 AAP     -0.104500
     10 C6          2.8360   -0.8030    1.7680 ca        1 AAP      0.035400
     11 Cl2         0.6370    2.5520    1.9190 cl        1 AAP     -0.058400
     12 Cl6         3.2320   -2.0900    0.7340 cl        1 AAP     -0.058400
     13 N'          1.5080    1.3910   -0.7930 nu        1 AAP     -0.769600
     14 C1'         1.8900    1.2960   -2.1510 ca        1 AAP      0.158600
     15 C2'         2.6660    2.3120   -2.7690 ca        1 AAP     -0.207600
     16 C3'         2.9190    2.2230   -4.1460 ca        1 AAP     -0.054000
     17 C4'         2.4480    1.1630   -4.9070 ca        1 AAP     -0.150000
     18 C5'         1.7030    0.1420   -4.3010 ca        1 AAP     -0.002300
     19 C6'         1.4280    0.2150   -2.9360 ca        1 AAP     -0.208000
     20 C'          3.2160    3.4720   -2.0300 c         1 AAP      0.587700
     21 O'          2.6690    3.9340   -1.0170 o         1 AAP     -0.560100
     22 CM'         4.4770    4.0740   -2.5620 c3        1 AAP     -0.200100
     23 CM5         1.2190   -1.0000   -5.1110 c3        1 AAP     -0.071800
     24 HA          1.8400   -0.7030   -0.5880 h1        1 AAP      0.141700
     25 HN1        -1.1730    1.2860   -0.8250 hn        1 AAP      0.470800
     26 HN2        -2.0580    0.5120    0.3640 hn        1 AAP      0.470800
     27 H3          2.0420    2.0790    4.2630 ha        1 AAP      0.177500
     28 H4          3.5950    0.2440    4.9340 ha        1 AAP      0.173000
     29 H5          4.1070   -1.6060    3.3360 ha        1 AAP      0.177500
     30 HN'         1.9470    2.1470   -0.2930 hn        1 AAP      0.459800
     31 H3'         3.5060    3.0160   -4.6400 ha        1 AAP      0.153000
     32 H4'         2.6610    1.1170   -5.9870 ha        1 AAP      0.158000
     33 H6'         0.8350   -0.5940   -2.4810 ha        1 AAP      0.122000
     34 HM'1        4.9850    4.6700   -1.7630 hc        1 AAP      0.077367
     35 HM'2        4.2320    4.7640   -3.4090 hc        1 AAP      0.077367
     36 HM'3        5.1740    3.2830   -2.9290 hc        1 AAP      0.077367
     37 HM51        0.6940   -0.6320   -6.0270 hc        1 AAP      0.061700
     38 HM52        0.5150   -1.6470   -4.5340 hc        1 AAP      0.061700
     39 HM53        2.0870   -1.6280   -5.4370 hc        1 AAP      0.061700
     40 HN3        -0.8240    1.5950    0.7870 hn        1 AAP      0.470800
@<TRIPOS>BOND
     1    1    2 1   
     2    1    3 2   
     3    1    4 1   
     4    2    5 1   
     5    2   13 1   
     6    2   24 1   
     7    4   25 1   
     8    4   26 1   
     9    4   40 1   
    10    5    6 ar  
    11    5   10 ar  
    12    6    7 ar  
    13    6   11 1   
    14    7    8 ar  
    15    7   27 1   
    16    8    9 ar  
    17    8   28 1   
    18    9   10 ar  
    19    9   29 1   
    20   10   12 1   
    21   13   14 1   
    22   13   30 1   
    23   14   15 ar  
    24   14   19 ar  
    25   15   16 ar  
    26   15   20 1   
    27   16   17 ar  
    28   16   31 1   
    29   17   18 ar  
    30   17   32 1   
    31   18   19 ar  
    32   18   23 1   
    33   19   33 1   
    34   20   21 2   
    35   20   22 1   
    36   22   34 1   
    37   22   35 1   
    38   22   36 1   
    39   23   37 1   
    40   23   38 1   
    41   23   39 1   
@<TRIPOS>SUBSTRUCTURE
     1 AAP         1 TEMP              0 ****  ****    0 ROOT
