@<TRIPOS>MOLECULE
AAP
   39    40     1     0     0
SMALL
bcc


@<TRIPOS>ATOM
      1 C          -0.9880   -1.6980   -0.6420 c         1 AAP      0.630100
      2 CA         -0.5270   -0.2150   -0.5860 c3        1 AAP      0.199800
      3 O          -2.1320   -1.9600   -1.0670 o         1 AAP     -0.612100
      4 N          -0.1610   -2.6930   -0.2080 n         1 AAP     -0.659000
      5 C1          0.0320    0.1640   -1.9400 ca        1 AAP     -0.073300
      6 C2          1.2870   -0.2620   -2.4060 ca        1 AAP      0.039900
      7 C3          1.7490    0.0900   -3.6790 ca        1 AAP     -0.125500
      8 C4          0.9640    0.8820   -4.5100 ca        1 AAP     -0.104000
      9 C5         -0.2790    1.3280   -4.0700 ca        1 AAP     -0.125500
     10 C6         -0.7370    0.9770   -2.7960 ca        1 AAP      0.039900
     11 CL2         2.3280   -1.2240   -1.4610 cl        1 AAP     -0.072400
     12 CL6        -2.2620    1.5780   -2.3360 cl        1 AAP     -0.072400
     13 N'          0.3390    0.1400    0.5050 nh        1 AAP     -0.768600
     14 C1'        -0.1000    0.1220    1.8230 ca        1 AAP      0.239600
     15 C2'         0.8060    0.4030    2.8870 ca        1 AAP     -0.255600
     16 C3'         0.3160    0.4860    4.1980 ca        1 AAP     -0.053000
     17 C4'        -1.0210    0.2800    4.4910 ca        1 AAP     -0.193000
     18 C5'        -1.9200   -0.0230    3.4570 ca        1 AAP     -0.003300
     19 C6'        -1.4640   -0.1040    2.1460 ca        1 AAP     -0.218000
     20 C'          2.2520    0.5910    2.6670 c         1 AAP      0.595700
     21 O'          2.8900   -0.0280    1.8010 o         1 AAP     -0.570100
     22 CM'         2.9440    1.5700    3.5670 c3        1 AAP     -0.197100
     23 CM5        -3.3520   -0.2480    3.7640 c3        1 AAP     -0.063800
     24 HA         -1.4980    0.3640   -0.4360 h1        1 AAP      0.112700
     25 HN1        -0.4730   -3.6320   -0.2440 hn        1 AAP      0.317500
     26 HN2         0.7450   -2.5090    0.1400 hn        1 AAP      0.317500
     27 H3          2.7360   -0.2600   -4.0220 ha        1 AAP      0.155000
     28 H4          1.3250    1.1570   -5.5130 ha        1 AAP      0.147000
     29 H5         -0.9020    1.9580   -4.7250 ha        1 AAP      0.155000
     30 HN'         1.3220    0.0460    0.3520 hn        1 AAP      0.454800
     31 H3'         1.0180    0.7110    5.0180 ha        1 AAP      0.131000
     32 H4'        -1.3800    0.3450    5.5270 ha        1 AAP      0.136000
     33 H6'        -2.1860   -0.3680    1.3560 ha        1 AAP      0.149000
     34 HM'1        3.8900    1.9260    3.0920 hc        1 AAP      0.065033
     35 HM'2        2.2850    2.4460    3.7750 hc        1 AAP      0.065033
     36 HM'3        3.2000    1.0700    4.5330 hc        1 AAP      0.065033
     37 HM51       -3.8830    0.7350    3.8260 hc        1 AAP      0.051033
     38 HM52       -3.8450   -0.8640    2.9730 hc        1 AAP      0.051033
     39 HM53       -3.4690   -0.7710    4.7450 hc        1 AAP      0.051033
@<TRIPOS>BOND
     1    1    2 1   
     2    1    3 2   
     3    1    4 1   
     4    2    5 1   
     5    2   13 1   
     6    2   24 1   
     7    4   25 1   
     8    4   26 1   
     9    5    6 ar  
    10    5   10 ar  
    11    6    7 ar  
    12    6   11 1   
    13    7    8 ar  
    14    7   27 1   
    15    8    9 ar  
    16    8   28 1   
    17    9   10 ar  
    18    9   29 1   
    19   10   12 1   
    20   13   14 1   
    21   13   30 1   
    22   14   15 ar  
    23   14   19 ar  
    24   15   16 ar  
    25   15   20 1   
    26   16   17 ar  
    27   16   31 1   
    28   17   18 ar  
    29   17   32 1   
    30   18   19 ar  
    31   18   23 1   
    32   19   33 1   
    33   20   21 2   
    34   20   22 1   
    35   22   34 1   
    36   22   35 1   
    37   22   36 1   
    38   23   37 1   
    39   23   38 1   
    40   23   39 1   
@<TRIPOS>SUBSTRUCTURE
     1 AAP         1 TEMP              0 ****  ****    0 ROOT
