@<TRIPOS>MOLECULE
AAQ
   51    54     1     0     0
SMALL
bcc


@<TRIPOS>ATOM
      1 N1          0.0490   -0.5020    0.0830 na        1 AAQ     -0.226300
      2 C3          1.4400   -0.3900    0.1150 ca        1 AAQ     -0.038200
      3 C2          2.3380   -0.2990    1.1860 ca        1 AAQ     -0.012000
      4 C4          3.6790   -0.1540    0.8650 ca        1 AAQ     -0.132600
      5 C5          4.1640   -0.1010   -0.4880 ca        1 AAQ      0.172400
      6 C6          3.2680   -0.2100   -1.5730 ca        1 AAQ      0.011700
      7 C7          3.6870   -0.1090   -3.0010 c3        1 AAQ     -0.057100
      8 C8          3.7560   -1.4930   -3.6510 c3        1 AAQ      0.104800
      9 N2          4.0820   -1.4370   -5.1020 n4        1 AAQ     -0.774000
     10 C9          4.1260   -2.8130   -5.7330 c3        1 AAQ      0.190100
     11 C10         4.4730   -2.7090   -7.1720 ca        1 AAQ     -0.218300
     12 C11         5.8000   -2.8810   -7.5880 ca        1 AAQ     -0.097000
     13 C12         6.1120   -2.8470   -8.9460 ca        1 AAQ     -0.112000
     14 C13         5.1040   -2.6400   -9.8920 ca        1 AAQ     -0.054000
     15 C14         3.7800   -2.4680   -9.4780 ca        1 AAQ     -0.112000
     16 C15         3.4620   -2.5020   -8.1220 ca        1 AAQ     -0.097000
     17 C16         1.8960   -0.3550   -1.2640 ca        1 AAQ      0.089400
     18 N3          0.7850   -0.4510   -2.1200 nc        1 AAQ     -0.519100
     19 C17        -0.2950   -0.5310   -1.2880 cd        1 AAQ      0.462700
     20 N4         -1.6860   -0.6250   -1.7550 n4        1 AAQ     -0.686000
     21 C1         -2.4850    0.5840   -1.4050 c3        1 AAQ      0.078100
     22 N5          5.5390    0.0860   -0.7320 nc        1 AAQ     -0.606100
     23 C18         6.3470    0.2340    0.3050 cd        1 AAQ      0.587800
     24 N6          7.7990    0.4830   -0.0030 n4        1 AAQ     -0.808600
     25 N7          5.9980    0.1830    1.6510 n         1 AAQ     -0.497400
     26 C19         4.6330   -0.0310    1.9940 c         1 AAQ      0.715100
     27 O1          4.3410   -0.0940    3.1870 o         1 AAQ     -0.477500
     28 HN1        -0.5570   -0.5460    0.8700 hn        1 AAQ      0.357700
     29 H2          2.0080   -0.3310    2.2430 ha        1 AAQ      0.215000
     30 H7          4.6810    0.4060   -3.0910 hc        1 AAQ      0.092700
     31 H7A         2.9400    0.5360   -3.5470 hc        1 AAQ      0.092700
     32 H8          2.7640   -2.0190   -3.5420 hx        1 AAQ      0.107700
     33 H8A         4.5460   -2.1180   -3.1430 hx        1 AAQ      0.107700
     34 HN2         4.9930   -0.9840   -5.2420 hn        1 AAQ      0.451800
     35 H9          3.1090   -3.2780   -5.5910 hx        1 AAQ      0.105200
     36 H9A         4.8920   -3.4180   -5.1690 hx        1 AAQ      0.105200
     37 H11         6.5960   -3.0700   -6.8510 ha        1 AAQ      0.132500
     38 H12         7.1540   -2.9960   -9.2760 ha        1 AAQ      0.171500
     39 H13         5.3520   -2.6230  -10.9670 ha        1 AAQ      0.178000
     40 H14         2.9850   -2.3160  -10.2270 ha        1 AAQ      0.171500
     41 H15         2.4150   -2.3930   -7.8050 ha        1 AAQ      0.132500
     42 HN4        -1.6740   -0.7390   -2.7840 hn        1 AAQ      0.491800
     43 H1         -2.5660    0.6830   -0.2900 hx        1 AAQ      0.129367
     44 H1A        -1.9940    1.5000   -1.8350 hx        1 AAQ      0.129367
     45 H1B        -3.5150    0.4620   -1.8480 hx        1 AAQ      0.129367
     46 HN6         7.9500    0.5040   -1.0230 hn        1 AAQ      0.495800
     47 HN6A        8.0830    1.3930    0.3930 hn        1 AAQ      0.495800
     48 HN7         6.6570    0.2940    2.3970 hn        1 AAQ      0.379500
     49 H22         3.3810   -0.8730   -5.5990 hn        1 AAQ      0.451800
     50 H42        -2.1200   -1.4680   -1.3430 hn        1 AAQ      0.491800
     51 H63         8.3760   -0.2660    0.4070 hn        1 AAQ      0.495800
@<TRIPOS>BOND
     1    1    2 1   
     2    1   19 1   
     3    1   28 1   
     4    2    3 ar  
     5    2   17 ar  
     6    3    4 ar  
     7    3   29 1   
     8    4    5 ar  
     9    4   26 1   
    10    5    6 ar  
    11    5   22 1   
    12    6    7 1   
    13    6   17 ar  
    14    7    8 1   
    15    7   30 1   
    16    7   31 1   
    17    8    9 1   
    18    8   32 1   
    19    8   33 1   
    20    9   10 1   
    21    9   34 1   
    22    9   49 1   
    23   10   11 1   
    24   10   35 1   
    25   10   36 1   
    26   11   12 ar  
    27   11   16 ar  
    28   12   13 ar  
    29   12   37 1   
    30   13   14 ar  
    31   13   38 1   
    32   14   15 ar  
    33   14   39 1   
    34   15   16 ar  
    35   15   40 1   
    36   16   41 1   
    37   17   18 1   
    38   18   19 2   
    39   19   20 1   
    40   20   21 1   
    41   20   42 1   
    42   20   50 1   
    43   21   43 1   
    44   21   44 1   
    45   21   45 1   
    46   22   23 2   
    47   23   24 1   
    48   23   25 1   
    49   24   46 1   
    50   24   47 1   
    51   24   51 1   
    52   25   26 1   
    53   25   48 1   
    54   26   27 2   
@<TRIPOS>SUBSTRUCTURE
     1 AAQ         1 TEMP              0 ****  ****    0 ROOT
