@<TRIPOS>MOLECULE
AAQ
   50    53     1     0     0
SMALL
bcc


@<TRIPOS>ATOM
      1 N1          0.6040   -0.0540   -1.5060 na        1 AAQ     -0.285300
      2 C3          1.8460   -0.0020   -0.8640 ca        1 AAQ     -0.059200
      3 C2          2.1940    0.1920    0.4650 ca        1 AAQ     -0.025000
      4 C4          3.5580    0.2190    0.7670 ca        1 AAQ     -0.168600
      5 C5          4.5710    0.0640   -0.2300 ca        1 AAQ      0.168400
      6 C6          4.2230   -0.1380   -1.5880 ca        1 AAQ     -0.053300
      7 C7          5.2270   -0.2280   -2.6830 c3        1 AAQ     -0.042100
      8 C8          5.2060   -1.5700   -3.4170 c3        1 AAQ      0.114800
      9 N2          4.3660   -1.5750   -4.6470 n4        1 AAQ     -0.778000
     10 C9          4.4700   -2.8760   -5.3890 c3        1 AAQ      0.176100
     11 C10         3.7150   -2.8230   -6.6720 ca        1 AAQ     -0.190300
     12 C11         4.2740   -2.1770   -7.7820 ca        1 AAQ     -0.103000
     13 C12         3.5950   -2.1740   -8.9980 ca        1 AAQ     -0.117500
     14 C13         2.3610   -2.8180   -9.1120 ca        1 AAQ     -0.075000
     15 C14         1.8050   -3.4640   -8.0060 ca        1 AAQ     -0.117500
     16 C15         2.4770   -3.4660   -6.7850 ca        1 AAQ     -0.103000
     17 C16         2.8540   -0.1800   -1.9020 ca        1 AAQ      0.144400
     18 N3          2.2320   -0.3570   -3.1400 nc        1 AAQ     -0.750100
     19 C17         0.8670   -0.2820   -2.8850 cd        1 AAQ      0.716700
     20 N4         -0.1250   -0.4630   -3.8240 nh        1 AAQ     -0.795200
     21 C1         -1.5020   -0.1970   -3.5160 c3        1 AAQ      0.169100
     22 N5          5.9280    0.1270    0.1340 nc        1 AAQ     -0.581100
     23 C18         6.2260    0.3400    1.4030 cd        1 AAQ      0.543800
     24 N6          7.6910    0.4240    1.7370 n4        1 AAQ     -0.804600
     25 N7          5.3300    0.4940    2.4590 n         1 AAQ     -0.504400
     26 C19         3.9350    0.4330    2.1770 c         1 AAQ      0.724100
     27 O1          3.1630    0.5650    3.1290 o         1 AAQ     -0.520500
     28 HN1        -0.2840   -0.0040   -1.0710 hn        1 AAQ      0.340700
     29 H2          1.4440    0.3250    1.2650 ha        1 AAQ      0.195000
     30 H7          6.2720   -0.0950   -2.2920 hc        1 AAQ      0.089700
     31 H7A         5.0480    0.6280   -3.3950 hc        1 AAQ      0.089700
     32 H8          4.8200   -2.3810   -2.7360 hx        1 AAQ      0.100700
     33 H8A         6.2580   -1.8360   -3.7270 hx        1 AAQ      0.100700
     34 HN2         3.3750   -1.3970   -4.3910 hn        1 AAQ      0.466800
     35 H9          4.0690   -3.6860   -4.7150 hx        1 AAQ      0.102200
     36 H9A         5.5630   -3.0760   -5.5850 hx        1 AAQ      0.102200
     37 H11         5.2590   -1.6910   -7.7050 ha        1 AAQ      0.136500
     38 H12         4.0380   -1.6730   -9.8750 ha        1 AAQ      0.162500
     39 H13         1.8310   -2.8250  -10.0790 ha        1 AAQ      0.166000
     40 H14         0.8380   -3.9840   -8.1010 ha        1 AAQ      0.162500
     41 H15         2.0420   -3.9920   -5.9220 ha        1 AAQ      0.136500
     42 HN4         0.1540   -0.3870   -4.7790 hn        1 AAQ      0.464800
     43 H1         -2.1130   -0.3990   -4.4380 h1        1 AAQ      0.070700
     44 H1A        -1.6670    0.8680   -3.1980 h1        1 AAQ      0.070700
     45 H1B        -1.8530   -0.8850   -2.7000 h1        1 AAQ      0.070700
     46 HN6         7.8980    1.3490    2.1350 hn        1 AAQ      0.486133
     47 HN6A        8.2540    0.2910    0.8840 hn        1 AAQ      0.486133
     48 HN7         5.6170    0.6540    3.4020 hn        1 AAQ      0.362500
     49 H22         4.6600   -0.8130   -5.2690 hn        1 AAQ      0.466800
     50 H63         7.9310   -0.3090    2.4160 hn        1 AAQ      0.486133
@<TRIPOS>BOND
     1    1    2 1   
     2    1   19 1   
     3    1   28 1   
     4    2    3 ar  
     5    2   17 ar  
     6    3    4 ar  
     7    3   29 1   
     8    4    5 ar  
     9    4   26 1   
    10    5    6 ar  
    11    5   22 1   
    12    6    7 1   
    13    6   17 ar  
    14    7    8 1   
    15    7   30 1   
    16    7   31 1   
    17    8    9 1   
    18    8   32 1   
    19    8   33 1   
    20    9   10 1   
    21    9   34 1   
    22    9   49 1   
    23   10   11 1   
    24   10   35 1   
    25   10   36 1   
    26   11   12 ar  
    27   11   16 ar  
    28   12   13 ar  
    29   12   37 1   
    30   13   14 ar  
    31   13   38 1   
    32   14   15 ar  
    33   14   39 1   
    34   15   16 ar  
    35   15   40 1   
    36   16   41 1   
    37   17   18 1   
    38   18   19 2   
    39   19   20 1   
    40   20   21 1   
    41   20   42 1   
    42   21   43 1   
    43   21   44 1   
    44   21   45 1   
    45   22   23 2   
    46   23   24 1   
    47   23   25 1   
    48   24   46 1   
    49   24   47 1   
    50   24   50 1   
    51   25   26 1   
    52   25   48 1   
    53   26   27 2   
@<TRIPOS>SUBSTRUCTURE
     1 AAQ         1 TEMP              0 ****  ****    0 ROOT
