@<TRIPOS>MOLECULE
AAQ
   50    53     1     0     0
SMALL
bcc


@<TRIPOS>ATOM
      1 N1          0.6370   -0.1600   -1.3900 na        1 AAQ     -0.285300
      2 C3          1.9010   -0.0760   -0.7960 ca        1 AAQ     -0.059200
      3 C2          2.2930    0.1120    0.5220 ca        1 AAQ     -0.025000
      4 C4          3.6660    0.1790    0.7720 ca        1 AAQ     -0.168600
      5 C5          4.6450    0.0690   -0.2640 ca        1 AAQ      0.168400
      6 C6          4.2520   -0.1280   -1.6110 ca        1 AAQ     -0.053300
      7 C7          5.2150   -0.1720   -2.7440 c3        1 AAQ     -0.042100
      8 C8          5.2100   -1.5060   -3.4940 c3        1 AAQ      0.114800
      9 N2          4.3230   -1.5250   -4.6900 ny        1 AAQ     -0.778000
     10 C9          4.4400   -2.8140   -5.4510 c3        1 AAQ      0.176100
     11 C10         3.6330   -2.7720   -6.7020 ca        1 AAQ     -0.190300
     12 C11         4.1250   -2.0960   -7.8260 ca        1 AAQ     -0.103000
     13 C12         3.3970   -2.1020   -9.0140 ca        1 AAQ     -0.117500
     14 C13         2.1820   -2.7880   -9.0860 ca        1 AAQ     -0.075000
     15 C14         1.6930   -3.4640   -7.9670 ca        1 AAQ     -0.117500
     16 C15         2.4140   -3.4560   -6.7740 ca        1 AAQ     -0.103000
     17 C16         2.8740   -0.2090   -1.8730 ca        1 AAQ      0.144400
     18 N3          2.2100   -0.3920   -3.0900 nc        1 AAQ     -0.750100
     19 C17         0.8550   -0.3630   -2.7820 cd        1 AAQ      0.716700
     20 N4         -0.1660   -0.5640   -3.6840 nu        1 AAQ     -0.795200
     21 C1         -1.5390   -0.3470   -3.3210 c3        1 AAQ      0.169100
     22 N5          6.0120    0.1710    0.0490 nc        1 AAQ     -0.581100
     23 C18         6.3510    0.3780    1.3080 cd        1 AAQ      0.543800
     24 N6          7.8240    0.5050    1.5870 nz        1 AAQ     -0.804600
     25 N7          5.4920    0.4910    2.4000 ns        1 AAQ     -0.504400
     26 C19         4.0900    0.3880    2.1690 c         1 AAQ      0.724100
     27 O1          3.3520    0.4830    3.1520 o         1 AAQ     -0.520500
     28 HN1        -0.2340   -0.1440   -0.9220 hn        1 AAQ      0.340700
     29 H2          1.5710    0.2120    1.3510 ha        1 AAQ      0.195000
     30 H7          6.2700   -0.0100   -2.3920 hc        1 AAQ      0.089700
     31 H7A         4.9810    0.6850   -3.4380 hc        1 AAQ      0.089700
     32 H8          4.8780   -2.3370   -2.8080 hx        1 AAQ      0.100700
     33 H8A         6.2580   -1.7330   -3.8480 hx        1 AAQ      0.100700
     34 HN2         4.5660   -0.7470   -5.3130 hn        1 AAQ      0.466800
     35 H9          4.0940   -3.6440   -4.7720 hx        1 AAQ      0.102200
     36 H9A         5.5310   -2.9740   -5.6940 hx        1 AAQ      0.102200
     37 H11         5.0940   -1.5770   -7.7830 ha        1 AAQ      0.136500
     38 H12         3.7870   -1.5770   -9.9010 ha        1 AAQ      0.162500
     39 H13         1.6140   -2.8020  -10.0310 ha        1 AAQ      0.166000
     40 H14         0.7410   -4.0160   -8.0290 ha        1 AAQ      0.162500
     41 H15         2.0320   -4.0060   -5.9000 ha        1 AAQ      0.136500
     42 HN4         0.0730   -0.4690   -4.6490 hn        1 AAQ      0.464800
     43 H1         -2.1770   -0.5560   -4.2220 h1        1 AAQ      0.070700
     44 H1A        -1.8360   -1.0550   -2.5020 h1        1 AAQ      0.070700
     45 H1B        -1.7240    0.7090   -2.9830 h1        1 AAQ      0.070700
     46 HN6         8.1140   -0.2290    2.2470 hn        1 AAQ      0.486133
     47 HN6A        8.3580    0.4010    0.7120 hn        1 AAQ      0.486133
     48 HN7         5.8110    0.6490    3.3330 hn        1 AAQ      0.362500
     49 H22         3.3370   -1.3830   -4.3930 hn        1 AAQ      0.466800
     50 H63         8.0180    1.4310    1.9900 hn        1 AAQ      0.486133
@<TRIPOS>BOND
     1    1    2 1   
     2    1   19 1   
     3    1   28 1   
     4    2    3 ar  
     5    2   17 ar  
     6    3    4 ar  
     7    3   29 1   
     8    4    5 ar  
     9    4   26 1   
    10    5    6 ar  
    11    5   22 1   
    12    6    7 1   
    13    6   17 ar  
    14    7    8 1   
    15    7   30 1   
    16    7   31 1   
    17    8    9 1   
    18    8   32 1   
    19    8   33 1   
    20    9   10 1   
    21    9   34 1   
    22    9   49 1   
    23   10   11 1   
    24   10   35 1   
    25   10   36 1   
    26   11   12 ar  
    27   11   16 ar  
    28   12   13 ar  
    29   12   37 1   
    30   13   14 ar  
    31   13   38 1   
    32   14   15 ar  
    33   14   39 1   
    34   15   16 ar  
    35   15   40 1   
    36   16   41 1   
    37   17   18 1   
    38   18   19 2   
    39   19   20 1   
    40   20   21 1   
    41   20   42 1   
    42   21   43 1   
    43   21   44 1   
    44   21   45 1   
    45   22   23 2   
    46   23   24 1   
    47   23   25 1   
    48   24   46 1   
    49   24   47 1   
    50   24   50 1   
    51   25   26 1   
    52   25   48 1   
    53   26   27 2   
@<TRIPOS>SUBSTRUCTURE
     1 AAQ         1 TEMP              0 ****  ****    0 ROOT
