@<TRIPOS>MOLECULE
AAQ
   48    42     1     0     0
SMALL
bcc


@<TRIPOS>ATOM
      1 N1         -4.1330   -0.5410    2.5910 n2        1 AAQ     -0.242000
      2 C3         -2.7710   -0.4520    2.5990 c1        1 AAQ     -0.072000
      3 C2         -1.8100   -0.5490    3.6530 c1        1 AAQ     -0.051000
      4 C4         -0.4260   -0.4590    3.3580 c1        1 AAQ     -0.180000
      5 C5         -0.0110   -0.2800    2.0570 c1        1 AAQ      0.063000
      6 C6         -0.9660   -0.1850    1.0140 c1        1 AAQ     -0.034000
      7 C7         -0.5040   -0.6160   -0.3250 c3        1 AAQ     -0.110000
      8 C8         -0.3290    0.6190   -1.2280 c3        1 AAQ     -0.068000
      9 N2          0.4820    0.2710   -2.3690 n3        1 AAQ     -0.302000
     10 C9          1.4460    1.3550   -2.6370 c3        1 AAQ     -0.036000
     11 C10         2.6480    0.7950   -3.4200 c2        1 AAQ     -0.085000
     12 C11         3.8290    0.5240   -2.7650 c2        1 AAQ     -0.128000
     13 C12         4.9560    0.1390   -3.4900 c1        1 AAQ     -0.134000
     14 C13         4.8870    0.0270   -4.8920 c1        1 AAQ     -0.132000
     15 C14         3.7050    0.2980   -5.5480 c1        1 AAQ     -0.132000
     16 C15         2.5810    0.6820   -4.8240 c1        1 AAQ     -0.110000
     17 C16        -2.3530   -0.2740    1.3070 c1        1 AAQ      0.001000
     18 N3         -3.4610   -0.2540    0.5040 n1        1 AAQ     -0.186000
     19 C17        -4.5580   -0.4180    1.2930 c1        1 AAQ      0.127000
     20 N4         -5.9300   -0.6160    1.5240 n2        1 AAQ     -0.255000
     21 C1         -6.9130    0.2710    0.8990 c3        1 AAQ     -0.105000
     22 N5          1.4200   -0.2090    1.7460 n2        1 AAQ     -0.250000
     23 C18         2.3940   -0.3280    2.8010 c1        1 AAQ      0.210000
     24 N6          3.7920   -0.3950    2.4810 n2        1 AAQ     -0.321000
     25 N7          1.9670   -0.4150    4.1700 n         1 AAQ     -0.344000
     26 C19         0.6000   -0.5170    4.4730 c2        1 AAQ      0.356000
     27 O1          0.2340   -0.7070    5.6560 o         1 AAQ     -0.355000
     28 HN1        -4.6740   -0.6640    3.3300 DU        1 AAQ      0.242000
     29 H2         -2.1180   -0.6330    4.6070 ha        1 AAQ      0.163000
     30 H7         -1.1580   -1.2110   -0.7160 hc        1 AAQ      0.106500
     31 H7A         0.3720   -1.0950   -0.2380 hc        1 AAQ      0.106500
     32 H8         -1.2330    0.9350   -1.5430 h1        1 AAQ      0.074500
     33 H8A         0.1050    1.3280   -0.7260 h1        1 AAQ      0.074500
     34 HN2         0.9310   -0.5000   -2.1980 hn        1 AAQ      0.155000
     35 H9          1.7700    1.7510   -1.7500 h1        1 AAQ      0.075500
     36 H9A         1.0100    2.0530   -3.1640 h1        1 AAQ      0.075500
     37 H11         3.8750    0.5990   -1.8310 ha        1 AAQ      0.129000
     38 H12         5.7900   -0.0520   -3.0270 ha        1 AAQ      0.129000
     39 H13         5.6750   -0.2420   -5.3990 ha        1 AAQ      0.130000
     40 H14         3.6540    0.2180   -6.5610 ha        1 AAQ      0.130000
     41 H15         1.7550    0.8720   -5.2830 ha        1 AAQ      0.148000
     42 HN4        -6.2060   -1.2850    2.0730 hn        1 AAQ      0.199000
     43 H1         -6.4330    0.9580    0.3270 h1        1 AAQ      0.091667
     44 H1A        -7.4290    0.7250    1.5920 h1        1 AAQ      0.091667
     45 H1B        -7.5270   -0.2670    0.3260 h1        1 AAQ      0.091667
     46 HN6         4.4090   -0.2240    3.1190 hn        1 AAQ      0.205500
     47 HN6A        4.0630   -0.5450    1.5960 hn        1 AAQ      0.205500
     48 HN7         2.5910   -0.4900    4.8400 hn        1 AAQ      0.250000
@<TRIPOS>BOND
     1    1    2 1   
     2    1   19 1   
     3    2    3 1   
     4    3   29 1   
     5    4    5 1   
     6    4   26 1   
     7    5   22 1   
     8    6    7 1   
     9    6   17 1   
    10    7    8 1   
    11    7   30 1   
    12    7   31 1   
    13    8    9 1   
    14    8   32 1   
    15    8   33 1   
    16    9   10 1   
    17    9   34 1   
    18   10   11 1   
    19   10   35 1   
    20   10   36 1   
    21   11   12 1   
    22   11   16 1   
    23   12   13 1   
    24   12   37 1   
    25   13   38 1   
    26   14   15 1   
    27   14   39 1   
    28   15   40 1   
    29   16   41 1   
    30   18   19 1   
    31   20   21 1   
    32   20   42 1   
    33   21   43 1   
    34   21   44 1   
    35   21   45 1   
    36   22   23 1   
    37   23   25 1   
    38   24   46 1   
    39   24   47 1   
    40   25   26 1   
    41   25   48 1   
    42   26   27 1   
@<TRIPOS>SUBSTRUCTURE
     1 AAQ         1 TEMP              0 ****  ****    0 ROOT
