@<TRIPOS>MOLECULE
AAQ
   48    51     1     0     0
SMALL
bcc


@<TRIPOS>ATOM
      1 N1         -3.5080    2.5400   -0.2020 na        1 AAQ     -0.283300
      2 C3         -3.1350    1.1790   -0.1910 ca        1 AAQ     -0.116200
      3 C2         -3.8520    0.0310   -0.4770 ca        1 AAQ     -0.051000
      4 C4         -3.1960   -1.1920   -0.3020 ca        1 AAQ     -0.199600
      5 C5         -1.8480   -1.2850    0.1590 ca        1 AAQ      0.203400
      6 C6         -1.1140   -0.1050    0.4650 ca        1 AAQ     -0.041300
      7 C7          0.2840   -0.1500    0.9720 c3        1 AAQ     -0.023100
      8 C8          1.2710   -0.2360   -0.1970 c3        1 AAQ      0.166800
      9 N2          2.6550   -0.2020    0.2370 n3        1 AAQ     -0.823200
     10 C9          3.5860   -0.1280   -0.8740 c3        1 AAQ      0.208100
     11 C10         4.9960    0.1680   -0.4560 ca        1 AAQ     -0.091300
     12 C11         5.6060   -0.5700    0.5640 ca        1 AAQ     -0.118000
     13 C12         6.9280   -0.3090    0.9220 ca        1 AAQ     -0.134500
     14 C13         7.6490    0.6870    0.2640 ca        1 AAQ     -0.130000
     15 C14         7.0450    1.4240   -0.7540 ca        1 AAQ     -0.134500
     16 C15         5.7220    1.1680   -1.1120 ca        1 AAQ     -0.118000
     17 C16        -1.7580    1.1220    0.2790 ca        1 AAQ      0.139400
     18 N3         -1.2790    2.4320    0.4900 nc        1 AAQ     -0.623100
     19 C17        -2.3120    3.2570    0.1450 cd        1 AAQ      0.610700
     20 N4         -2.2380    4.6620    0.0860 nh        1 AAQ     -0.773200
     21 C1         -3.4380    5.4100    0.3460 c3        1 AAQ      0.165100
     22 N5         -1.2290   -2.5260    0.3260 nc        1 AAQ     -0.672100
     23 C18        -1.9030   -3.6360    0.0150 cd        1 AAQ      0.655800
     24 N6         -1.2410   -4.8940    0.0510 nh        1 AAQ     -0.881800
     25 N7         -3.2510   -3.6390   -0.4160 n         1 AAQ     -0.504400
     26 C19        -3.9310   -2.4290   -0.6150 c         1 AAQ      0.719100
     27 O1         -5.1040   -2.4770   -1.0310 o         1 AAQ     -0.631500
     28 HN1        -4.1930    2.9000   -0.8170 hn        1 AAQ      0.295700
     29 H2         -4.8950    0.0500   -0.8280 ha        1 AAQ      0.163000
     30 H7          0.4940    0.7700    1.5820 hc        1 AAQ      0.065200
     31 H7A         0.4280   -1.0320    1.6520 hc        1 AAQ      0.065200
     32 H8          1.1120   -1.2110   -0.7390 h1        1 AAQ      0.037200
     33 H8A         1.0340    0.5980   -0.9230 h1        1 AAQ      0.037200
     34 HN2         2.8070    0.5570    0.8760 hn        1 AAQ      0.359800
     35 H9          3.5710   -1.1350   -1.3860 h1        1 AAQ      0.036700
     36 H9A         3.2650    0.6370   -1.6450 h1        1 AAQ      0.036700
     37 H11         5.0380   -1.3570    1.0830 ha        1 AAQ      0.138500
     38 H12         7.4030   -0.8910    1.7260 ha        1 AAQ      0.129500
     39 H13         8.6920    0.8910    0.5460 ha        1 AAQ      0.129000
     40 H14         7.6110    2.2090   -1.2760 ha        1 AAQ      0.129500
     41 H15         5.2490    1.7540   -1.9140 ha        1 AAQ      0.138500
     42 HN4        -1.4310    5.0140    0.5670 hn        1 AAQ      0.425800
     43 H1         -3.1710    6.5010    0.3600 h1        1 AAQ      0.046367
     44 H1A        -4.1750    5.2370   -0.4820 h1        1 AAQ      0.046367
     45 H1B        -3.9270    5.1440    1.3220 h1        1 AAQ      0.046367
     46 HN6        -0.3100   -4.8420    0.4110 hn        1 AAQ      0.410300
     47 HN6A       -1.7780   -5.6230    0.4690 hn        1 AAQ      0.410300
     48 HN7        -3.6990   -4.4860   -0.6870 hn        1 AAQ      0.336500
@<TRIPOS>BOND
     1    1    2 1   
     2    1   19 1   
     3    1   28 1   
     4    2    3 ar  
     5    2   17 ar  
     6    3    4 ar  
     7    3   29 1   
     8    4    5 ar  
     9    4   26 1   
    10    5    6 ar  
    11    5   22 1   
    12    6    7 1   
    13    6   17 ar  
    14    7    8 1   
    15    7   30 1   
    16    7   31 1   
    17    8    9 1   
    18    8   32 1   
    19    8   33 1   
    20    9   10 1   
    21    9   34 1   
    22   10   11 1   
    23   10   35 1   
    24   10   36 1   
    25   11   12 ar  
    26   11   16 ar  
    27   12   13 ar  
    28   12   37 1   
    29   13   14 ar  
    30   13   38 1   
    31   14   15 ar  
    32   14   39 1   
    33   15   16 ar  
    34   15   40 1   
    35   16   41 1   
    36   17   18 1   
    37   18   19 2   
    38   19   20 1   
    39   20   21 1   
    40   20   42 1   
    41   21   43 1   
    42   21   44 1   
    43   21   45 1   
    44   22   23 2   
    45   23   24 1   
    46   23   25 1   
    47   24   46 1   
    48   24   47 1   
    49   25   26 1   
    50   25   48 1   
    51   26   27 2   
@<TRIPOS>SUBSTRUCTURE
     1 AAQ         1 TEMP              0 ****  ****    0 ROOT
