@<TRIPOS>MOLECULE
AAR
   28    26     1     0     0
SMALL
bcc


@<TRIPOS>ATOM
      1 N          -2.2820   -1.0910   -2.1870 n3        1 AAR     -0.915800
      2 CA         -0.8330   -1.0490   -2.1580 c3        1 AAR      0.110500
      3 CB         -0.3550   -1.0730   -0.7170 c3        1 AAR     -0.070400
      4 CG         -0.1820    0.3890   -0.2010 c3        1 AAR     -0.090400
      5 CD          0.2560    0.3670    1.2760 c3        1 AAR      0.191800
      6 NE          0.5490    1.7370    1.7200 nh        1 AAR     -0.828200
      7 CZ          0.9320    1.9430    3.0640 c2        1 AAR      0.981100
      8 NH1         0.0090    1.7070    4.1030 nh        1 AAR     -0.925800
      9 NH2         2.1490    2.3510    3.3460 n2        1 AAR     -0.906100
     10 C          -0.2820   -2.2450   -2.8890 c         1 AAR      0.608100
     11 O          -0.2030   -3.3270   -2.3200 o         1 AAR     -0.604100
     12 NT          0.2320   -2.0990   -4.2200 n         1 AAR     -0.664000
     13 H          -2.5930   -0.4730   -2.7810 hn        1 AAR      0.368300
     14 H2         -2.5600   -1.9340   -2.4460 hn        1 AAR      0.368300
     15 HA         -0.5220   -0.2310   -2.5910 h1        1 AAR      0.073700
     16 HB2         0.4980   -1.5390   -0.6660 hc        1 AAR      0.070200
     17 HB3        -1.0100   -1.5350   -0.1680 hc        1 AAR      0.070200
     18 HG2        -1.0180    0.8540   -0.2800 hc        1 AAR      0.070700
     19 HG3         0.4970    0.8460   -0.7350 hc        1 AAR      0.070700
     20 HD2        -0.4870   -0.0210    1.8430 h1        1 AAR      0.069200
     21 HD3         1.0530   -0.1790    1.3690 h1        1 AAR      0.069200
     22 HE          0.6730    2.4070    1.0930 hn        1 AAR      0.479800
     23 HH11       -0.8680    1.6530    3.9200 hn        1 AAR      0.483300
     24 HH12        0.3000    1.6700    4.9600 hn        1 AAR      0.483300
     25 HH21        2.7490    2.5030    2.6780 DU        1 AAR      0.277000
     26 HH22        2.3960    2.4850    4.2300 hn        1 AAR      0.521400
     27 HNT1        0.3180   -1.2790   -4.5780 hn        1 AAR      0.318500
     28 HNT2        0.5840   -2.8380   -4.6650 hn        1 AAR      0.318500
@<TRIPOS>BOND
     1    1    2 1   
     2    1   13 1   
     3    1   14 1   
     4    2    3 1   
     5    2   10 1   
     6    2   15 1   
     7    3    4 1   
     8    3   16 1   
     9    3   17 1   
    10    4    5 1   
    11    4   18 1   
    12    4   19 1   
    13    5    6 1   
    14    5   20 1   
    15    5   21 1   
    16    6    7 1   
    17    6   22 1   
    18    7    8 1   
    19    7    9 2   
    20    8   23 1   
    21    8   24 1   
    22    9   26 1   
    23   10   11 2   
    24   10   12 1   
    25   12   27 1   
    26   12   28 1   
@<TRIPOS>SUBSTRUCTURE
     1 AAR         1 TEMP              0 ****  ****    0 ROOT
