@<TRIPOS>MOLECULE
AAR
   28    27     1     0     0
SMALL
bcc


@<TRIPOS>ATOM
      1 N           2.6320    1.5190    0.2310 n3        1 AAR     -0.912800
      2 CA          2.2210    0.1640    0.5160 c3        1 AAR      0.102500
      3 CB          0.9280   -0.3070   -0.1710 c3        1 AAR     -0.122400
      4 CG         -0.2890    0.4220    0.3560 c3        1 AAR     -0.094400
      5 CD         -1.5400   -0.2530   -0.2090 c3        1 AAR      0.017300
      6 NE         -2.7660    0.3760    0.2420 nh        1 AAR     -0.401100
      7 CZ         -4.0180   -0.0740   -0.1150 cz        1 AAR      0.523300
      8 NH1        -4.1670   -1.1540   -0.9550 nh        1 AAR     -0.505700
      9 NH2        -5.1380    0.5690    0.3700 nh        1 AAR     -0.505700
     10 C           3.3310   -0.8580    0.1640 c         1 AAR      0.656100
     11 O           3.0480   -1.9090   -0.4480 o         1 AAR     -0.624100
     12 NT          4.6010   -0.6030    0.5880 n         1 AAR     -0.644000
     13 H           2.8640    1.6410   -0.7350 hn        1 AAR      0.362800
     14 H2          1.9210    2.1710    0.4930 hn        1 AAR      0.362800
     15 HA          2.0660    0.0930    1.6360 h1        1 AAR      0.079700
     16 HB2         1.0160   -0.1680   -1.2800 hc        1 AAR      0.076700
     17 HB3         0.8220   -1.4110    0.0130 hc        1 AAR      0.076700
     18 HG2        -0.3010    0.3830    1.4780 hc        1 AAR      0.060200
     19 HG3        -0.2610    1.5010    0.0510 hc        1 AAR      0.060200
     20 HD2        -1.4980   -0.2090   -1.3370 h1        1 AAR      0.071700
     21 HD3        -1.5420   -1.3370    0.1100 h1        1 AAR      0.071700
     22 HE         -2.6830    1.1570    0.8600 hn        1 AAR      0.323700
     23 HH11       -3.3730   -1.6350   -1.3130 hn        1 AAR      0.328200
     24 HH12       -5.0710   -1.4780   -1.2150 hn        1 AAR      0.328200
     25 HH21       -6.0510    0.2650    0.1190 hn        1 AAR      0.328200
     26 HH22       -5.0550    1.3520    0.9770 hn        1 AAR      0.328200
     27 HNT1        4.8370    0.2560    1.0180 hn        1 AAR      0.327000
     28 HNT2        5.3240   -1.2430    0.3660 hn        1 AAR      0.327000
@<TRIPOS>BOND
     1    1    2 1   
     2    1   13 1   
     3    1   14 1   
     4    2    3 1   
     5    2   10 1   
     6    2   15 1   
     7    3    4 1   
     8    3   16 1   
     9    3   17 1   
    10    4    5 1   
    11    4   18 1   
    12    4   19 1   
    13    5    6 1   
    14    5   20 1   
    15    5   21 1   
    16    6    7 2   
    17    6   22 1   
    18    7    8 1   
    19    7    9 1   
    20    8   23 1   
    21    8   24 1   
    22    9   25 1   
    23    9   26 1   
    24   10   11 2   
    25   10   12 1   
    26   12   27 1   
    27   12   28 1   
@<TRIPOS>SUBSTRUCTURE
     1 AAR         1 TEMP              0 ****  ****    0 ROOT
