@<TRIPOS>MOLECULE
AAT
   61    63     1     0     0
SMALL
bcc


@<TRIPOS>ATOM
      1 N           0.7380    0.0170    2.5740 n4        1 AAT     -0.844600
      2 CA          1.5590   -0.1220    1.3210 c3        1 AAT      0.184000
      3 CB          2.9950    0.0460    1.6350 c2        1 AAT     -0.318200
      4 CG          3.9930   -0.8290    1.4090 c2        1 AAT      0.046400
      5 SD          5.5820   -0.6100    1.9150 ss        1 AAT     -0.067700
      6 C5'         5.7010    0.8970    2.8170 c3        1 AAT     -0.082300
      7 C4'         5.1380    0.8390    4.2270 c3        1 AAT      0.117100
      8 O4'         6.2020    1.1880    5.1320 os        1 AAT     -0.411600
      9 C3'         3.9550    1.7960    4.4940 c3        1 AAT      0.127100
     10 O3'         2.7270    1.0970    4.4970 oh        1 AAT     -0.643800
     11 C2'         4.2790    2.4920    5.8370 c3        1 AAT      0.090100
     12 O2'         3.3690    2.0200    6.8020 oh        1 AAT     -0.597800
     13 C1'         5.7120    1.9890    6.2150 c3        1 AAT      0.225800
     14 N9          6.6720    3.0450    6.4780 na        1 AAT     -0.280000
     15 C8          8.0290    3.0920    6.0800 cc        1 AAT      0.519700
     16 N7          8.7380    4.0710    6.6690 nd        1 AAT     -0.564100
     17 C5          7.8350    4.7060    7.5300 ca        1 AAT     -0.131200
     18 C6          7.9270    5.7730    8.4440 ca        1 AAT      0.541200
     19 N6          9.2230    6.4530    8.6220 n4        1 AAT     -0.818300
     20 N1          6.8580    6.1830    9.1710 nb        1 AAT     -0.662000
     21 C2          5.6840    5.5120    8.9830 ca        1 AAT      0.689900
     22 N3          5.4310    4.4660    8.1520 nb        1 AAT     -0.658000
     23 C4          6.5060    4.0640    7.4320 ca        1 AAT      0.450800
     24 C11         3.8500   -2.1410    0.7100 c3        1 AAT     -0.055200
     25 C12         4.1910   -2.0500   -0.7690 c3        1 AAT     -0.076400
     26 C13         4.2170   -3.4320   -1.3940 c3        1 AAT     -0.080400
     27 C14         4.6380   -3.3640   -2.8520 c3        1 AAT     -0.108400
     28 C15         4.6900   -4.7760   -3.4270 c3        1 AAT      0.098800
     29 N16         5.1180   -4.8120   -4.8560 n4        1 AAT     -0.838600
     30 HN1         1.0260    0.8650    3.0850 hn        1 AAT      0.464467
     31 HN2        -0.2580    0.0750    2.3450 hn        1 AAT      0.464467
     32 HCA1        1.3220   -1.1250    0.8660 hx        1 AAT      0.106700
     33 HCA2        1.2180    0.6890    0.6100 hx        1 AAT      0.106700
     34 HCB         3.2280    1.0140    2.1190 ha        1 AAT      0.145000
     35 H5'1        5.2780    1.7610    2.2510 h1        1 AAT      0.111700
     36 H5'2        6.8160    1.0560    2.8770 h1        1 AAT      0.111700
     37 H4'C        4.8400   -0.2180    4.4880 h1        1 AAT      0.090700
     38 H3'C        3.8480    2.5650    3.6800 h1        1 AAT      0.094700
     39 H3'O        2.5990    0.6980    5.3720 ho        1 AAT      0.452000
     40 H2'C        4.2260    3.6060    5.7270 h1        1 AAT      0.094700
     41 H2'O        3.2900    2.6930    7.4950 ho        1 AAT      0.458000
     42 H1'C        5.6590    1.3200    7.1320 h2        1 AAT      0.118700
     43 HC8         8.4270    2.3690    5.3460 h5        1 AAT      0.116800
     44 HN61        9.6230    6.6540    7.6950 hn        1 AAT      0.486467
     45 HN62        9.8570    5.8240    9.1340 hn        1 AAT      0.486467
     46 HC2         4.8270    5.8750    9.6020 h5        1 AAT      0.110100
     47 H111        4.5360   -2.8910    1.1980 hc        1 AAT      0.071700
     48 H112        2.8060   -2.5380    0.8300 hc        1 AAT      0.071700
     49 H121        3.4380   -1.4080   -1.2960 hc        1 AAT      0.061200
     50 H122        5.1940   -1.5610   -0.8920 hc        1 AAT      0.061200
     51 H131        4.9340   -4.0850   -0.8270 hc        1 AAT      0.062200
     52 H132        3.2010   -3.9010   -1.3150 hc        1 AAT      0.062200
     53 H141        5.6450   -2.8730   -2.9270 hc        1 AAT      0.073200
     54 H142        3.9060   -2.7340   -3.4250 hc        1 AAT      0.073200
     55 H151        5.4210   -5.4050   -2.8370 hx        1 AAT      0.117700
     56 H152        3.6700   -5.2560   -3.3640 hx        1 AAT      0.117700
     57 H161        5.1360   -5.7840   -5.1900 hn        1 AAT      0.468467
     58 H162        6.0560   -4.4090   -4.9590 hn        1 AAT      0.468467
     59 HN3         0.9000   -0.7850    3.1890 hn        1 AAT      0.464467
     60 H63         9.1150    7.3310    9.1520 hn        1 AAT      0.486467
     61 H163        4.4670   -4.2740   -5.4380 hn        1 AAT      0.468467
@<TRIPOS>BOND
     1    1    2 1   
     2    1   30 1   
     3    1   31 1   
     4    1   59 1   
     5    2    3 1   
     6    2   32 1   
     7    2   33 1   
     8    3    4 2   
     9    3   34 1   
    10    4    5 1   
    11    4   24 1   
    12    5    6 1   
    13    6    7 1   
    14    6   35 1   
    15    6   36 1   
    16    7    8 1   
    17    7    9 1   
    18    7   37 1   
    19    8   13 1   
    20    9   10 1   
    21    9   11 1   
    22    9   38 1   
    23   10   39 1   
    24   11   12 1   
    25   11   13 1   
    26   11   40 1   
    27   12   41 1   
    28   13   14 1   
    29   13   42 1   
    30   14   15 1   
    31   14   23 1   
    32   15   16 2   
    33   15   43 1   
    34   16   17 1   
    35   17   18 ar  
    36   17   23 ar  
    37   18   19 1   
    38   18   20 ar  
    39   19   44 1   
    40   19   45 1   
    41   19   60 1   
    42   20   21 ar  
    43   21   22 ar  
    44   21   46 1   
    45   22   23 ar  
    46   24   25 1   
    47   24   47 1   
    48   24   48 1   
    49   25   26 1   
    50   25   49 1   
    51   25   50 1   
    52   26   27 1   
    53   26   51 1   
    54   26   52 1   
    55   27   28 1   
    56   27   53 1   
    57   27   54 1   
    58   28   29 1   
    59   28   55 1   
    60   28   56 1   
    61   29   57 1   
    62   29   58 1   
    63   29   61 1   
@<TRIPOS>SUBSTRUCTURE
     1 AAT         1 TEMP              0 ****  ****    0 ROOT
