@<TRIPOS>MOLECULE
AAT
   60    62     1     0     0
SMALL
bcc


@<TRIPOS>ATOM
      1 N           0.3800    0.6640    2.8220 n4        1 AAT     -0.841600
      2 CA          1.2360    0.7090    1.5870 c3        1 AAT      0.187000
      3 CB          2.6630    0.7340    1.9710 c2        1 AAT     -0.335200
      4 CG          3.6390   -0.0710    1.5060 c2        1 AAT      0.045400
      5 SD          5.2050   -0.0750    2.1100 ss        1 AAT     -0.091700
      6 C5'         5.2610    0.9950    3.5080 c3        1 AAT     -0.086300
      7 C4'         4.5030    0.4990    4.7290 c3        1 AAT      0.120100
      8 O4'         5.4220    0.3100    5.8080 os        1 AAT     -0.405600
      9 C3'         3.3860    1.4550    5.2150 c3        1 AAT      0.128100
     10 O3'         2.1100    0.8650    5.0450 oh        1 AAT     -0.668800
     11 C2'         3.7290    1.7810    6.6860 c3        1 AAT      0.094100
     12 O2'         2.8500    1.0420    7.5100 oh        1 AAT     -0.609800
     13 C1'         5.1800    1.2360    6.8840 c3        1 AAT      0.232800
     14 N9          6.1900    2.2510    6.9540 na        1 AAT     -0.306000
     15 C8          7.3760    2.1730    7.7470 cc        1 AAT      0.419700
     16 N7          8.2180    3.1890    7.5450 nd        1 AAT     -0.513100
     17 C5          7.6120    3.9840    6.5570 ca        1 AAT     -0.234200
     18 C6          8.0100    5.2120    5.9260 ca        1 AAT      0.777200
     19 N6          9.1870    5.8130    6.2530 nh        1 AAT     -0.935500
     20 N1          7.1730    5.7570    4.9690 nb        1 AAT     -0.781000
     21 C2          6.0270    5.0980    4.6880 ca        1 AAT      0.696900
     22 N3          5.5280    3.9410    5.2000 nb        1 AAT     -0.805000
     23 C4          6.3430    3.3990    6.1520 ca        1 AAT      0.461800
     24 C11         3.4180   -1.0480    0.3980 c3        1 AAT     -0.047200
     25 C12         4.7090   -1.6540   -0.1230 c3        1 AAT     -0.092400
     26 C13         4.4450   -2.5800   -1.2940 c3        1 AAT     -0.074400
     27 C14         5.7520   -3.1550   -1.8120 c3        1 AAT     -0.110400
     28 C15         5.4710   -4.0710   -2.9980 c3        1 AAT      0.099800
     29 N16         6.7110   -4.6710   -3.5730 n4        1 AAT     -0.838600
     30 HN1         0.5730   -0.1950    3.3480 hn        1 AAT      0.463467
     31 HN2         0.6270    1.4480    3.4440 hn        1 AAT      0.463467
     32 HCA1        0.9760   -0.1880    0.9560 hx        1 AAT      0.100700
     33 HCA2        0.9570    1.6490    1.0240 hx        1 AAT      0.100700
     34 HCB         2.9130    1.5070    2.7220 ha        1 AAT      0.156000
     35 H5'1        4.9670    2.0400    3.2420 h1        1 AAT      0.120200
     36 H5'2        6.3620    1.0180    3.7510 h1        1 AAT      0.120200
     37 H4'C        4.0740   -0.5250    4.5300 h1        1 AAT      0.076700
     38 H3'C        3.3510    2.4060    4.6160 h1        1 AAT      0.106700
     39 H3'O        1.9450    0.2710    5.7930 ho        1 AAT      0.450000
     40 H2'C        3.6470    2.8810    6.8850 h1        1 AAT      0.105700
     41 H2'O        2.7820    1.5050    8.3550 ho        1 AAT      0.442000
     42 H1'C        5.2520    0.6020    7.8210 h2        1 AAT      0.116700
     43 HC8         7.5280    1.3490    8.4550 h5        1 AAT      0.084800
     44 HN61        9.7450    5.4240    6.9750 hn        1 AAT      0.461800
     45 HN62        9.4450    6.6820    5.8500 hn        1 AAT      0.461800
     46 HC2         5.3930    5.5870    3.9150 h5        1 AAT      0.049100
     47 H111        2.8880   -0.5280   -0.4470 hc        1 AAT      0.064700
     48 H112        2.7420   -1.8690    0.7640 hc        1 AAT      0.064700
     49 H121        5.2180   -2.2260    0.7000 hc        1 AAT      0.071700
     50 H122        5.4060   -0.8330   -0.4450 hc        1 AAT      0.071700
     51 H131        3.9280   -2.0150   -2.1140 hc        1 AAT      0.058700
     52 H132        3.7640   -3.4120   -0.9740 hc        1 AAT      0.058700
     53 H141        6.4310   -2.3150   -2.1190 hc        1 AAT      0.074700
     54 H142        6.2600   -3.7250   -0.9890 hc        1 AAT      0.074700
     55 H151        4.9590   -3.4920   -3.8210 hx        1 AAT      0.115200
     56 H152        4.7970   -4.9190   -2.6800 hx        1 AAT      0.115200
     57 H161        7.3450   -3.9320   -3.8980 hn        1 AAT      0.466133
     58 H162        6.4730   -5.2770   -4.3660 hn        1 AAT      0.466133
     59 HN3        -0.6110    0.7110    2.5800 hn        1 AAT      0.463467
     60 H163        7.1990   -5.2280   -2.8620 hn        1 AAT      0.466133
@<TRIPOS>BOND
     1    1    2 1   
     2    1   30 1   
     3    1   31 1   
     4    1   59 1   
     5    2    3 1   
     6    2   32 1   
     7    2   33 1   
     8    3    4 2   
     9    3   34 1   
    10    4    5 1   
    11    4   24 1   
    12    5    6 1   
    13    6    7 1   
    14    6   35 1   
    15    6   36 1   
    16    7    8 1   
    17    7    9 1   
    18    7   37 1   
    19    8   13 1   
    20    9   10 1   
    21    9   11 1   
    22    9   38 1   
    23   10   39 1   
    24   11   12 1   
    25   11   13 1   
    26   11   40 1   
    27   12   41 1   
    28   13   14 1   
    29   13   42 1   
    30   14   15 1   
    31   14   23 1   
    32   15   16 2   
    33   15   43 1   
    34   16   17 1   
    35   17   18 ar  
    36   17   23 ar  
    37   18   19 1   
    38   18   20 ar  
    39   19   44 1   
    40   19   45 1   
    41   20   21 ar  
    42   21   22 ar  
    43   21   46 1   
    44   22   23 ar  
    45   24   25 1   
    46   24   47 1   
    47   24   48 1   
    48   25   26 1   
    49   25   49 1   
    50   25   50 1   
    51   26   27 1   
    52   26   51 1   
    53   26   52 1   
    54   27   28 1   
    55   27   53 1   
    56   27   54 1   
    57   28   29 1   
    58   28   55 1   
    59   28   56 1   
    60   29   57 1   
    61   29   58 1   
    62   29   60 1   
@<TRIPOS>SUBSTRUCTURE
     1 AAT         1 TEMP              0 ****  ****    0 ROOT
