@<TRIPOS>MOLECULE
AAT
   58    55     1     0     0
SMALL
bcc


@<TRIPOS>ATOM
      1 N          -4.1040    3.3670   -1.6040 n3        1 AAT     -0.345000
      2 CA         -3.0180    2.4510   -1.3020 c3        1 AAT     -0.060000
      3 CB         -3.0220    2.1370    0.1970 c2        1 AAT     -0.141000
      4 CG         -1.8480    1.7650    0.8260 c1        1 AAT     -0.271000
      5 SD         -0.2850    1.6410   -0.1430 s         1 AAT      0.195000
      6 C5'        -0.1830    0.0100   -0.8640 c3        1 AAT     -0.329000
      7 C4'         1.2400   -0.3980   -0.9940 c3        1 AAT      0.033000
      8 O4'         1.3550   -1.6870   -0.8190 os        1 AAT     -0.262000
      9 C3'         1.7790   -0.0910   -2.5160 c3        1 AAT     -0.034000
     10 O3'         2.2080    1.2810   -2.6190 oh        1 AAT     -0.311000
     11 C2'         2.7730   -0.8710   -2.7050 c3        1 AAT     -0.031000
     12 O2'         4.0410   -0.1920   -2.3250 oh        1 AAT     -0.306000
     13 C1'         2.5080   -2.1120   -1.7570 c3        1 AAT      0.123000
     14 N9          2.1680   -3.1600   -2.4590 n3        1 AAT     -0.199000
     15 C8          0.8710   -3.5610   -2.4690 c1        1 AAT     -0.062000
     16 N7          0.8070   -4.7870   -3.1020 n2        1 AAT     -0.110000
     17 C5          2.0730   -5.1360   -3.4780 c1        1 AAT     -0.249000
     18 C6          2.5660   -6.2240   -4.2100 c1        1 AAT      0.243000
     19 N6          1.6270   -7.2090   -4.6460 n3        1 AAT     -0.357000
     20 N1          3.8610   -6.2830   -4.5210 n1        1 AAT     -0.267000
     21 C2          4.7050   -5.2820   -4.1280 c1        1 AAT      0.028000
     22 N3          4.2150   -4.2020   -3.4010 n1        1 AAT     -0.205000
     23 C4          2.9200   -4.1380   -3.0850 c1        1 AAT      0.086000
     24 C11        -1.8490    1.4440    2.3540 c3        1 AAT     -0.118000
     25 C12        -1.9130    2.7510    3.1440 c3        1 AAT     -0.156000
     26 C13        -1.8470    2.4510    4.6470 c3        1 AAT     -0.157000
     27 C14        -2.0620    3.7560    5.4450 c3        1 AAT     -0.161000
     28 C15        -1.8470    3.4910    6.8890 c3        1 AAT     -0.078000
     29 N16        -2.1410    4.6980    7.6490 n3        1 AAT     -0.349000
     30 HN1        -3.7460    4.2370   -1.7940 hn        1 AAT      0.149000
     31 HN2        -4.5580    3.0650   -2.3230 hn        1 AAT      0.149000
     32 HCA1       -2.1490    2.8730   -1.5480 h1        1 AAT      0.077500
     33 HCA2       -3.1320    1.6430   -1.7970 h1        1 AAT      0.077500
     34 HCB        -3.8240    2.1990    0.6910 ha        1 AAT      0.148000
     35 H5'1       -0.5800    0.0170   -1.7110 h1        1 AAT      0.121500
     36 H5'2       -0.6580   -0.6290   -0.2840 h1        1 AAT      0.121500
     37 H4'C        1.8000    0.0880   -0.3300 h1        1 AAT      0.153000
     38 H3'C        1.0930   -0.2700   -3.1480 h1        1 AAT      0.109000
     39 H3'O        1.9860    1.6190   -3.4820 ho        1 AAT      0.218000
     40 H2'C        2.8080   -1.1610   -3.6520 h1        1 AAT      0.142000
     41 H2'O        4.6240   -0.1780   -3.0620 ho        1 AAT      0.223000
     42 H1'C        3.3030   -2.3040   -1.2360 h2        1 AAT      0.171000
     43 HC8         0.0950   -3.0530   -2.0830 DU        1 AAT      0.197000
     44 HN61        1.9240   -7.9980   -5.0020 hn        1 AAT      0.244000
     45 HN62        0.7340   -7.0360   -4.6060 hn        1 AAT      0.244000
     46 HC2         5.6460   -5.3270   -4.3540 ha        1 AAT      0.191000
     47 H111       -1.0360    0.9670    2.5830 hc        1 AAT      0.093500
     48 H112       -2.6570    0.8690    2.5830 hc        1 AAT      0.093500
     49 H121       -1.1360    3.3410    2.8800 hc        1 AAT      0.088000
     50 H122       -2.7570    3.2120    2.9450 hc        1 AAT      0.088000
     51 H131       -0.9720    2.0730    4.8680 hc        1 AAT      0.080500
     52 H132       -2.5750    1.7840    4.8900 hc        1 AAT      0.080500
     53 H141       -3.0240    4.0920    5.3000 hc        1 AAT      0.087000
     54 H142       -1.4110    4.4560    5.1290 hc        1 AAT      0.087000
     55 H151       -2.4790    2.7170    7.1970 h1        1 AAT      0.063000
     56 H152       -0.9050    3.2280    7.0400 h1        1 AAT      0.063000
     57 H161       -1.3700    5.0890    7.9020 hn        1 AAT      0.143500
     58 H162       -2.6410    4.4780    8.4020 hn        1 AAT      0.143500
@<TRIPOS>BOND
     1    1    2 1   
     2    1   30 1   
     3    1   31 1   
     4    2    3 1   
     5    2   32 1   
     6    2   33 1   
     7    3    4 1   
     8    3   34 1   
     9    4   24 1   
    10    5    6 1   
    11    6    7 1   
    12    6   35 1   
    13    6   36 1   
    14    7    8 1   
    15    7    9 1   
    16    7   37 1   
    17    8   13 1   
    18    9   10 1   
    19    9   11 1   
    20    9   38 1   
    21   10   39 1   
    22   11   12 1   
    23   11   13 1   
    24   11   40 1   
    25   12   41 1   
    26   13   14 1   
    27   13   42 1   
    28   14   15 1   
    29   14   23 1   
    30   15   16 1   
    31   16   17 1   
    32   17   23 1   
    33   18   19 1   
    34   18   20 1   
    35   19   44 1   
    36   19   45 1   
    37   21   22 1   
    38   21   46 1   
    39   24   25 1   
    40   24   47 1   
    41   24   48 1   
    42   25   26 1   
    43   25   49 1   
    44   25   50 1   
    45   26   27 1   
    46   26   51 1   
    47   26   52 1   
    48   27   28 1   
    49   27   53 1   
    50   27   54 1   
    51   28   29 1   
    52   28   55 1   
    53   28   56 1   
    54   29   57 1   
    55   29   58 1   
@<TRIPOS>SUBSTRUCTURE
     1 AAT         1 TEMP              0 ****  ****    0 ROOT
