@<TRIPOS>MOLECULE
AAT
   58    60     1     0     0
SMALL
bcc


@<TRIPOS>ATOM
      1 N          -1.6500   -3.8050    3.6340 n3        1 AAT     -0.915800
      2 CA         -0.8600   -2.6120    3.8460 c3        1 AAT      0.199000
      3 CB         -1.1370   -1.5330    2.8510 c2        1 AAT     -0.190200
      4 CG         -0.9990   -0.2230    3.0960 c2        1 AAT     -0.025600
      5 SD         -1.2740    1.0390    1.9950 ss        1 AAT     -0.190700
      6 C5'        -1.7860    0.2740    0.4870 c3        1 AAT     -0.067300
      7 C4'        -2.1700    1.3770   -0.4810 c3        1 AAT      0.110100
      8 O4'        -1.0110    1.8620   -1.1790 os        1 AAT     -0.400600
      9 C3'        -3.1910    0.8950   -1.5400 c3        1 AAT      0.131100
     10 O3'        -4.3140    1.7380   -1.5900 oh        1 AAT     -0.572800
     11 C2'        -2.4000    0.8270   -2.8650 c3        1 AAT      0.083100
     12 O2'        -3.0110    1.6890   -3.7980 oh        1 AAT     -0.592800
     13 C1'        -0.9760    1.3790   -2.5230 c3        1 AAT      0.222800
     14 N9          0.0800    0.4060   -2.6840 na        1 AAT     -0.294000
     15 C8          1.1100    0.0620   -1.7740 cc        1 AAT      0.422700
     16 N7          2.0010   -0.8030   -2.2790 nd        1 AAT     -0.546100
     17 C5          1.5710   -1.0500   -3.5920 ca        1 AAT     -0.228200
     18 C6          2.0860   -1.8700   -4.6520 ca        1 AAT      0.767200
     19 N6          3.2090   -2.6260   -4.4560 nh        1 AAT     -0.958500
     20 N1          1.4230   -1.8840   -5.8600 nb        1 AAT     -0.796000
     21 C2          0.3060   -1.1190   -5.9750 ca        1 AAT      0.691900
     22 N3         -0.2960   -0.3090   -5.0710 nb        1 AAT     -0.763000
     23 C4          0.3600   -0.2880   -3.8710 ca        1 AAT      0.450800
     24 C11        -0.5920    0.3560    4.4070 c3        1 AAT     -0.034200
     25 C12         0.8830    0.1450    4.6960 c3        1 AAT     -0.076400
     26 C13         1.2600    0.7350    6.0390 c3        1 AAT     -0.079400
     27 C14         2.7300    0.5270    6.3300 c3        1 AAT     -0.082400
     28 C15         3.0880    1.1240    7.6900 c3        1 AAT      0.159800
     29 N16         4.4910    1.0130    8.0120 n3        1 AAT     -0.915800
     30 HN1        -1.4940   -4.4570    4.3770 hn        1 AAT      0.350800
     31 HN2        -2.6250   -3.5880    3.5860 hn        1 AAT      0.350800
     32 HCA1        0.2270   -2.9100    3.7400 h1        1 AAT      0.034700
     33 HCA2       -0.9840   -2.1970    4.8930 h1        1 AAT      0.034700
     34 HCB        -1.4430   -1.8890    1.8520 ha        1 AAT      0.134000
     35 H5'1       -0.9650   -0.3510    0.0570 h1        1 AAT      0.078700
     36 H5'2       -2.6640   -0.3920    0.6750 h1        1 AAT      0.078700
     37 H4'C       -2.5670    2.2750    0.0730 h1        1 AAT      0.106700
     38 H3'C       -3.6090   -0.1150   -1.2780 h1        1 AAT      0.095700
     39 H3'O       -4.0670    2.5460   -2.0620 ho        1 AAT      0.425000
     40 H2'C       -2.3710   -0.2250   -3.2510 h1        1 AAT      0.086700
     41 H2'O       -2.6730    1.4420   -4.6700 ho        1 AAT      0.435000
     42 H1'C       -0.7350    2.2840   -3.1620 h2        1 AAT      0.103700
     43 HC8         1.1300    0.4980   -0.7650 h5        1 AAT      0.090800
     44 HN61        3.5870   -3.1720   -5.1890 hn        1 AAT      0.451300
     45 HN62        3.6810   -2.5660   -3.5890 hn        1 AAT      0.451300
     46 HC2        -0.1860   -1.1690   -6.9710 h5        1 AAT      0.051100
     47 H111       -1.2060   -0.1050    5.2280 hc        1 AAT      0.057200
     48 H112       -0.8120    1.4610    4.4200 hc        1 AAT      0.057200
     49 H121        1.4970    0.6240    3.8880 hc        1 AAT      0.048200
     50 H122        1.1140   -0.9530    4.6850 hc        1 AAT      0.048200
     51 H131        0.6430    0.2580    6.8460 hc        1 AAT      0.040700
     52 H132        1.0250    1.8320    6.0470 hc        1 AAT      0.040700
     53 H141        3.3470    1.0100    5.5270 hc        1 AAT      0.047700
     54 H142        2.9660   -0.5700    6.3180 hc        1 AAT      0.047700
     55 H151        2.4250    0.6390    8.4680 h1        1 AAT      0.023700
     56 H152        2.8340    2.2230    7.6810 h1        1 AAT      0.023700
     57 H161        4.6550    1.3020    8.9560 hn        1 AAT      0.348300
     58 H162        4.8160    0.0740    7.8940 hn        1 AAT      0.348300
@<TRIPOS>BOND
     1    1    2 1   
     2    1   30 1   
     3    1   31 1   
     4    2    3 1   
     5    2   32 1   
     6    2   33 1   
     7    3    4 2   
     8    3   34 1   
     9    4    5 1   
    10    4   24 1   
    11    5    6 1   
    12    6    7 1   
    13    6   35 1   
    14    6   36 1   
    15    7    8 1   
    16    7    9 1   
    17    7   37 1   
    18    8   13 1   
    19    9   10 1   
    20    9   11 1   
    21    9   38 1   
    22   10   39 1   
    23   11   12 1   
    24   11   13 1   
    25   11   40 1   
    26   12   41 1   
    27   13   14 1   
    28   13   42 1   
    29   14   15 1   
    30   14   23 1   
    31   15   16 2   
    32   15   43 1   
    33   16   17 1   
    34   17   18 ar  
    35   17   23 ar  
    36   18   19 1   
    37   18   20 ar  
    38   19   44 1   
    39   19   45 1   
    40   20   21 ar  
    41   21   22 ar  
    42   21   46 1   
    43   22   23 ar  
    44   24   25 1   
    45   24   47 1   
    46   24   48 1   
    47   25   26 1   
    48   25   49 1   
    49   25   50 1   
    50   26   27 1   
    51   26   51 1   
    52   26   52 1   
    53   27   28 1   
    54   27   53 1   
    55   27   54 1   
    56   28   29 1   
    57   28   55 1   
    58   28   56 1   
    59   29   57 1   
    60   29   58 1   
@<TRIPOS>SUBSTRUCTURE
     1 AAT         1 TEMP              0 ****  ****    0 ROOT
