@<TRIPOS>MOLECULE
AAT
   60    62     1     0     0
SMALL
bcc


@<TRIPOS>ATOM
      1 N           0.2960    0.4330    2.6470 nz        1 AAT     -0.841600
      2 CA          1.0550    0.3350    1.3540 c3        1 AAT      0.186000
      3 CB          2.4980    0.5470    1.5990 c2        1 AAT     -0.331200
      4 CG          3.5140   -0.2150    1.1470 c2        1 AAT      0.044400
      5 SD          5.1170    0.0090    1.5950 ss        1 AAT     -0.084700
      6 C5'         5.1620    1.2270    2.8690 c3        1 AAT     -0.088300
      7 C4'         4.4570    0.8310    4.1580 c3        1 AAT      0.114100
      8 O4'         5.4200    0.6940    5.2060 os        1 AAT     -0.401600
      9 C3'         3.3780    1.8400    4.6170 c3        1 AAT      0.127100
     10 O3'         2.1120    1.2070    4.6700 oh        1 AAT     -0.668800
     11 C2'         3.8730    2.3980    5.9680 c3        1 AAT      0.094100
     12 O2'         2.9630    2.0150    6.9730 oh        1 AAT     -0.612800
     13 C1'         5.2490    1.6970    6.2210 c3        1 AAT      0.235800
     14 N9          6.3620    2.6090    6.2170 na        1 AAT     -0.315000
     15 C8          7.6590    2.4100    5.6640 cc        1 AAT      0.406700
     16 N7          8.5460    3.3330    6.0470 nd        1 AAT     -0.517100
     17 C5          7.8490    4.1780    6.9270 ca        1 AAT     -0.236200
     18 C6          8.2380    5.3370    7.6860 ca        1 AAT      0.778200
     19 N6          9.5020    5.8350    7.5940 nv        1 AAT     -0.938500
     20 N1          7.2930    5.9370    8.4970 nb        1 AAT     -0.778000
     21 C2          6.0510    5.4010    8.5290 ca        1 AAT      0.709900
     22 N3          5.5450    4.3250    7.8690 nb        1 AAT     -0.788000
     23 C4          6.4730    3.7270    7.0680 ca        1 AAT      0.460800
     24 C11         3.3090   -1.3470    0.1950 c3        1 AAT     -0.048200
     25 C12         4.6100   -1.8990   -0.3600 c3        1 AAT     -0.092400
     26 C13         4.3500   -2.9990   -1.3700 c3        1 AAT     -0.074400
     27 C14         5.6620   -3.5260   -1.9240 c3        1 AAT     -0.110400
     28 C15         5.3810   -4.6210   -2.9450 c3        1 AAT      0.099800
     29 N16         6.6250   -5.1890   -3.5440 nz        1 AAT     -0.838600
     30 HN1         0.6190   -0.2920    3.2970 hn        1 AAT      0.464467
     31 HN2         0.4930    1.3390    3.0990 hn        1 AAT      0.464467
     32 HCA1        0.6460    1.1340    0.6660 hx        1 AAT      0.102700
     33 HCA2        0.8420   -0.6780    0.9070 hx        1 AAT      0.102700
     34 HCB         2.7240    1.4350    2.2200 ha        1 AAT      0.152000
     35 H5'1        4.8050    2.2170    2.4970 h1        1 AAT      0.111200
     36 H5'2        6.2670    1.3290    3.0720 h1        1 AAT      0.111200
     37 H4'C        4.0030   -0.1960    4.0500 h1        1 AAT      0.080700
     38 H3'C        3.2500    2.6830    3.8830 h1        1 AAT      0.083700
     39 H3'O        1.9800    0.8500    5.5610 ho        1 AAT      0.457000
     40 H2'C        3.9600    3.5170    5.9130 h1        1 AAT      0.107700
     41 H2'O        3.1300    2.5820    7.7410 ho        1 AAT      0.462000
     42 H1'C        5.2270    1.1230    7.2000 h2        1 AAT      0.113700
     43 HC8         7.8540    1.5650    4.9950 h5        1 AAT      0.074800
     44 HN61       10.1730    5.3540    7.0460 hn        1 AAT      0.459300
     45 HN62        9.7830    6.6140    8.1410 hn        1 AAT      0.459300
     46 HC2         5.3370    5.9240    9.2050 h5        1 AAT      0.062100
     47 H111        2.6660   -0.9940   -0.6590 hc        1 AAT      0.066700
     48 H112        2.7480   -2.1690    0.7200 hc        1 AAT      0.066700
     49 H121        5.2380   -2.3030    0.4810 hc        1 AAT      0.071700
     50 H122        5.1920   -1.0710   -0.8490 hc        1 AAT      0.071700
     51 H131        3.7170   -2.6020   -2.2070 hc        1 AAT      0.059200
     52 H132        3.7810   -3.8340   -0.8820 hc        1 AAT      0.059200
     53 H141        6.2300   -2.6820   -2.4010 hc        1 AAT      0.074700
     54 H142        6.2880   -3.9260   -1.0810 hc        1 AAT      0.074700
     55 H151        4.7520   -4.2110   -3.7890 hx        1 AAT      0.115700
     56 H152        4.8190   -5.4710   -2.4570 hx        1 AAT      0.115700
     57 H161        7.1570   -4.4520   -4.0220 hn        1 AAT      0.466467
     58 H162        6.3860   -5.9200   -4.2230 hn        1 AAT      0.466467
     59 HN3        -0.7080    0.3360    2.4860 hn        1 AAT      0.464467
     60 H163        7.2180   -5.5960   -2.8130 hn        1 AAT      0.466467
@<TRIPOS>BOND
     1    1    2 1   
     2    1   30 1   
     3    1   31 1   
     4    1   59 1   
     5    2    3 1   
     6    2   32 1   
     7    2   33 1   
     8    3    4 2   
     9    3   34 1   
    10    4    5 1   
    11    4   24 1   
    12    5    6 1   
    13    6    7 1   
    14    6   35 1   
    15    6   36 1   
    16    7    8 1   
    17    7    9 1   
    18    7   37 1   
    19    8   13 1   
    20    9   10 1   
    21    9   11 1   
    22    9   38 1   
    23   10   39 1   
    24   11   12 1   
    25   11   13 1   
    26   11   40 1   
    27   12   41 1   
    28   13   14 1   
    29   13   42 1   
    30   14   15 1   
    31   14   23 1   
    32   15   16 2   
    33   15   43 1   
    34   16   17 1   
    35   17   18 ar  
    36   17   23 ar  
    37   18   19 1   
    38   18   20 ar  
    39   19   44 1   
    40   19   45 1   
    41   20   21 ar  
    42   21   22 ar  
    43   21   46 1   
    44   22   23 ar  
    45   24   25 1   
    46   24   47 1   
    47   24   48 1   
    48   25   26 1   
    49   25   49 1   
    50   25   50 1   
    51   26   27 1   
    52   26   51 1   
    53   26   52 1   
    54   27   28 1   
    55   27   53 1   
    56   27   54 1   
    57   28   29 1   
    58   28   55 1   
    59   28   56 1   
    60   29   57 1   
    61   29   58 1   
    62   29   60 1   
@<TRIPOS>SUBSTRUCTURE
     1 AAT         1 TEMP              0 ****  ****    0 ROOT
