@<TRIPOS>MOLECULE
AAU
   86    90     1     0     0
SMALL
bcc


@<TRIPOS>ATOM
      1 C1          0.0520    0.1630   -0.3120 c3        1 AAU      0.120700
      2 O2          1.4550    0.1290   -0.0740 os        1 AAU     -0.350900
      3 C3          1.8410   -0.0300    1.2480 ca        1 AAU      0.037100
      4 C4          0.9680   -0.1670    2.3250 ca        1 AAU     -0.145000
      5 C5          1.4830   -0.3250    3.6180 ca        1 AAU     -0.118300
      6 C6          0.5400   -0.4100    4.7860 c3        1 AAU      0.155300
      7 N7         -0.1150   -1.6970    4.9670 n         1 AAU     -0.472800
      8 C8          0.2760   -2.4980    6.1100 c3        1 AAU      0.095700
      9 C9          1.4310   -3.4910    5.8500 c3        1 AAU     -0.059100
     10 C10         2.6870   -3.0920    6.5430 ca        1 AAU     -0.080300
     11 C11         2.7350   -3.0660    7.9430 ca        1 AAU     -0.132000
     12 C12         3.9150   -2.7280    8.6020 ca        1 AAU     -0.130000
     13 C13         5.0610   -2.4200    7.8690 ca        1 AAU     -0.131000
     14 C14         5.0230   -2.4540    6.4760 ca        1 AAU     -0.130000
     15 C15         3.8420   -2.7880    5.8140 ca        1 AAU     -0.132000
     16 C16        -0.9340   -3.2140    6.7730 c3        1 AAU      0.105100
     17 O17        -0.5540   -3.6940    8.0540 oh        1 AAU     -0.584800
     18 C18        -1.4310   -4.4550    6.0100 c3        1 AAU      0.066000
     19 N19        -1.2420   -4.3850    4.5690 n         1 AAU     -0.368400
     20 N20        -1.6990   -3.3060    3.8650 n         1 AAU     -0.282400
     21 C21        -3.1190   -3.3530    3.4590 c3        1 AAU      0.125300
     22 C22        -4.1460   -3.1590    4.5320 ca        1 AAU     -0.133300
     23 C23        -4.5020   -1.8690    4.9260 ca        1 AAU     -0.108000
     24 C24        -5.4940   -1.6730    5.8870 ca        1 AAU     -0.196000
     25 C25        -6.1390   -2.7720    6.4580 ca        1 AAU      0.112100
     26 O26        -7.1240   -2.6560    7.4080 oh        1 AAU     -0.473100
     27 C27        -5.7800   -4.0870    6.0600 ca        1 AAU      0.096100
     28 O28        -6.4760   -5.1030    6.6820 os        1 AAU     -0.302900
     29 C29        -6.1080   -6.4270    6.3120 c3        1 AAU      0.109700
     30 C30        -4.7850   -4.2690    5.1000 ca        1 AAU     -0.163000
     31 C31        -1.2080   -1.9710    4.1390 c         1 AAU      0.786500
     32 O32        -1.7470   -1.0340    3.4970 o         1 AAU     -0.679500
     33 C33        -0.3110   -5.2620    3.9490 c         1 AAU      0.679100
     34 O34         0.1760   -6.1790    4.6330 o         1 AAU     -0.590100
     35 C35        -0.0120   -5.0980    2.4760 c3        1 AAU     -0.132400
     36 C36         0.9200   -6.1950    1.9930 c3        1 AAU     -0.029100
     37 C37         1.2030   -6.0590    0.5390 ca        1 AAU     -0.119300
     38 C38         2.0220   -5.0190    0.0750 ca        1 AAU     -0.090000
     39 C39         2.3070   -4.8840   -1.2780 ca        1 AAU     -0.183000
     40 C40         1.7630   -5.8110   -2.1840 ca        1 AAU      0.122100
     41 O41         2.0760   -5.6270   -3.5120 oh        1 AAU     -0.497100
     42 C42         0.9460   -6.8570   -1.7370 ca        1 AAU     -0.183000
     43 C43         0.6730   -6.9730   -0.3760 ca        1 AAU     -0.090000
     44 C44         2.8630   -0.3430    3.8230 ca        1 AAU     -0.117000
     45 C45         3.7450   -0.2020    2.7530 ca        1 AAU     -0.148000
     46 C46         3.2410   -0.0460    1.4570 ca        1 AAU      0.116100
     47 O47         4.1510    0.0850    0.4370 oh        1 AAU     -0.496100
     48 H11A       -0.4230   -0.7980    0.0020 h1        1 AAU      0.048033
     49 H12A       -0.0190    0.2970   -1.4210 h1        1 AAU      0.048033
     50 H13A       -0.4160    1.0250    0.2230 h1        1 AAU      0.048033
     51 H4         -0.1250   -0.1520    2.1780 ha        1 AAU      0.169000
     52 H61         1.1090   -0.1630    5.7280 h1        1 AAU      0.065700
     53 H62        -0.2610    0.3770    4.6460 h1        1 AAU      0.065700
     54 H8          0.6450   -1.7680    6.9020 h1        1 AAU      0.057700
     55 H91         1.1290   -4.5050    6.2370 hc        1 AAU      0.076200
     56 H92         1.6160   -3.6050    4.7490 hc        1 AAU      0.076200
     57 H11         1.8340   -3.3340    8.5180 ha        1 AAU      0.137000
     58 H12         3.9440   -2.7130    9.7010 ha        1 AAU      0.132000
     59 H13         5.9940   -2.1570    8.3890 ha        1 AAU      0.132000
     60 H14         5.9270   -2.2200    5.8950 ha        1 AAU      0.132000
     61 H15         3.8200   -2.8170    4.7140 ha        1 AAU      0.137000
     62 H16        -1.7800   -2.4770    6.8860 h1        1 AAU      0.048700
     63 H17        -0.4450   -2.9210    8.6220 ho        1 AAU      0.405000
     64 H181       -0.9000   -5.3700    6.4040 h1        1 AAU      0.091700
     65 H182       -2.5340   -4.5730    6.2180 h1        1 AAU      0.091700
     66 H211       -3.2830   -4.3490    2.9560 h1        1 AAU      0.082700
     67 H212       -3.2370   -2.5410    2.6820 h1        1 AAU      0.082700
     68 H23        -3.9930   -1.0010    4.4730 ha        1 AAU      0.160000
     69 H24        -5.7740   -0.6540    6.1920 ha        1 AAU      0.139000
     70 H26        -7.2820   -1.7110    7.5530 ho        1 AAU      0.416000
     71 H291       -5.0360   -6.6230    6.5540 h1        1 AAU      0.045700
     72 H292       -6.3030   -6.6020    5.2260 h1        1 AAU      0.045700
     73 H293       -6.7790   -7.0650    6.9410 h1        1 AAU      0.045700
     74 H30        -4.4990   -5.2810    4.7790 ha        1 AAU      0.145000
     75 H351       -0.9720   -5.1270    1.8950 hc        1 AAU      0.079700
     76 H352        0.4610   -4.0940    2.3060 hc        1 AAU      0.079700
     77 H361        0.4600   -7.1960    2.2130 hc        1 AAU      0.064200
     78 H362        1.8810   -6.1470    2.5740 hc        1 AAU      0.064200
     79 H38         2.4460   -4.3000    0.7930 ha        1 AAU      0.136000
     80 H39         2.9470   -4.0720   -1.6500 ha        1 AAU      0.143000
     81 H41         1.6570   -6.3380   -4.0180 ho        1 AAU      0.418000
     82 H42         0.5280   -7.5800   -2.4510 ha        1 AAU      0.143000
     83 H43         0.0340   -7.7960   -0.0210 ha        1 AAU      0.136000
     84 H44         3.2690   -0.4710    4.8400 ha        1 AAU      0.142000
     85 H45         4.8330   -0.2090    2.9090 ha        1 AAU      0.152000
     86 H47         3.6600    0.2070   -0.3910 ho        1 AAU      0.438000
@<TRIPOS>BOND
     1    1    2 1   
     2    1   48 1   
     3    1   49 1   
     4    1   50 1   
     5    2    3 1   
     6    3    4 ar  
     7    3   46 ar  
     8    4    5 ar  
     9    4   51 1   
    10    5    6 1   
    11    5   44 ar  
    12    6    7 1   
    13    6   52 1   
    14    6   53 1   
    15    7    8 1   
    16    7   31 1   
    17    8    9 1   
    18    8   16 1   
    19    8   54 1   
    20    9   10 1   
    21    9   55 1   
    22    9   56 1   
    23   10   11 ar  
    24   10   15 ar  
    25   11   12 ar  
    26   11   57 1   
    27   12   13 ar  
    28   12   58 1   
    29   13   14 ar  
    30   13   59 1   
    31   14   15 ar  
    32   14   60 1   
    33   15   61 1   
    34   16   17 1   
    35   16   18 1   
    36   16   62 1   
    37   17   63 1   
    38   18   19 1   
    39   18   64 1   
    40   18   65 1   
    41   19   20 1   
    42   19   33 1   
    43   20   21 1   
    44   20   31 1   
    45   21   22 1   
    46   21   66 1   
    47   21   67 1   
    48   22   23 ar  
    49   22   30 ar  
    50   23   24 ar  
    51   23   68 1   
    52   24   25 ar  
    53   24   69 1   
    54   25   26 1   
    55   25   27 ar  
    56   26   70 1   
    57   27   28 1   
    58   27   30 ar  
    59   28   29 1   
    60   29   71 1   
    61   29   72 1   
    62   29   73 1   
    63   30   74 1   
    64   31   32 2   
    65   33   34 2   
    66   33   35 1   
    67   35   36 1   
    68   35   75 1   
    69   35   76 1   
    70   36   37 1   
    71   36   77 1   
    72   36   78 1   
    73   37   38 ar  
    74   37   43 ar  
    75   38   39 ar  
    76   38   79 1   
    77   39   40 ar  
    78   39   80 1   
    79   40   41 1   
    80   40   42 ar  
    81   41   81 1   
    82   42   43 ar  
    83   42   82 1   
    84   43   83 1   
    85   44   45 ar  
    86   44   84 1   
    87   45   46 ar  
    88   45   85 1   
    89   46   47 1   
    90   47   86 1   
@<TRIPOS>SUBSTRUCTURE
     1 AAU         1 TEMP              0 ****  ****    0 ROOT
