@<TRIPOS>MOLECULE
AAU
   86    90     1     0     0
SMALL
bcc


@<TRIPOS>ATOM
      1 C1          0.0790    0.0780   -0.3370 c3        1 AAU      0.109700
      2 O2          1.4830    0.0340   -0.1040 os        1 AAU     -0.305900
      3 C3          1.8700   -0.0810    1.2160 ca        1 AAU      0.095100
      4 C4          0.9970   -0.1980    2.2960 ca        1 AAU     -0.161000
      5 C5          1.5010   -0.3180    3.5990 ca        1 AAU     -0.112300
      6 C6          0.5480   -0.3830    4.7600 c3        1 AAU      0.154300
      7 N7         -0.1150   -1.6640    4.9490 n         1 AAU     -0.473800
      8 C8          0.2720   -2.4600    6.0980 c3        1 AAU      0.095700
      9 C9          1.4350   -3.4450    5.8470 c3        1 AAU     -0.059100
     10 C10         2.6810   -3.0420    6.5560 ca        1 AAU     -0.078300
     11 C11         2.7130   -3.0170    7.9570 ca        1 AAU     -0.131500
     12 C12         3.8830   -2.6750    8.6300 ca        1 AAU     -0.130000
     13 C13         5.0370   -2.3620    7.9110 ca        1 AAU     -0.131000
     14 C14         5.0160   -2.3950    6.5180 ca        1 AAU     -0.130000
     15 C15         3.8440   -2.7330    5.8410 ca        1 AAU     -0.131500
     16 C16        -0.9380   -3.1830    6.7530 c3        1 AAU      0.105100
     17 O17        -0.5660   -3.6540    8.0390 oh        1 AAU     -0.585800
     18 C18        -1.4170   -4.4300    5.9890 c3        1 AAU      0.065000
     19 N19        -1.2370   -4.3520    4.5460 n         1 AAU     -0.368400
     20 N20        -1.7050   -3.2720    3.8520 n         1 AAU     -0.281400
     21 C21        -3.1310   -3.3180    3.4660 c3        1 AAU      0.125300
     22 C22        -4.1410   -3.1410    4.5570 ca        1 AAU     -0.137300
     23 C23        -4.4780   -1.8560    4.9890 ca        1 AAU     -0.111000
     24 C24        -5.4500   -1.6660    5.9690 ca        1 AAU     -0.144000
     25 C25        -6.0970   -2.7760    6.5250 ca        1 AAU      0.121100
     26 O26        -7.0450   -2.5360    7.4880 oh        1 AAU     -0.493100
     27 C27        -5.7570   -4.0790    6.0870 ca        1 AAU      0.036100
     28 O28        -6.4590   -5.0990    6.7090 os        1 AAU     -0.348900
     29 C29        -6.1770   -6.4170    6.2550 c3        1 AAU      0.120700
     30 C30        -4.7820   -4.2580    5.1070 ca        1 AAU     -0.148000
     31 C31        -1.2120   -1.9370    4.1250 c         1 AAU      0.785500
     32 O32        -1.7510   -1.0000    3.4840 o         1 AAU     -0.675500
     33 C33        -0.3000   -5.2160    3.9170 c         1 AAU      0.680100
     34 O34         0.2090   -6.1250    4.5970 o         1 AAU     -0.591100
     35 C35        -0.0230   -5.0510    2.4400 c3        1 AAU     -0.132400
     36 C36         0.9420   -6.1170    1.9520 c3        1 AAU     -0.029100
     37 C37         1.1680   -6.0110    0.4860 ca        1 AAU     -0.121300
     38 C38         1.8540   -4.9100   -0.0460 ca        1 AAU     -0.090000
     39 C39         2.0840   -4.8040   -1.4120 ca        1 AAU     -0.182500
     40 C40         1.6220   -5.8230   -2.2620 ca        1 AAU      0.122100
     41 O41         1.8790   -5.6660   -3.6050 oh        1 AAU     -0.496100
     42 C42         0.9380   -6.9320   -1.7460 ca        1 AAU     -0.182500
     43 C43         0.7160   -7.0170   -0.3740 ca        1 AAU     -0.090000
     44 C44         2.8770   -0.3160    3.8170 ca        1 AAU     -0.116000
     45 C45         3.7630   -0.1940    2.7450 ca        1 AAU     -0.199000
     46 C46         3.2710   -0.0780    1.4430 ca        1 AAU      0.107100
     47 O47         4.0830    0.0400    0.3400 oh        1 AAU     -0.474100
     48 H11A       -0.3810    0.9550    0.1780 h1        1 AAU      0.046700
     49 H12A        0.0080    0.1900   -1.4490 h1        1 AAU      0.046700
     50 H13A       -0.4070   -0.8710   -0.0040 h1        1 AAU      0.046700
     51 H4         -0.0960   -0.1950    2.1440 ha        1 AAU      0.170000
     52 H61         1.1090   -0.1270    5.7040 h1        1 AAU      0.066200
     53 H62        -0.2480    0.4070    4.6020 h1        1 AAU      0.066200
     54 H8          0.6300   -1.7250    6.8900 h1        1 AAU      0.057700
     55 H91         1.6340   -3.5550    4.7480 hc        1 AAU      0.076200
     56 H92         1.1360   -4.4630    6.2270 hc        1 AAU      0.076200
     57 H11         1.8060   -3.2880    8.5210 ha        1 AAU      0.137500
     58 H12         3.8990   -2.6600    9.7290 ha        1 AAU      0.130500
     59 H13         5.9630   -2.0960    8.4430 ha        1 AAU      0.132000
     60 H14         5.9260   -2.1580    5.9480 ha        1 AAU      0.130500
     61 H15         3.8340   -2.7600    4.7410 ha        1 AAU      0.137500
     62 H16        -1.7920   -2.4530    6.8540 h1        1 AAU      0.050700
     63 H17        -0.4810   -2.8790    8.6080 ho        1 AAU      0.406000
     64 H181       -2.5170   -4.5670    6.2010 h1        1 AAU      0.091200
     65 H182       -0.8690   -5.3370    6.3780 h1        1 AAU      0.091200
     66 H211       -3.2980   -4.3090    2.9530 h1        1 AAU      0.083700
     67 H212       -3.2640   -2.4980    2.7010 h1        1 AAU      0.083700
     68 H23        -3.9670   -0.9840    4.5440 ha        1 AAU      0.160000
     69 H24        -5.7230   -0.6570    6.3120 ha        1 AAU      0.156000
     70 H26        -7.4220   -3.3870    7.7610 ho        1 AAU      0.438000
     71 H291       -5.1090   -6.6800    6.4520 h1        1 AAU      0.047367
     72 H292       -6.8610   -7.0550    6.8710 h1        1 AAU      0.047367
     73 H293       -6.4120   -6.5190    5.1680 h1        1 AAU      0.047367
     74 H30        -4.5140   -5.2670    4.7600 ha        1 AAU      0.143000
     75 H351        0.4120   -4.0320    2.2550 hc        1 AAU      0.079700
     76 H352       -0.9890   -5.1180    1.8740 hc        1 AAU      0.079700
     77 H361        1.9190   -6.0080    2.4960 hc        1 AAU      0.063200
     78 H362        0.5370   -7.1310    2.2170 hc        1 AAU      0.063200
     79 H38         2.2160   -4.1180    0.6280 ha        1 AAU      0.135500
     80 H39         2.6180   -3.9410   -1.8360 ha        1 AAU      0.144500
     81 H41         1.5180   -6.4350   -4.0690 ho        1 AAU      0.418000
     82 H42         0.5830   -7.7260   -2.4170 ha        1 AAU      0.144500
     83 H43         0.1810   -7.8890    0.0340 ha        1 AAU      0.135500
     84 H44         3.2780   -0.4130    4.8380 ha        1 AAU      0.141000
     85 H45         4.8470   -0.1870    2.9230 ha        1 AAU      0.135000
     86 H47         5.0000    0.0550    0.6520 ho        1 AAU      0.414000
@<TRIPOS>BOND
     1    1    2 1   
     2    1   48 1   
     3    1   49 1   
     4    1   50 1   
     5    2    3 1   
     6    3    4 ar  
     7    3   46 ar  
     8    4    5 ar  
     9    4   51 1   
    10    5    6 1   
    11    5   44 ar  
    12    6    7 1   
    13    6   52 1   
    14    6   53 1   
    15    7    8 1   
    16    7   31 1   
    17    8    9 1   
    18    8   16 1   
    19    8   54 1   
    20    9   10 1   
    21    9   55 1   
    22    9   56 1   
    23   10   11 ar  
    24   10   15 ar  
    25   11   12 ar  
    26   11   57 1   
    27   12   13 ar  
    28   12   58 1   
    29   13   14 ar  
    30   13   59 1   
    31   14   15 ar  
    32   14   60 1   
    33   15   61 1   
    34   16   17 1   
    35   16   18 1   
    36   16   62 1   
    37   17   63 1   
    38   18   19 1   
    39   18   64 1   
    40   18   65 1   
    41   19   20 1   
    42   19   33 1   
    43   20   21 1   
    44   20   31 1   
    45   21   22 1   
    46   21   66 1   
    47   21   67 1   
    48   22   23 ar  
    49   22   30 ar  
    50   23   24 ar  
    51   23   68 1   
    52   24   25 ar  
    53   24   69 1   
    54   25   26 1   
    55   25   27 ar  
    56   26   70 1   
    57   27   28 1   
    58   27   30 ar  
    59   28   29 1   
    60   29   71 1   
    61   29   72 1   
    62   29   73 1   
    63   30   74 1   
    64   31   32 2   
    65   33   34 2   
    66   33   35 1   
    67   35   36 1   
    68   35   75 1   
    69   35   76 1   
    70   36   37 1   
    71   36   77 1   
    72   36   78 1   
    73   37   38 ar  
    74   37   43 ar  
    75   38   39 ar  
    76   38   79 1   
    77   39   40 ar  
    78   39   80 1   
    79   40   41 1   
    80   40   42 ar  
    81   41   81 1   
    82   42   43 ar  
    83   42   82 1   
    84   43   83 1   
    85   44   45 ar  
    86   44   84 1   
    87   45   46 ar  
    88   45   85 1   
    89   46   47 1   
    90   47   86 1   
@<TRIPOS>SUBSTRUCTURE
     1 AAU         1 TEMP              0 ****  ****    0 ROOT
