@<TRIPOS>MOLECULE
AAU
   86    82     1     0     0
SMALL
bcc


@<TRIPOS>ATOM
      1 C1         -5.7500    0.1780   -3.2480 c3        1 AAU     -0.072000
      2 O2         -4.4010    0.6240   -3.0540 os        1 AAU     -0.235000
      3 C3         -3.9930    0.6650   -1.6700 c2        1 AAU     -0.004000
      4 C4         -2.8910   -0.0810   -1.2450 c2        1 AAU     -0.131000
      5 C5         -2.4550    0.0070    0.0880 c1        1 AAU     -0.099000
      6 C6         -1.3400   -0.9690    0.6110 c2        1 AAU     -0.009000
      7 N7         -0.4310   -1.2970   -0.4780 n         1 AAU     -0.286000
      8 C8         -0.4780   -2.2860   -1.1130 c3        1 AAU      0.014000
      9 C9         -1.9430   -3.1130   -0.7720 c3        1 AAU     -0.122000
     10 C10        -2.2750   -4.0790   -1.9400 c2        1 AAU     -0.081000
     11 C11        -2.1440   -5.4810   -1.7630 c2        1 AAU     -0.126000
     12 C12        -2.4520   -6.3560   -2.8210 c1        1 AAU     -0.129000
     13 C13        -2.8890   -5.8410   -4.0520 c1        1 AAU     -0.129000
     14 C14        -3.0180   -4.4510   -4.2260 c1        1 AAU     -0.129000
     15 C15        -2.7070   -3.5700   -3.1580 c1        1 AAU     -0.128000
     16 C16         0.6990   -3.1870   -0.7650 c3        1 AAU     -0.026000
     17 O17         0.3170   -4.0790    0.0310 oh        1 AAU     -0.339000
     18 C18         2.0540   -2.2370   -0.0010 c3        1 AAU     -0.088000
     19 N19         1.4420   -0.8720    0.7950 n         1 AAU     -0.247000
     20 N20         0.9050    0.0100   -0.0940 n         1 AAU     -0.217000
     21 C21         1.1590    1.4530   -0.0830 c3        1 AAU      0.008000
     22 C22         2.0030    1.8460   -1.3360 c2        1 AAU     -0.145000
     23 C23         1.4250    1.8000   -2.6100 c2        1 AAU     -0.088000
     24 C24         2.1600    2.2210   -3.7300 c1        1 AAU     -0.204000
     25 C25         3.4550    2.6810   -3.5760 c1        1 AAU      0.060000
     26 O26         4.1880    3.1310   -4.7040 oh        1 AAU     -0.246000
     27 C27         4.0400    2.7270   -2.2890 c1        1 AAU      0.024000
     28 O28         5.4290    3.0940   -2.1420 o         1 AAU     -0.213000
     29 C29         5.6930    4.4730   -2.3840 c3        1 AAU     -0.075000
     30 C30         3.3110    2.3100   -1.1780 c2        1 AAU     -0.097000
     31 C31         0.4620   -0.5240   -0.9230 c2        1 AAU      0.366000
     32 O32         1.1270   -0.8130   -1.9130 o         1 AAU     -0.322000
     33 C33         1.5440   -0.6350    2.2690 c2        1 AAU      0.321000
     34 O34         2.0900   -1.4440    2.9690 o         1 AAU     -0.367000
     35 C35         1.1070    0.7010    2.8550 c3        1 AAU     -0.166000
     36 C36         0.6630    0.4960    4.3610 c3        1 AAU     -0.113000
     37 C37         1.4370    1.4400    5.2500 c2        1 AAU     -0.114000
     38 C38         0.9530    2.7100    5.4890 c2        1 AAU     -0.091000
     39 C39         1.5610    3.5120    6.4230 c1        1 AAU     -0.208000
     40 C40         2.6580    3.0480    7.1230 c1        1 AAU      0.078000
     41 O41         3.2650    3.8620    8.1080 oh        1 AAU     -0.252000
     42 C42         3.1410    1.7830    6.8850 c1        1 AAU     -0.157000
     43 C43         2.5310    0.9780    5.9480 c1        1 AAU     -0.092000
     44 C44        -3.1250    0.8400    0.9860 c2        1 AAU     -0.131000
     45 C45        -4.2300    1.5890    0.5580 c1        1 AAU     -0.147000
     46 C46        -4.6630    1.5010   -0.7660 c1        1 AAU      0.068000
     47 O47        -5.7720    2.2730   -1.2000 oh        1 AAU     -0.252000
     48 H11A       -6.0830   -0.2270   -2.4160 h1        1 AAU      0.088667
     49 H12A       -6.3160    0.9420   -3.4900 h1        1 AAU      0.088667
     50 H13A       -5.7750   -0.4970   -3.9780 h1        1 AAU      0.088667
     51 H4         -2.3630   -0.5770   -1.8940 ha        1 AAU      0.167000
     52 H61        -1.7590   -1.7960    0.9500 h4        1 AAU      0.103500
     53 H62        -0.8320   -0.5270    1.3500 h4        1 AAU      0.103500
     54 H8         -0.4460   -2.0600   -2.0780 h1        1 AAU      0.109000
     55 H91        -2.6650   -2.4680   -0.6700 hc        1 AAU      0.110500
     56 H92        -1.8450   -3.6230    0.0560 hc        1 AAU      0.110500
     57 H11        -1.8400   -5.8410   -0.9010 ha        1 AAU      0.138000
     58 H12        -2.3610   -7.3280   -2.6980 ha        1 AAU      0.133000
     59 H13        -3.1070   -6.4570   -4.8000 ha        1 AAU      0.131500
     60 H14        -3.3110   -4.1040   -5.0520 ha        1 AAU      0.131500
     61 H15        -2.7970   -2.6060   -3.2780 ha        1 AAU      0.135000
     62 H16         1.0330   -3.6150   -1.5940 h1        1 AAU      0.102000
     63 H17         0.9540   -4.6810    0.1250 ho        1 AAU      0.230000
     64 H181        2.4290   -2.8170    0.7070 h1        1 AAU      0.124000
     65 H182        2.5960   -1.8970   -0.7410 h1        1 AAU      0.124000
     66 H211        0.3040    1.9340   -0.1000 h1        1 AAU      0.120000
     67 H212        1.6520    1.6920    0.7310 h1        1 AAU      0.120000
     68 H23         0.5040    1.4730   -2.7200 ha        1 AAU      0.157000
     69 H24         1.7550    2.1890   -4.6200 ha        1 AAU      0.139000
     70 H26         3.6260    3.3290   -5.3640 ho        1 AAU      0.221000
     71 H291        4.8680    4.9440   -2.4850 h1        1 AAU      0.085333
     72 H292        6.1880    4.8450   -1.6330 h1        1 AAU      0.085333
     73 H293        6.2190    4.5640   -3.1950 h1        1 AAU      0.085333
     74 H30         3.7190    2.3430   -0.2750 ha        1 AAU      0.155000
     75 H351        1.8680    1.3460    2.8170 hc        1 AAU      0.122000
     76 H352        0.3670    1.0480    2.3450 hc        1 AAU      0.122000
     77 H361        0.8460   -0.4380    4.6340 hc        1 AAU      0.101500
     78 H362       -0.2780    0.6760    4.4460 hc        1 AAU      0.101500
     79 H38         0.1600    3.0450    4.9840 ha        1 AAU      0.139000
     80 H39         1.2140    4.4240    6.5960 ha        1 AAU      0.138000
     81 H41         3.8540    4.3950    7.7260 ho        1 AAU      0.219000
     82 H42         3.9390    1.4460    7.3940 ha        1 AAU      0.150000
     83 H43         2.8740    0.0810    5.7800 ha        1 AAU      0.135000
     84 H44        -2.8220    0.9030    1.9150 ha        1 AAU      0.137000
     85 H45        -4.7100    2.1860    1.2030 ha        1 AAU      0.151000
     86 H47        -5.5260    3.1160   -1.2900 ho        1 AAU      0.236000
@<TRIPOS>BOND
     1    1    2 1   
     2    1   48 1   
     3    1   49 1   
     4    1   50 1   
     5    2    3 1   
     6    3    4 1   
     7    3   46 1   
     8    4    5 1   
     9    4   51 1   
    10    5   44 1   
    11    6    7 1   
    12    6   52 1   
    13    6   53 1   
    14    7    8 1   
    15    7   31 1   
    16    8    9 1   
    17    8   16 1   
    18    8   54 1   
    19    9   10 1   
    20    9   55 1   
    21    9   56 1   
    22   10   11 1   
    23   10   15 1   
    24   11   12 1   
    25   11   57 1   
    26   12   58 1   
    27   13   14 1   
    28   13   59 1   
    29   14   60 1   
    30   15   61 1   
    31   16   17 1   
    32   16   18 1   
    33   16   62 1   
    34   17   63 1   
    35   18   19 1   
    36   18   64 1   
    37   18   65 1   
    38   19   20 1   
    39   19   33 1   
    40   20   21 1   
    41   20   31 1   
    42   21   22 1   
    43   21   66 1   
    44   21   67 1   
    45   22   23 1   
    46   22   30 1   
    47   23   24 1   
    48   23   68 1   
    49   24   69 1   
    50   25   26 1   
    51   25   27 1   
    52   26   70 1   
    53   27   30 1   
    54   28   29 1   
    55   29   71 1   
    56   29   72 1   
    57   29   73 1   
    58   30   74 1   
    59   31   32 1   
    60   33   34 1   
    61   33   35 1   
    62   35   36 1   
    63   35   75 1   
    64   35   76 1   
    65   36   37 1   
    66   36   77 1   
    67   36   78 1   
    68   37   38 1   
    69   37   43 1   
    70   38   39 1   
    71   38   79 1   
    72   39   80 1   
    73   40   41 1   
    74   40   42 1   
    75   41   81 1   
    76   42   82 1   
    77   43   83 1   
    78   44   45 1   
    79   44   84 1   
    80   45   85 1   
    81   46   47 1   
    82   47   86 1   
@<TRIPOS>SUBSTRUCTURE
     1 AAU         1 TEMP              0 ****  ****    0 ROOT
