@<TRIPOS>MOLECULE
AAU
   86    90     1     0     0
SMALL
bcc


@<TRIPOS>ATOM
      1 C1          0.0530    0.0220   -0.3390 c3        1 AAU      0.109700
      2 O2          1.4570    0.0130   -0.1000 os        1 AAU     -0.305900
      3 C3          1.8410   -0.0860    1.2220 ca        1 AAU      0.096100
      4 C4          0.9660   -0.2110    2.3010 ca        1 AAU     -0.161000
      5 C5          1.4670   -0.3110    3.6050 ca        1 AAU     -0.113300
      6 C6          0.5110   -0.3850    4.7640 c3        1 AAU      0.155300
      7 N7         -0.1370   -1.6730    4.9550 n         1 AAU     -0.473800
      8 C8          0.2660   -2.4680    6.0980 c3        1 AAU      0.095700
      9 C9          1.4370   -3.4420    5.8390 c3        1 AAU     -0.059100
     10 C10         2.6820   -3.0300    6.5450 ca        1 AAU     -0.078300
     11 C11         2.7220   -3.0210    7.9460 ca        1 AAU     -0.131500
     12 C12         3.8910   -2.6720    8.6170 ca        1 AAU     -0.130500
     13 C13         5.0370   -2.3340    7.8950 ca        1 AAU     -0.131000
     14 C14         5.0070   -2.3500    6.5020 ca        1 AAU     -0.130500
     15 C15         3.8360   -2.6960    5.8280 ca        1 AAU     -0.131500
     16 C16        -0.9330   -3.2040    6.7600 c3        1 AAU      0.105100
     17 O17        -0.5470   -3.6760    8.0420 oh        1 AAU     -0.585800
     18 C18        -1.4070   -4.4530    5.9970 c3        1 AAU      0.066000
     19 N19        -1.2270   -4.3750    4.5540 n         1 AAU     -0.368400
     20 N20        -1.7050   -3.3010    3.8570 n         1 AAU     -0.282400
     21 C21        -3.1280   -3.3650    3.4620 c3        1 AAU      0.125300
     22 C22        -4.1480   -3.1830    4.5430 ca        1 AAU     -0.133300
     23 C23        -4.5150   -1.8970    4.9400 ca        1 AAU     -0.108000
     24 C24        -5.5020   -1.7120    5.9080 ca        1 AAU     -0.196000
     25 C25        -6.1310   -2.8180    6.4840 ca        1 AAU      0.112100
     26 O26        -7.1100   -2.7130    7.4420 oh        1 AAU     -0.473100
     27 C27        -5.7610   -4.1290    6.0820 ca        1 AAU      0.096100
     28 O28        -6.4410   -5.1530    6.7100 os        1 AAU     -0.302900
     29 C29        -6.0680   -6.4720    6.3290 c3        1 AAU      0.109700
     30 C30        -4.7720   -4.3000    5.1140 ca        1 AAU     -0.163000
     31 C31        -1.2290   -1.9610    4.1290 c         1 AAU      0.786500
     32 O32        -1.7800   -1.0300    3.4880 o         1 AAU     -0.676500
     33 C33        -0.2860   -5.2360    3.9250 c         1 AAU      0.680100
     34 O34         0.2310   -6.1380    4.6070 o         1 AAU     -0.591100
     35 C35        -0.0150   -5.0740    2.4470 c3        1 AAU     -0.132400
     36 C36         0.9530   -6.1370    1.9590 c3        1 AAU     -0.029100
     37 C37         1.1750   -6.0330    0.4920 ca        1 AAU     -0.121300
     38 C38         1.8610   -4.9330   -0.0430 ca        1 AAU     -0.090500
     39 C39         2.0870   -4.8270   -1.4090 ca        1 AAU     -0.182500
     40 C40         1.6210   -5.8470   -2.2570 ca        1 AAU      0.122100
     41 O41         1.8740   -5.6910   -3.6010 oh        1 AAU     -0.497100
     42 C42         0.9380   -6.9550   -1.7390 ca        1 AAU     -0.182500
     43 C43         0.7200   -7.0390   -0.3660 ca        1 AAU     -0.090500
     44 C44         2.8430   -0.2820    3.8280 ca        1 AAU     -0.116000
     45 C45         3.7290   -0.1510    2.7590 ca        1 AAU     -0.199000
     46 C46         3.2400   -0.0540    1.4540 ca        1 AAU      0.107100
     47 O47         4.0540    0.0710    0.3530 oh        1 AAU     -0.474100
     48 H11A       -0.0160    0.1220   -1.4520 h1        1 AAU      0.046367
     49 H12A       -0.4300    0.8930    0.1670 h1        1 AAU      0.046367
     50 H13A       -0.4120   -0.9350    0.0010 h1        1 AAU      0.046367
     51 H4         -0.1260   -0.2290    2.1450 ha        1 AAU      0.170000
     52 H61        -0.2930    0.3940    4.6010 h1        1 AAU      0.066200
     53 H62         1.0670   -0.1200    5.7090 h1        1 AAU      0.066200
     54 H8          0.6220   -1.7320    6.8900 h1        1 AAU      0.057700
     55 H91         1.6330   -3.5440    4.7390 hc        1 AAU      0.076200
     56 H92         1.1490   -4.4640    6.2150 hc        1 AAU      0.076200
     57 H11         1.8220   -3.3120    8.5120 ha        1 AAU      0.138000
     58 H12         3.9140   -2.6710    9.7160 ha        1 AAU      0.130500
     59 H13         5.9610   -2.0620    8.4250 ha        1 AAU      0.132000
     60 H14         5.9110   -2.0930    5.9290 ha        1 AAU      0.130500
     61 H15         3.8200   -2.7090    4.7270 ha        1 AAU      0.138000
     62 H16        -1.7920   -2.4810    6.8700 h1        1 AAU      0.048700
     63 H17        -0.4600   -2.9020    8.6120 ho        1 AAU      0.405000
     64 H181       -2.5060   -4.5950    6.2090 h1        1 AAU      0.091200
     65 H182       -0.8560   -5.3580    6.3860 h1        1 AAU      0.091200
     66 H211       -3.2830   -4.3640    2.9610 h1        1 AAU      0.083200
     67 H212       -3.2610   -2.5560    2.6850 h1        1 AAU      0.083200
     68 H23        -4.0190   -1.0240    4.4830 ha        1 AAU      0.160000
     69 H24        -5.7900   -0.6960    6.2150 ha        1 AAU      0.139000
     70 H26        -7.2780   -1.7700    7.5860 ho        1 AAU      0.416000
     71 H291       -6.2720   -6.6440    5.2440 h1        1 AAU      0.045700
     72 H292       -6.7290   -7.1180    6.9620 h1        1 AAU      0.045700
     73 H293       -4.9920   -6.6630    6.5610 h1        1 AAU      0.045700
     74 H30        -4.4770   -5.3090    4.7910 ha        1 AAU      0.145000
     75 H351       -0.9830   -5.1480    1.8830 hc        1 AAU      0.079700
     76 H352        0.4140   -4.0530    2.2570 hc        1 AAU      0.079700
     77 H361        0.5530   -7.1520    2.2260 hc        1 AAU      0.063200
     78 H362        1.9310   -6.0220    2.5000 hc        1 AAU      0.063200
     79 H38         2.2250   -4.1400    0.6290 ha        1 AAU      0.135500
     80 H39         2.6210   -3.9660   -1.8360 ha        1 AAU      0.144500
     81 H41         1.5110   -6.4610   -4.0640 ho        1 AAU      0.418000
     82 H42         0.5800   -7.7490   -2.4080 ha        1 AAU      0.144500
     83 H43         0.1850   -7.9090    0.0440 ha        1 AAU      0.135500
     84 H44         3.2420   -0.3640    4.8520 ha        1 AAU      0.141000
     85 H45         4.8130   -0.1230    2.9400 ha        1 AAU      0.135000
     86 H47         4.9690    0.1040    0.6690 ho        1 AAU      0.414000
@<TRIPOS>BOND
     1    1    2 1   
     2    1   48 1   
     3    1   49 1   
     4    1   50 1   
     5    2    3 1   
     6    3    4 ar  
     7    3   46 ar  
     8    4    5 ar  
     9    4   51 1   
    10    5    6 1   
    11    5   44 ar  
    12    6    7 1   
    13    6   52 1   
    14    6   53 1   
    15    7    8 1   
    16    7   31 1   
    17    8    9 1   
    18    8   16 1   
    19    8   54 1   
    20    9   10 1   
    21    9   55 1   
    22    9   56 1   
    23   10   11 ar  
    24   10   15 ar  
    25   11   12 ar  
    26   11   57 1   
    27   12   13 ar  
    28   12   58 1   
    29   13   14 ar  
    30   13   59 1   
    31   14   15 ar  
    32   14   60 1   
    33   15   61 1   
    34   16   17 1   
    35   16   18 1   
    36   16   62 1   
    37   17   63 1   
    38   18   19 1   
    39   18   64 1   
    40   18   65 1   
    41   19   20 1   
    42   19   33 1   
    43   20   21 1   
    44   20   31 1   
    45   21   22 1   
    46   21   66 1   
    47   21   67 1   
    48   22   23 ar  
    49   22   30 ar  
    50   23   24 ar  
    51   23   68 1   
    52   24   25 ar  
    53   24   69 1   
    54   25   26 1   
    55   25   27 ar  
    56   26   70 1   
    57   27   28 1   
    58   27   30 ar  
    59   28   29 1   
    60   29   71 1   
    61   29   72 1   
    62   29   73 1   
    63   30   74 1   
    64   31   32 2   
    65   33   34 2   
    66   33   35 1   
    67   35   36 1   
    68   35   75 1   
    69   35   76 1   
    70   36   37 1   
    71   36   77 1   
    72   36   78 1   
    73   37   38 ar  
    74   37   43 ar  
    75   38   39 ar  
    76   38   79 1   
    77   39   40 ar  
    78   39   80 1   
    79   40   41 1   
    80   40   42 ar  
    81   41   81 1   
    82   42   43 ar  
    83   42   82 1   
    84   43   83 1   
    85   44   45 ar  
    86   44   84 1   
    87   45   46 ar  
    88   45   85 1   
    89   46   47 1   
    90   47   86 1   
@<TRIPOS>SUBSTRUCTURE
     1 AAU         1 TEMP              0 ****  ****    0 ROOT
