@<TRIPOS>MOLECULE
AAU
   86    90     1     0     0
SMALL
bcc


@<TRIPOS>ATOM
      1 C1         -2.7110    1.9010   -4.3210 c3        1 AAU      0.120700
      2 O2         -3.7780    1.2480   -3.6410 os        1 AAU     -0.352900
      3 C3         -3.4290    0.1210   -2.9120 ca        1 AAU      0.037100
      4 C4         -2.1330   -0.3750   -2.7770 ca        1 AAU     -0.142000
      5 C5         -1.9090   -1.5240   -2.0090 ca        1 AAU     -0.115300
      6 C6         -0.5190   -2.0890   -1.9130 c3        1 AAU      0.154300
      7 N7          0.3250   -1.4650   -0.9040 n         1 AAU     -0.473800
      8 C8          0.7910   -2.3050    0.1840 c3        1 AAU      0.122700
      9 C9         -0.1320   -2.3200    1.4230 c3        1 AAU     -0.052100
     10 C10        -0.8580   -3.6100    1.5730 ca        1 AAU     -0.081300
     11 C11        -0.1410   -4.8090    1.6900 ca        1 AAU     -0.131000
     12 C12        -0.8130   -6.0160    1.8660 ca        1 AAU     -0.130500
     13 C13        -2.2070   -6.0390    1.9340 ca        1 AAU     -0.132000
     14 C14        -2.9250   -4.8480    1.8290 ca        1 AAU     -0.130500
     15 C15        -2.2550   -3.6390    1.6490 ca        1 AAU     -0.131000
     16 C16         2.2570   -1.9910    0.5850 c3        1 AAU      0.103100
     17 O17         2.6930   -3.1170    1.3330 oh        1 AAU     -0.591800
     18 C18         2.4150   -0.7130    1.4270 c3        1 AAU      0.024000
     19 N19         1.4850    0.3540    1.0850 n         1 AAU     -0.359400
     20 N20         1.3290    0.7300   -0.2220 n         1 AAU     -0.281400
     21 C21         2.3120    1.7100   -0.7280 c3        1 AAU      0.125300
     22 C22         3.7180    1.2280   -0.9190 ca        1 AAU     -0.138300
     23 C23         4.0580    0.5140   -2.0710 ca        1 AAU     -0.109000
     24 C24         5.3680    0.0950   -2.2890 ca        1 AAU     -0.144000
     25 C25         6.3560    0.3970   -1.3440 ca        1 AAU      0.121100
     26 O26         7.6300   -0.0460   -1.5970 oh        1 AAU     -0.492100
     27 C27         6.0120    1.1180   -0.1760 ca        1 AAU      0.029100
     28 O28         7.0570    1.3280    0.7110 os        1 AAU     -0.348900
     29 C29         6.8560    2.3660    1.6640 c3        1 AAU      0.119700
     30 C30         4.6970    1.5310    0.0340 ca        1 AAU     -0.143000
     31 C31         0.8660   -0.2140   -1.2210 c         1 AAU      0.782500
     32 O32         0.8480    0.1900   -2.4100 o         1 AAU     -0.675500
     33 C33         0.4770    0.7110    2.0240 c         1 AAU      0.679100
     34 O34         0.5730    0.2660    3.1810 o         1 AAU     -0.592100
     35 C35        -0.6130    1.6710    1.6070 c3        1 AAU     -0.133400
     36 C36        -1.5100    2.0080    2.7850 c3        1 AAU     -0.029100
     37 C37        -2.6120    2.9210    2.3770 ca        1 AAU     -0.121300
     38 C38        -3.6680    2.4430    1.5930 ca        1 AAU     -0.089500
     39 C39        -4.7110    3.2840    1.2160 ca        1 AAU     -0.182500
     40 C40        -4.6950    4.6220    1.6330 ca        1 AAU      0.122100
     41 O41        -5.6880    5.5160    1.3000 oh        1 AAU     -0.499100
     42 C42        -3.6450    5.1180    2.4220 ca        1 AAU     -0.182500
     43 C43        -2.6120    4.2610    2.7870 ca        1 AAU     -0.089500
     44 C44        -2.9770   -2.1660   -1.3810 ca        1 AAU     -0.116000
     45 C45        -4.2770   -1.6810   -1.5140 ca        1 AAU     -0.148000
     46 C46        -4.5120   -0.5340   -2.2800 ca        1 AAU      0.114100
     47 O47        -5.8090   -0.0900   -2.3730 oh        1 AAU     -0.498100
     48 H11A       -3.2190    2.7540   -4.8400 h1        1 AAU      0.048367
     49 H12A       -1.9530    2.2770   -3.5910 h1        1 AAU      0.048367
     50 H13A       -2.2360    1.2130   -5.0610 h1        1 AAU      0.048367
     51 H4         -1.2780    0.1270   -3.2600 ha        1 AAU      0.168000
     52 H61        -0.5950   -3.1910   -1.6860 h1        1 AAU      0.066200
     53 H62        -0.0190   -1.9710   -2.9210 h1        1 AAU      0.066200
     54 H8          0.8310   -3.3700   -0.2160 h1        1 AAU      0.078700
     55 H91         0.4980   -2.1700    2.3450 hc        1 AAU      0.071700
     56 H92        -0.8600   -1.4660    1.3880 hc        1 AAU      0.071700
     57 H11         0.9610   -4.7840    1.6520 ha        1 AAU      0.142000
     58 H12        -0.2430   -6.9520    1.9560 ha        1 AAU      0.131000
     59 H13        -2.7360   -6.9920    2.0750 ha        1 AAU      0.131000
     60 H14        -4.0230   -4.8610    1.8900 ha        1 AAU      0.131000
     61 H15        -2.8270   -2.7010    1.5760 ha        1 AAU      0.142000
     62 H16         2.8890   -1.9070   -0.3470 h1        1 AAU      0.050700
     63 H17         3.6070   -2.9420    1.5900 ho        1 AAU      0.411000
     64 H181        2.2880   -0.9660    2.5190 h1        1 AAU      0.083200
     65 H182        3.4630   -0.3190    1.2790 h1        1 AAU      0.083200
     66 H211        1.9040    2.0660   -1.7200 h1        1 AAU      0.083700
     67 H212        2.3040    2.5790   -0.0100 h1        1 AAU      0.083700
     68 H23         3.2750    0.2850   -2.8160 ha        1 AAU      0.161000
     69 H24         5.6440   -0.4640   -3.1950 ha        1 AAU      0.157000
     70 H26         8.2120    0.2920   -0.8980 ho        1 AAU      0.438000
     71 H291        7.8630    2.4850    2.1390 h1        1 AAU      0.047033
     72 H292        6.5370    3.3120    1.1650 h1        1 AAU      0.047033
     73 H293        6.1000    2.0490    2.4240 h1        1 AAU      0.047033
     74 H30         4.4270    2.0940    0.9400 ha        1 AAU      0.144000
     75 H351       -0.1510    2.6080    1.1970 hc        1 AAU      0.081200
     76 H352       -1.2200    1.2020    0.7870 hc        1 AAU      0.081200
     77 H361       -1.9390    1.0590    3.2070 hc        1 AAU      0.063200
     78 H362       -0.8930    2.4740    3.6000 hc        1 AAU      0.063200
     79 H38        -3.6750    1.3900    1.2710 ha        1 AAU      0.135500
     80 H39        -5.5370    2.9020    0.6000 ha        1 AAU      0.144000
     81 H41        -6.3470    5.0440    0.7690 ho        1 AAU      0.420000
     82 H42        -3.6540    6.1690    2.7400 ha        1 AAU      0.144000
     83 H43        -1.7880    4.6420    3.4090 ha        1 AAU      0.135500
     84 H44        -2.7970   -3.0660   -0.7710 ha        1 AAU      0.145000
     85 H45        -5.1240   -2.1850   -1.0280 ha        1 AAU      0.152000
     86 H47        -5.8250    0.6640   -2.9830 ho        1 AAU      0.436000
@<TRIPOS>BOND
     1    1    2 1   
     2    1   48 1   
     3    1   49 1   
     4    1   50 1   
     5    2    3 1   
     6    3    4 ar  
     7    3   46 ar  
     8    4    5 ar  
     9    4   51 1   
    10    5    6 1   
    11    5   44 ar  
    12    6    7 1   
    13    6   52 1   
    14    6   53 1   
    15    7    8 1   
    16    7   31 1   
    17    8    9 1   
    18    8   16 1   
    19    8   54 1   
    20    9   10 1   
    21    9   55 1   
    22    9   56 1   
    23   10   11 ar  
    24   10   15 ar  
    25   11   12 ar  
    26   11   57 1   
    27   12   13 ar  
    28   12   58 1   
    29   13   14 ar  
    30   13   59 1   
    31   14   15 ar  
    32   14   60 1   
    33   15   61 1   
    34   16   17 1   
    35   16   18 1   
    36   16   62 1   
    37   17   63 1   
    38   18   19 1   
    39   18   64 1   
    40   18   65 1   
    41   19   20 1   
    42   19   33 1   
    43   20   21 1   
    44   20   31 1   
    45   21   22 1   
    46   21   66 1   
    47   21   67 1   
    48   22   23 ar  
    49   22   30 ar  
    50   23   24 ar  
    51   23   68 1   
    52   24   25 ar  
    53   24   69 1   
    54   25   26 1   
    55   25   27 ar  
    56   26   70 1   
    57   27   28 1   
    58   27   30 ar  
    59   28   29 1   
    60   29   71 1   
    61   29   72 1   
    62   29   73 1   
    63   30   74 1   
    64   31   32 2   
    65   33   34 2   
    66   33   35 1   
    67   35   36 1   
    68   35   75 1   
    69   35   76 1   
    70   36   37 1   
    71   36   77 1   
    72   36   78 1   
    73   37   38 ar  
    74   37   43 ar  
    75   38   39 ar  
    76   38   79 1   
    77   39   40 ar  
    78   39   80 1   
    79   40   41 1   
    80   40   42 ar  
    81   41   81 1   
    82   42   43 ar  
    83   42   82 1   
    84   43   83 1   
    85   44   45 ar  
    86   44   84 1   
    87   45   46 ar  
    88   45   85 1   
    89   46   47 1   
    90   47   86 1   
@<TRIPOS>SUBSTRUCTURE
     1 AAU         1 TEMP              0 ****  ****    0 ROOT
