@<TRIPOS>MOLECULE
AAV
   57    61     1     0     0
SMALL
bcc


@<TRIPOS>ATOM
      1 C1          9.1420    2.3280   -1.4860 c3        1 AAV      0.156100
      2 N2          8.1510    1.4410   -0.9200 n3        1 AAV     -0.732600
      3 C3          7.7350    1.8480    0.4140 c3        1 AAV      0.164800
      4 C4          6.6720    0.9110    1.0240 c3        1 AAV      0.185300
      5 N5          5.5440    0.6980    0.1330 nh        1 AAV     -0.635000
      6 C6          5.9480    0.2980   -1.2080 c3        1 AAV      0.185300
      7 C7          7.0150    1.2360   -1.8070 c3        1 AAV      0.164800
      8 C8          4.4340    0.0040    0.6710 ca        1 AAV      0.129600
      9 C9          4.4500   -0.5680    1.9690 ca        1 AAV     -0.149000
     10 C10         3.3250   -1.1560    2.5180 ca        1 AAV     -0.090000
     11 C11         2.1180   -1.2200    1.7890 ca        1 AAV      0.137400
     12 N12         0.9740   -1.8150    2.3430 nc        1 AAV     -0.599100
     13 C13        -0.1120   -1.8410    1.6160 cd        1 AAV      0.483800
     14 N14        -0.2520   -1.3450    0.3080 n         1 AAV     -0.326500
     15 C15        -1.5340   -1.4120   -0.3100 ca        1 AAV      0.022600
     16 C16        -2.6060   -0.7010    0.2650 ca        1 AAV     -0.076000
     17 C17        -3.8760   -0.7560   -0.3120 ca        1 AAV     -0.151600
     18 N18        -5.8460    0.6780   -0.4920 n         1 AAV     -0.534400
     19 C19        -4.9770   -0.0040    0.3570 c         1 AAV      0.691700
     20 O20        -5.0960    0.0170    1.5940 o         1 AAV     -0.576100
     21 C22        -7.3870    1.6230    1.3270 cc        1 AAV     -0.348600
     22 C23        -8.4930    2.4290    1.2070 cd        1 AAV      0.255600
     23 O24        -8.7000    2.7050   -0.1590 os        1 AAV     -0.117100
     24 C25        -6.9370    1.4300   -0.0670 cc        1 AAV      0.431200
     25 C26        -4.0960   -1.5220   -1.4600 ca        1 AAV     -0.092000
     26 C27        -3.0400   -2.2290   -2.0260 ca        1 AAV     -0.135000
     27 C28        -1.7540   -2.1900   -1.4720 ca        1 AAV     -0.016300
     28 C29        -0.6610   -2.9540   -2.1150 c3        1 AAV     -0.072800
     29 N29        -7.7820    2.1150   -0.8980 nd        1 AAV     -0.415300
     30 C30         0.8500   -0.7090   -0.3140 c         1 AAV      0.713100
     31 C31         3.2300   -0.0560   -0.0610 ca        1 AAV     -0.102000
     32 O31         0.7500   -0.2380   -1.4600 o         1 AAV     -0.612500
     33 C32         2.0980   -0.6620    0.4850 ca        1 AAV     -0.157600
     34 H1         10.0220    2.3730   -0.7930 h1        1 AAV      0.034367
     35 H1A         9.4780    1.9110   -2.4710 h1        1 AAV      0.034367
     36 H1B         8.7630    3.3740   -1.6510 h1        1 AAV      0.034367
     37 H3          8.6400    1.8140    1.0820 h1        1 AAV      0.040950
     38 H3A         7.3350    2.9040    0.4240 h1        1 AAV      0.040950
     39 H4          7.1700   -0.0640    1.3020 h1        1 AAV      0.045950
     40 H4A         6.2920    1.3980    1.9650 h1        1 AAV      0.045950
     41 H6          6.3490   -0.7560   -1.2100 h1        1 AAV      0.045950
     42 H6A         5.0500    0.3320   -1.8850 h1        1 AAV      0.045950
     43 H7          6.5220    2.2120   -2.0890 h1        1 AAV      0.040950
     44 H7A         7.3970    0.7550   -2.7510 h1        1 AAV      0.040950
     45 H9          5.3720   -0.5530    2.5720 ha        1 AAV      0.140000
     46 H10         3.3700   -1.5840    3.5330 ha        1 AAV      0.154000
     47 H13        -1.0250   -2.3020    2.0530 h5        1 AAV      0.062800
     48 H16        -2.4600   -0.1010    1.1790 ha        1 AAV      0.163000
     49 H23        -9.2120    2.8830    1.8800 h4        1 AAV      0.065100
     50 H26        -5.0970   -1.5890   -1.9120 ha        1 AAV      0.144000
     51 H27        -3.2160   -2.8340   -2.9300 ha        1 AAV      0.146000
     52 H281       -0.1850   -3.6540   -1.3830 hc        1 AAV      0.061367
     53 H282       -1.0390   -3.5550   -2.9780 hc        1 AAV      0.061367
     54 H283        0.1250   -2.2480   -2.4910 hc        1 AAV      0.061367
     55 H31         3.1480    0.3840   -1.0700 ha        1 AAV      0.164000
     56 H18        -5.6550    0.6660   -1.4710 hn        1 AAV      0.339500
     57 H22        -6.9120    1.2000    2.2090 ha        1 AAV      0.206000
@<TRIPOS>BOND
     1    1    2 1   
     2    1   34 1   
     3    1   35 1   
     4    1   36 1   
     5    2    3 1   
     6    2    7 1   
     7    3    4 1   
     8    3   37 1   
     9    3   38 1   
    10    4    5 1   
    11    4   39 1   
    12    4   40 1   
    13    5    6 1   
    14    5    8 1   
    15    6    7 1   
    16    6   41 1   
    17    6   42 1   
    18    7   43 1   
    19    7   44 1   
    20    8    9 ar  
    21    8   31 ar  
    22    9   10 ar  
    23    9   45 1   
    24   10   11 ar  
    25   10   46 1   
    26   11   12 1   
    27   11   33 ar  
    28   12   13 2   
    29   13   14 1   
    30   13   47 1   
    31   14   15 1   
    32   14   30 1   
    33   15   16 ar  
    34   15   27 ar  
    35   16   17 ar  
    36   16   48 1   
    37   17   19 1   
    38   17   25 ar  
    39   18   19 1   
    40   18   24 1   
    41   18   56 1   
    42   19   20 2   
    43   21   22 2   
    44   21   24 1   
    45   21   57 1   
    46   22   23 1   
    47   22   49 1   
    48   23   29 1   
    49   24   29 2   
    50   25   26 ar  
    51   25   50 1   
    52   26   27 ar  
    53   26   51 1   
    54   27   28 1   
    55   28   52 1   
    56   28   53 1   
    57   28   54 1   
    58   30   32 2   
    59   30   33 1   
    60   31   33 ar  
    61   31   55 1   
@<TRIPOS>SUBSTRUCTURE
     1 AAV         1 TEMP              0 ****  ****    0 ROOT
