@<TRIPOS>MOLECULE
AAV
   58    62     1     0     0
SMALL
bcc


@<TRIPOS>ATOM
      1 C1         -0.0250    0.5300   -0.4370 c3        1 AAV      0.155100
      2 N2          1.4160    0.5080   -0.3230 n3        1 AAV     -0.731600
      3 C3          1.8690    0.4460    1.0580 c3        1 AAV      0.163800
      4 C4          3.4060    0.4550    1.1830 c3        1 AAV      0.189300
      5 N5          4.0500   -0.5340    0.3340 nh        1 AAV     -0.639000
      6 C6          3.5670   -0.5340   -1.0390 c3        1 AAV      0.189300
      7 C7          2.0280   -0.5320   -1.1350 c3        1 AAV      0.163800
      8 C8          5.4300   -0.7330    0.5190 ca        1 AAV      0.163600
      9 C9          6.1830    0.0170    1.4640 ca        1 AAV     -0.154000
     10 C10         7.5160   -0.2550    1.7180 ca        1 AAV     -0.069000
     11 C11         8.1830   -1.2880    1.0260 ca        1 AAV      0.110400
     12 N12         9.5360   -1.5650    1.2780 nc        1 AAV     -0.559100
     13 C13        10.1030   -2.5260    0.6080 cd        1 AAV      0.457800
     14 N14         9.4830   -3.3280   -0.3780 n         1 AAV     -0.348500
     15 C15        10.2220   -4.3790   -0.9760 ca        1 AAV      0.045600
     16 C16        10.6810   -5.4380   -0.1710 ca        1 AAV     -0.048000
     17 C17        11.3940   -6.5080   -0.7380 ca        1 AAV     -0.216600
     18 N18        11.9670   -8.9680   -0.4360 n4        1 AAV     -0.641500
     19 C19        11.8130   -7.5580    0.1770 c         1 AAV      0.598700
     20 O20        12.0040   -7.5270    1.3820 o         1 AAV     -0.421100
     21 C22        14.3080   -9.6510    0.4180 cc        1 AAV     -0.325600
     22 C23        15.4780   -9.9020   -0.2690 cd        1 AAV      0.311600
     23 O24        15.2230   -9.7200   -1.6490 os        1 AAV     -0.054100
     24 C25        13.3560   -9.3110   -0.6450 cc        1 AAV      0.339200
     25 C26        11.6750   -6.5160   -2.1130 ca        1 AAV     -0.079000
     26 C27        11.2350   -5.4660   -2.9040 ca        1 AAV     -0.131000
     27 C28        10.5070   -4.3910   -2.3670 ca        1 AAV      0.045700
     28 C29        10.0500   -3.3060   -3.2610 c3        1 AAV     -0.092800
     29 N29        13.9870   -9.3760   -1.8570 nd        1 AAV     -0.286300
     30 C30         8.1090   -3.1250   -0.6750 c         1 AAV      0.718100
     31 C31         6.0990   -1.7660   -0.1770 ca        1 AAV     -0.120000
     32 O31         7.5470   -3.8480   -1.5150 o         1 AAV     -0.617500
     33 C32         7.4440   -2.0330    0.0700 ca        1 AAV     -0.143600
     34 H1         -0.5170   -0.4070   -0.0550 h1        1 AAV      0.038033
     35 H1A        -0.4180    1.4040    0.1460 h1        1 AAV      0.038033
     36 H1B        -0.2980    0.6640   -1.5160 h1        1 AAV      0.038033
     37 H3          1.4680   -0.4650    1.5920 h1        1 AAV      0.044700
     38 H3A         1.4830    1.3600    1.5920 h1        1 AAV      0.044700
     39 H4          3.7820    1.4940    0.9510 h1        1 AAV      0.048200
     40 H4A         3.6540    0.2150    2.2560 h1        1 AAV      0.048200
     41 H6          3.9290   -1.4640   -1.5580 h1        1 AAV      0.048200
     42 H6A         3.9670    0.3610   -1.5980 h1        1 AAV      0.048200
     43 H7          1.7580   -0.3360   -2.2110 h1        1 AAV      0.044700
     44 H7A         1.6460   -1.5580   -0.8610 h1        1 AAV      0.044700
     45 H9          5.7130    0.8460    2.0190 ha        1 AAV      0.151000
     46 H10         8.0640    0.3470    2.4610 ha        1 AAV      0.161000
     47 H13        11.1740   -2.7460    0.8010 h5        1 AAV      0.055800
     48 H16        10.4780   -5.4390    0.9160 ha        1 AAV      0.172000
     49 H26        12.2650   -7.3180   -2.5830 ha        1 AAV      0.146000
     50 H27        11.4630   -5.4690   -3.9840 ha        1 AAV      0.170000
     51 H281        8.9270   -3.3060   -3.3080 hc        1 AAV      0.082033
     52 H282       10.3800   -2.3080   -2.8740 hc        1 AAV      0.082033
     53 H283       10.4480   -3.4330   -4.2980 hc        1 AAV      0.082033
     54 H31         5.5750   -2.3940   -0.9160 ha        1 AAV      0.165000
     55 H18        11.5780   -9.6590    0.2220 hn        1 AAV      0.475800
     56 H22        14.1110   -9.6750    1.4880 ha        1 AAV      0.215000
     57 H182       11.4440   -9.0130   -1.3220 hn        1 AAV      0.475800
     58 H23        16.5010  -10.1940   -0.0270 h4        1 AAV      0.108100
@<TRIPOS>BOND
     1    1    2 1   
     2    1   34 1   
     3    1   35 1   
     4    1   36 1   
     5    2    3 1   
     6    2    7 1   
     7    3    4 1   
     8    3   37 1   
     9    3   38 1   
    10    4    5 1   
    11    4   39 1   
    12    4   40 1   
    13    5    6 1   
    14    5    8 1   
    15    6    7 1   
    16    6   41 1   
    17    6   42 1   
    18    7   43 1   
    19    7   44 1   
    20    8    9 ar  
    21    8   31 ar  
    22    9   10 ar  
    23    9   45 1   
    24   10   11 ar  
    25   10   46 1   
    26   11   12 1   
    27   11   33 ar  
    28   12   13 2   
    29   13   14 1   
    30   13   47 1   
    31   14   15 1   
    32   14   30 1   
    33   15   16 ar  
    34   15   27 ar  
    35   16   17 ar  
    36   16   48 1   
    37   17   19 1   
    38   17   25 ar  
    39   18   19 1   
    40   18   24 1   
    41   18   55 1   
    42   18   57 1   
    43   19   20 2   
    44   21   22 2   
    45   21   24 1   
    46   21   56 1   
    47   22   23 1   
    48   22   58 1   
    49   23   29 1   
    50   24   29 2   
    51   25   26 ar  
    52   25   49 1   
    53   26   27 ar  
    54   26   50 1   
    55   27   28 1   
    56   28   51 1   
    57   28   52 1   
    58   28   53 1   
    59   30   32 2   
    60   30   33 1   
    61   31   33 ar  
    62   31   54 1   
@<TRIPOS>SUBSTRUCTURE
     1 AAV         1 TEMP              0 ****  ****    0 ROOT
