@<TRIPOS>MOLECULE
AAV
   57    61     1     0     0
SMALL
bcc


@<TRIPOS>ATOM
      1 C1         -0.1190   -0.0140   -0.1740 c3        1 AAV      0.156100
      2 N2          1.3180    0.1200   -0.0920 n3        1 AAV     -0.732600
      3 C3          1.8190   -0.0660    1.2610 c3        1 AAV      0.164800
      4 C4          3.3530    0.0690    1.3580 c3        1 AAV      0.185300
      5 N5          4.0440   -0.7670    0.3920 nh        1 AAV     -0.635000
      6 C6          3.5460   -0.5970   -0.9660 c3        1 AAV      0.185300
      7 C7          2.0120   -0.7260   -1.0520 c3        1 AAV      0.164800
      8 C8          5.4510   -0.8550    0.5210 ca        1 AAV      0.129600
      9 C9          6.1790   -0.0800    1.4610 ca        1 AAV     -0.149000
     10 C10         7.5400   -0.2490    1.6440 ca        1 AAV     -0.090000
     11 C11         8.2560   -1.1960    0.8820 ca        1 AAV      0.137400
     12 N12         9.6370   -1.3710    1.0650 nc        1 AAV     -0.599100
     13 C13        10.2400   -2.2650    0.3280 cd        1 AAV      0.483800
     14 N14         9.6470   -3.0710   -0.6600 n         1 AAV     -0.326500
     15 C15        10.4570   -4.0330   -1.3280 ca        1 AAV      0.022600
     16 C16        11.0390   -5.0740   -0.5770 ca        1 AAV     -0.076000
     17 C17        11.8460   -6.0270   -1.2020 ca        1 AAV     -0.151600
     18 N18        12.4500   -8.3730   -0.8880 ns        1 AAV     -0.534400
     19 C19        12.4540   -7.0890   -0.3490 c         1 AAV      0.691700
     20 O20        12.9230   -6.8360    0.7740 o         1 AAV     -0.576100
     21 C22        13.6430   -9.5380    1.0600 cc        1 AAV     -0.348600
     22 C23        13.9760  -10.8610    1.2180 cd        1 AAV      0.255600
     23 O24        13.5410  -11.5720    0.0820 os        1 AAV     -0.117100
     24 C25        12.9740   -9.4960   -0.2560 cc        1 AAV      0.431200
     25 C26        12.0890   -5.9510   -2.5750 ca        1 AAV     -0.092000
     26 C27        11.5200   -4.9220   -3.3180 ca        1 AAV     -0.135000
     27 C28        10.7040   -3.9540   -2.7200 ca        1 AAV     -0.016300
     28 C29        10.1150   -2.8810   -3.5540 c3        1 AAV     -0.072800
     29 N29        12.9550  -10.7630   -0.7770 nd        1 AAV     -0.415300
     30 C30         8.2530   -2.9710   -0.8900 c         1 AAV      0.713100
     31 C31         6.1620   -1.8040   -0.2410 ca        1 AAV     -0.102000
     32 O31         7.6960   -3.6880   -1.7390 o         1 AAV     -0.612500
     33 C32         7.5370   -1.9660   -0.0690 ca        1 AAV     -0.157600
     34 H1         -0.4440    0.2240   -1.2200 h1        1 AAV      0.034367
     35 H1A        -0.5900    0.7230    0.5280 h1        1 AAV      0.034367
     36 H1B        -0.4870   -1.0440    0.0900 h1        1 AAV      0.034367
     37 H3          1.5170   -1.0670    1.6870 h1        1 AAV      0.040950
     38 H3A         1.3680    0.7370    1.9090 h1        1 AAV      0.040950
     39 H4          3.6270    1.1570    1.2340 h1        1 AAV      0.045950
     40 H4A         3.6570   -0.2600    2.3910 h1        1 AAV      0.045950
     41 H6          3.9900   -1.3960   -1.6210 h1        1 AAV      0.045950
     42 H6A         3.8500    0.4070   -1.3830 h1        1 AAV      0.045950
     43 H7          1.7020   -0.4010   -2.0850 h1        1 AAV      0.040950
     44 H7A         1.7330   -1.8130   -0.9310 h1        1 AAV      0.040950
     45 H9          5.6660    0.6810    2.0710 ha        1 AAV      0.140000
     46 H10         8.0720    0.3650    2.3890 ha        1 AAV      0.154000
     47 H13        11.3320   -2.4160    0.4750 h5        1 AAV      0.062800
     48 H16        10.8720   -5.1460    0.5120 ha        1 AAV      0.163000
     49 H23        14.4700  -11.4630    1.9740 h4        1 AAV      0.065100
     50 H26        12.7400   -6.6850   -3.0750 ha        1 AAV      0.144000
     51 H27        11.7160   -4.8630   -4.4000 ha        1 AAV      0.146000
     52 H281       10.3900   -1.8740   -3.1520 hc        1 AAV      0.061367
     53 H282       10.4730   -2.9470   -4.6100 hc        1 AAV      0.061367
     54 H283        8.9970   -2.9700   -3.5510 hc        1 AAV      0.061367
     55 H31         5.6520   -2.4480   -0.9780 ha        1 AAV      0.164000
     56 H18        12.0030   -8.5130   -1.7690 hn        1 AAV      0.339500
     57 H22        13.8070   -8.6840    1.7130 ha        1 AAV      0.206000
@<TRIPOS>BOND
     1    1    2 1   
     2    1   34 1   
     3    1   35 1   
     4    1   36 1   
     5    2    3 1   
     6    2    7 1   
     7    3    4 1   
     8    3   37 1   
     9    3   38 1   
    10    4    5 1   
    11    4   39 1   
    12    4   40 1   
    13    5    6 1   
    14    5    8 1   
    15    6    7 1   
    16    6   41 1   
    17    6   42 1   
    18    7   43 1   
    19    7   44 1   
    20    8    9 ar  
    21    8   31 ar  
    22    9   10 ar  
    23    9   45 1   
    24   10   11 ar  
    25   10   46 1   
    26   11   12 1   
    27   11   33 ar  
    28   12   13 2   
    29   13   14 1   
    30   13   47 1   
    31   14   15 1   
    32   14   30 1   
    33   15   16 ar  
    34   15   27 ar  
    35   16   17 ar  
    36   16   48 1   
    37   17   19 1   
    38   17   25 ar  
    39   18   19 1   
    40   18   24 1   
    41   18   56 1   
    42   19   20 2   
    43   21   22 2   
    44   21   24 1   
    45   21   57 1   
    46   22   23 1   
    47   22   49 1   
    48   23   29 1   
    49   24   29 2   
    50   25   26 ar  
    51   25   50 1   
    52   26   27 ar  
    53   26   51 1   
    54   27   28 1   
    55   28   52 1   
    56   28   53 1   
    57   28   54 1   
    58   30   32 2   
    59   30   33 1   
    60   31   33 ar  
    61   31   55 1   
@<TRIPOS>SUBSTRUCTURE
     1 AAV         1 TEMP              0 ****  ****    0 ROOT
