@<TRIPOS>MOLECULE
AAV
   57    54     1     0     0
SMALL
bcc


@<TRIPOS>ATOM
      1 C1         -8.2450   -1.7690   -1.9470 c3        1 AAV     -0.119000
      2 N2         -6.8050   -1.7100   -1.8960 n3        1 AAV     -0.256000
      3 C3         -6.3400   -2.3950   -0.7310 c3        1 AAV     -0.101000
      4 C4         -4.8370   -2.2460   -0.5310 c3        1 AAV     -0.059000
      5 N5         -4.4140   -0.8810   -0.5730 n3        1 AAV     -0.225000
      6 C6         -4.8790   -0.1960   -1.7390 c3        1 AAV     -0.059000
      7 C7         -6.3820   -0.3450   -1.9390 c3        1 AAV     -0.101000
      8 C8         -2.9680   -0.8200   -0.5200 c2        1 AAV      0.033000
      9 C9         -3.3630   -0.1760    0.6520 c2        1 AAV     -0.145000
     10 C10        -2.4080    0.2250    1.5840 c1        1 AAV     -0.094000
     11 C11        -1.0380   -0.0210    1.3420 c1        1 AAV      0.003000
     12 N12        -0.0350    0.4080    2.3150 n2        1 AAV     -0.173000
     13 C13         1.3730    0.1840    2.0560 c1        1 AAV      0.062000
     14 N14         1.7870   -0.4590    0.8430 n2        1 AAV     -0.260000
     15 C15         3.1820   -0.5510    0.5240 c2        1 AAV      0.030000
     16 C16         3.8330    0.5340   -0.0550 c2        1 AAV     -0.076000
     17 C17         5.2140    0.5080   -0.2240 c1        1 AAV     -0.131000
     18 N18         6.5240    2.6990   -0.0140 n3        1 AAV     -0.300000
     19 C19         5.2700    2.0160    0.0210 c1        1 AAV      0.365000
     20 O20         4.2520    2.6260    0.2910 o         1 AAV     -0.338000
     21 C22         7.2620    5.0230    1.0440 c1        1 AAV     -0.218000
     22 C23         6.6420    6.2420    0.8940 c1        1 AAV     -0.076000
     23 O24         5.6000    6.0800    0.0410 os        1 AAV     -0.060000
     24 C25         6.5840    4.1020    0.2680 c2        1 AAV      0.023000
     25 C26         5.9450   -0.6030    0.1860 c2        1 AAV     -0.091000
     26 C27         5.2950   -1.6880    0.7660 c1        1 AAV     -0.135000
     27 C28         3.9140   -1.6640    0.9350 c1        1 AAV     -0.008000
     28 C29         3.1990   -2.8660    1.5510 c3        1 AAV     -0.199000
     29 N29         5.5650    4.7440   -0.3480 n2        1 AAV     -0.079000
     30 C30         0.8220   -0.8740   -0.0970 c2        1 AAV      0.350000
     31 C31        -1.6150   -1.0630   -0.7600 c1        1 AAV     -0.094000
     32 O31         1.1750   -1.3640   -1.1560 o         1 AAV     -0.336000
     33 C32        -0.6460   -0.6580    0.1840 c1        1 AAV     -0.141000
     34 H1         -8.5380   -2.7030   -1.8470 h1        1 AAV      0.073333
     35 H1A        -8.5570   -1.4190   -2.8120 h1        1 AAV      0.073333
     36 H1B        -8.6210   -1.2270   -1.2170 h1        1 AAV      0.073333
     37 H3         -6.8030   -2.0320    0.0570 h1        1 AAV      0.077250
     38 H3A        -6.5570   -3.3510   -0.8160 h1        1 AAV      0.077250
     39 H4         -4.3700   -2.7460   -1.2390 h1        1 AAV      0.104250
     40 H4A        -4.5920   -2.6280    0.3420 h1        1 AAV      0.104250
     41 H6         -4.4160   -0.5600   -2.5270 h1        1 AAV      0.104250
     42 H6A        -4.6620    0.7600   -1.6540 h1        1 AAV      0.104250
     43 H7         -6.6260    0.0370   -2.8130 h1        1 AAV      0.077250
     44 H7A        -6.8480    0.1540   -1.2310 h1        1 AAV      0.077250
     45 H9         -4.3100    0.0300    0.8020 ha        1 AAV      0.139000
     46 H10        -2.6870    0.6780    2.4100 ha        1 AAV      0.154000
     47 H13         2.0450    0.4950    2.6990 ha        1 AAV      0.192000
     48 H16         3.3120    1.2920   -0.3970 ha        1 AAV      0.162000
     49 H22         8.0460    4.8390    1.6040 DU        1 AAV      0.204000
     50 H23         6.9080    7.0810    1.3280 DU        1 AAV      0.204000
     51 H26         6.9190   -0.6210    0.0670 ha        1 AAV      0.144000
     52 H27         5.8110   -2.4720    1.0550 ha        1 AAV      0.146000
     53 H281        2.4370   -2.5550    2.0850 hc        1 AAV      0.101000
     54 H282        3.8240   -3.3600    2.1270 hc        1 AAV      0.101000
     55 H283        2.8770   -3.4570    0.8350 hc        1 AAV      0.101000
     56 H31        -1.3370   -1.5230   -1.5830 ha        1 AAV      0.165000
     57 H18         7.2870    2.2460   -0.2440 hn        1 AAV      0.253000
@<TRIPOS>BOND
     1    1    2 1   
     2    1   34 1   
     3    1   35 1   
     4    1   36 1   
     5    2    3 1   
     6    2    7 1   
     7    3    4 1   
     8    3   37 1   
     9    3   38 1   
    10    4    5 1   
    11    4   39 1   
    12    4   40 1   
    13    5    6 1   
    14    5    8 1   
    15    6    7 1   
    16    6   41 1   
    17    6   42 1   
    18    7   43 1   
    19    7   44 1   
    20    8    9 1   
    21    8   31 1   
    22    9   10 1   
    23    9   45 1   
    24   10   46 1   
    25   11   12 1   
    26   11   33 1   
    27   12   13 1   
    28   13   47 1   
    29   14   15 1   
    30   14   30 1   
    31   15   16 1   
    32   15   27 1   
    33   16   17 1   
    34   16   48 1   
    35   17   25 1   
    36   18   19 1   
    37   18   24 1   
    38   18   57 1   
    39   19   20 1   
    40   21   22 1   
    41   21   24 1   
    42   22   23 1   
    43   23   29 1   
    44   24   29 1   
    45   25   26 1   
    46   25   51 1   
    47   26   52 1   
    48   27   28 1   
    49   28   53 1   
    50   28   54 1   
    51   28   55 1   
    52   30   32 1   
    53   30   33 1   
    54   31   56 1   
@<TRIPOS>SUBSTRUCTURE
     1 AAV         1 TEMP              0 ****  ****    0 ROOT
