@<TRIPOS>MOLECULE
AAX
   60    64     1     0     0
SMALL
bcc


@<TRIPOS>ATOM
      1 O29         0.5600   -0.3340    0.6810 o         1 AAX     -0.552300
      2 S27         1.7720   -0.2790    0.0220 sy        1 AAX      1.471200
      3 O28         2.9880   -0.1470    0.6580 o         1 AAX     -0.552300
      4 N30         1.6460    1.3210   -0.9250 n4        1 AAX     -0.717900
      5 C31         1.5400    2.4730    0.0230 c3        1 AAX      0.133800
      6 C32         1.4810    3.7940   -0.6790 cx        1 AAX     -0.216700
      7 C34         2.7480    4.4170   -1.2150 cx        1 AAX     -0.096900
      8 C33         2.1030    4.9900    0.0060 cx        1 AAX     -0.096900
      9 C6          1.8290   -1.3190   -1.2370 ca        1 AAX     -0.538500
     10 C5          3.0710   -1.7160   -1.7880 ca        1 AAX      0.076000
     11 C4          3.1540   -2.6750   -2.7770 ca        1 AAX     -0.212000
     12 C7          0.6610   -1.9340   -1.7190 ca        1 AAX      0.096000
     13 C8          0.7190   -2.9150   -2.7110 ca        1 AAX     -0.105400
     14 C3          1.9850   -3.2950   -3.2620 ca        1 AAX      0.285100
     15 O2          1.9580   -4.2540   -4.2150 os        1 AAX     -0.327900
     16 C1          3.2100   -4.6920   -4.7840 c3        1 AAX      0.111700
     17 N9         -0.5100   -3.5610   -3.1860 n4        1 AAX     -0.547100
     18 C10        -1.3930   -2.6490   -3.8810 cc        1 AAX      0.413300
     19 O14        -2.1630   -3.2190   -4.9240 os        1 AAX     -0.345800
     20 C13        -2.9290   -2.1520   -5.4070 cc        1 AAX      0.387900
     21 C12        -2.5780   -1.0070   -4.6540 cd        1 AAX      0.202900
     22 N11        -1.6210   -1.3300   -3.7130 nd        1 AAX     -0.572000
     23 C15        -3.8500   -2.4040   -6.4730 ca        1 AAX     -0.214500
     24 C20        -3.9420   -3.6760   -7.0630 ca        1 AAX     -0.070000
     25 C19        -4.8540   -3.9140   -8.0970 cp        1 AAX     -0.011000
     26 C18        -5.6750   -2.8620   -8.5390 ca        1 AAX     -0.052000
     27 C17        -5.5830   -1.5980   -7.9560 ca        1 AAX     -0.124000
     28 C16        -4.6780   -1.3590   -6.9260 ca        1 AAX     -0.070000
     29 C21        -4.9490   -5.2370   -8.6990 cp        1 AAX     -0.193300
     30 C26        -4.8220   -6.3990   -7.9050 ca        1 AAX      0.408200
     31 N25        -4.8880   -7.6490   -8.3940 nb        1 AAX     -0.656000
     32 C24        -5.0980   -7.7900   -9.7180 ca        1 AAX      0.420200
     33 C23        -5.2480   -6.6980  -10.5950 ca        1 AAX     -0.233300
     34 C22        -5.1700   -5.4070  -10.0750 ca        1 AAX     -0.070000
     35 H30         0.8310    1.3430   -1.5380 hn        1 AAX      0.454800
     36 H311        0.6020    2.3250    0.6370 hx        1 AAX      0.118200
     37 H312        2.4420    2.4290    0.7050 hx        1 AAX      0.118200
     38 H32         0.5350    3.9540   -1.2360 hc        1 AAX      0.106700
     39 H341        2.6970    4.9800   -2.1670 hc        1 AAX      0.097200
     40 H342        3.7040    3.8740   -1.1080 hc        1 AAX      0.097200
     41 H331        2.5910    4.8560    0.9900 hc        1 AAX      0.097200
     42 H332        1.5740    5.9600   -0.0610 hc        1 AAX      0.097200
     43 H5          4.0070   -1.2620   -1.3970 ha        1 AAX      0.193000
     44 H4          4.1390   -2.9660   -3.1850 ha        1 AAX      0.201000
     45 H7         -0.3180   -1.6390   -1.2810 ha        1 AAX      0.196000
     46 H11         2.8750   -5.4720   -5.5180 h1        1 AAX      0.090700
     47 H12A        3.8540   -5.1350   -3.9870 h1        1 AAX      0.090700
     48 H13         3.7100   -3.8380   -5.3010 h1        1 AAX      0.090700
     49 HN9        -0.2710   -4.3320   -3.8390 hn        1 AAX      0.493300
     50 H12        -2.9710    0.0100   -4.7450 h4        1 AAX      0.091100
     51 H20        -3.2880   -4.4910   -6.7130 ha        1 AAX      0.145000
     52 H18        -6.4040   -3.0420   -9.3480 ha        1 AAX      0.167000
     53 H17        -6.2350   -0.7830   -8.3110 ha        1 AAX      0.166000
     54 H16        -4.6140   -0.3610   -6.4680 ha        1 AAX      0.144000
     55 H26        -4.6750   -6.3230   -6.8130 h4        1 AAX      0.013100
     56 H24        -5.1530   -8.8300  -10.0900 h4        1 AAX      0.043100
     57 H23        -5.4230   -6.8670  -11.6670 ha        1 AAX      0.164000
     58 H22        -5.2750   -4.5330  -10.7370 ha        1 AAX      0.146000
     59 H302        2.4620    1.4840   -1.5160 hn        1 AAX      0.454800
     60 H92        -1.0250   -3.9510   -2.3770 hn        1 AAX      0.493300
@<TRIPOS>BOND
     1    1    2 2   
     2    2    3 2   
     3    2    4 1   
     4    2    9 1   
     5    4    5 1   
     6    4   35 1   
     7    4   59 1   
     8    5    6 1   
     9    5   36 1   
    10    5   37 1   
    11    6    7 1   
    12    6    8 1   
    13    6   38 1   
    14    7    8 1   
    15    7   39 1   
    16    7   40 1   
    17    8   41 1   
    18    8   42 1   
    19    9   10 ar  
    20    9   12 ar  
    21   10   11 ar  
    22   10   43 1   
    23   11   14 ar  
    24   11   44 1   
    25   12   13 ar  
    26   12   45 1   
    27   13   14 ar  
    28   13   17 1   
    29   14   15 1   
    30   15   16 1   
    31   16   46 1   
    32   16   47 1   
    33   16   48 1   
    34   17   18 1   
    35   17   49 1   
    36   17   60 1   
    37   18   19 1   
    38   18   22 2   
    39   19   20 1   
    40   20   21 2   
    41   20   23 1   
    42   21   22 1   
    43   21   50 1   
    44   23   24 ar  
    45   23   28 ar  
    46   24   25 ar  
    47   24   51 1   
    48   25   26 ar  
    49   25   29 1   
    50   26   27 ar  
    51   26   52 1   
    52   27   28 ar  
    53   27   53 1   
    54   28   54 1   
    55   29   30 ar  
    56   29   34 ar  
    57   30   31 ar  
    58   30   55 1   
    59   31   32 ar  
    60   32   33 ar  
    61   32   56 1   
    62   33   34 ar  
    63   33   57 1   
    64   34   58 1   
@<TRIPOS>SUBSTRUCTURE
     1 AAX         1 TEMP              0 ****  ****    0 ROOT
