@<TRIPOS>MOLECULE
AAX
   59    63     1     0     0
SMALL
bcc


@<TRIPOS>ATOM
      1 O29         0.9250   -0.5140    0.8110 o         1 AAX     -0.577300
      2 S27         2.0350   -0.4030    0.0010 sy        1 AAX      1.497200
      3 O28         3.2180    0.1190    0.4870 o         1 AAX     -0.577300
      4 N30         1.4780    0.9580   -1.2100 ny        1 AAX     -0.701900
      5 C31         0.9010    2.1210   -0.4910 c3        1 AAX      0.136800
      6 C32         0.4750    3.2270   -1.4090 cx        1 AAX     -0.197700
      7 C34         1.5110    4.1650   -1.9800 cx        1 AAX     -0.106400
      8 C33         0.5830    4.6470   -0.9110 cx        1 AAX     -0.106400
      9 C6          2.2170   -1.5500   -1.0960 ca        1 AAX     -0.571500
     10 C5          3.4820   -2.0680   -1.4420 ca        1 AAX      0.053000
     11 C4          3.6140   -3.0640   -2.3910 ca        1 AAX     -0.224000
     12 C7          1.0790   -2.0880   -1.7380 ca        1 AAX      0.011000
     13 C8          1.1780   -3.0300   -2.7610 ca        1 AAX      0.085600
     14 C3          2.4830   -3.5500   -3.0710 ca        1 AAX      0.229100
     15 O2          2.5250   -4.5040   -4.0380 os        1 AAX     -0.309900
     16 C1          3.7940   -5.1050   -4.3290 c3        1 AAX      0.106700
     17 N9          0.0130   -3.4960   -3.4120 nu        1 AAX     -0.663300
     18 C10        -0.8110   -2.5270   -3.9990 cc        1 AAX      0.684300
     19 O14        -1.7240   -3.0100   -4.9640 os        1 AAX     -0.373800
     20 C13        -2.4900   -1.8820   -5.3240 cc        1 AAX      0.249900
     21 C12        -2.0100   -0.8000   -4.5920 cd        1 AAX      0.240900
     22 N11        -0.9580   -1.2040   -3.7640 nd        1 AAX     -0.747000
     23 C15        -3.5330   -2.0630   -6.2970 ca        1 AAX     -0.144500
     24 C20        -3.7750   -3.3230   -6.8640 ca        1 AAX     -0.090000
     25 C19        -4.7950   -3.4910   -7.8090 cp        1 AAX     -0.023000
     26 C18        -5.5730   -2.3850   -8.1820 ca        1 AAX     -0.096000
     27 C17        -5.3330   -1.1330   -7.6190 ca        1 AAX     -0.125000
     28 C16        -4.3190   -0.9640   -6.6790 ca        1 AAX     -0.103000
     29 C21        -5.0430   -4.8030   -8.3930 cp        1 AAX     -0.168300
     30 C26        -4.9460   -5.9740   -7.6060 ca        1 AAX      0.407200
     31 N25        -5.1560   -7.2130   -8.0820 nb        1 AAX     -0.660000
     32 C24        -5.4810   -7.3320   -9.3840 ca        1 AAX      0.404200
     33 C23        -5.6090   -6.2320  -10.2520 ca        1 AAX     -0.241300
     34 C22        -5.3860   -4.9520   -9.7450 ca        1 AAX     -0.079000
     35 H30         0.7810    0.5970   -1.8650 hn        1 AAX      0.450800
     36 H311        0.0100    1.7530    0.1000 hx        1 AAX      0.109200
     37 H312        1.6880    2.4910    0.2320 hx        1 AAX      0.109200
     38 H32        -0.3990    2.9610   -2.0370 hc        1 AAX      0.104700
     39 H341        1.3810    4.5300   -3.0150 hc        1 AAX      0.090700
     40 H342        2.5760    4.0070   -1.7300 hc        1 AAX      0.090700
     41 H331       -0.2270    5.3540   -1.1720 hc        1 AAX      0.090700
     42 H332        0.9780    4.8340    0.1050 hc        1 AAX      0.090700
     43 H5          4.3850   -1.6690   -0.9400 ha        1 AAX      0.174000
     44 H4          4.6140   -3.4670   -2.6230 ha        1 AAX      0.176000
     45 H7          0.0750   -1.7470   -1.4110 ha        1 AAX      0.182000
     46 H11         4.4990   -4.3380   -4.7310 h1        1 AAX      0.073033
     47 H12A        4.2060   -5.6010   -3.4180 h1        1 AAX      0.073033
     48 H13         3.5310   -5.8600   -5.1150 h1        1 AAX      0.073033
     49 HN9         0.1360   -4.3150   -3.9800 hn        1 AAX      0.460800
     50 H12        -2.3500    0.2370   -4.6010 h4        1 AAX      0.056100
     51 H20        -3.1540   -4.1820   -6.5670 ha        1 AAX      0.149000
     52 H18        -6.3830   -2.5100   -8.9180 ha        1 AAX      0.148000
     53 H17        -5.9510   -0.2720   -7.9150 ha        1 AAX      0.146000
     54 H16        -4.1350    0.0250   -6.2360 ha        1 AAX      0.135000
     55 H26        -4.6950   -5.9100   -6.5310 h4        1 AAX      0.023100
     56 H24        -5.6490   -8.3640   -9.7460 h4        1 AAX      0.031100
     57 H23        -5.8780   -6.3840  -11.3060 ha        1 AAX      0.152000
     58 H22        -5.4700   -4.0710  -10.3980 ha        1 AAX      0.143000
     59 H302        2.2640    1.2860   -1.7680 hn        1 AAX      0.450800
@<TRIPOS>BOND
     1    1    2 2   
     2    2    3 2   
     3    2    4 1   
     4    2    9 1   
     5    4    5 1   
     6    4   35 1   
     7    4   59 1   
     8    5    6 1   
     9    5   36 1   
    10    5   37 1   
    11    6    7 1   
    12    6    8 1   
    13    6   38 1   
    14    7    8 1   
    15    7   39 1   
    16    7   40 1   
    17    8   41 1   
    18    8   42 1   
    19    9   10 ar  
    20    9   12 ar  
    21   10   11 ar  
    22   10   43 1   
    23   11   14 ar  
    24   11   44 1   
    25   12   13 ar  
    26   12   45 1   
    27   13   14 ar  
    28   13   17 1   
    29   14   15 1   
    30   15   16 1   
    31   16   46 1   
    32   16   47 1   
    33   16   48 1   
    34   17   18 1   
    35   17   49 1   
    36   18   19 1   
    37   18   22 2   
    38   19   20 1   
    39   20   21 2   
    40   20   23 1   
    41   21   22 1   
    42   21   50 1   
    43   23   24 ar  
    44   23   28 ar  
    45   24   25 ar  
    46   24   51 1   
    47   25   26 ar  
    48   25   29 1   
    49   26   27 ar  
    50   26   52 1   
    51   27   28 ar  
    52   27   53 1   
    53   28   54 1   
    54   29   30 ar  
    55   29   34 ar  
    56   30   31 ar  
    57   30   55 1   
    58   31   32 ar  
    59   32   33 ar  
    60   32   56 1   
    61   33   34 ar  
    62   33   57 1   
    63   34   58 1   
@<TRIPOS>SUBSTRUCTURE
     1 AAX         1 TEMP              0 ****  ****    0 ROOT
