@<TRIPOS>MOLECULE
AAX
   58    62     1     0     0
SMALL
bcc


@<TRIPOS>ATOM
      1 O29        -0.3160   -2.2670    5.2630 o         1 AAX     -0.654300
      2 S27        -0.0500   -0.9280    5.6200 sy        1 AAX      1.516200
      3 O28         0.5910   -0.7060    6.8600 o         1 AAX     -0.654300
      4 N30        -1.4030   -0.0550    5.5730 n3        1 AAX     -0.915100
      5 C31        -2.6050   -0.4350    4.8850 c3        1 AAX      0.251800
      6 C32        -3.0620    0.5620    3.8480 cx        1 AAX     -0.154700
      7 C34        -3.7070    1.8470    4.2940 cx        1 AAX     -0.127900
      8 C33        -4.5410    0.7730    3.6620 cx        1 AAX     -0.127900
      9 C6          0.9180   -0.2290    4.4190 ca        1 AAX     -0.401500
     10 C5          1.9190    0.6850    4.7640 ca        1 AAX      0.012000
     11 C4          2.7430    1.2470    3.7980 ca        1 AAX     -0.221000
     12 C7          0.7570   -0.5870    3.0770 ca        1 AAX      0.033000
     13 C8          1.5650   -0.0380    2.0690 ca        1 AAX      0.051600
     14 C3          2.5690    0.9020    2.4520 ca        1 AAX      0.159100
     15 O2          3.3290    1.4180    1.4260 os        1 AAX     -0.338900
     16 C1          4.3990    2.2850    1.7940 c3        1 AAX      0.115700
     17 N9          1.4420   -0.4780    0.7240 nh        1 AAX     -0.653300
     18 C10         0.2230   -0.2650    0.0780 cc        1 AAX      0.703300
     19 O14         0.2920   -0.2100   -1.3390 os        1 AAX     -0.396800
     20 C13        -1.0520   -0.1210   -1.7560 cc        1 AAX      0.190900
     21 C12        -1.8450   -0.1120   -0.6130 cd        1 AAX      0.269900
     22 N11        -1.0500   -0.1990    0.5310 nd        1 AAX     -0.711000
     23 C15        -1.3160   -0.0660   -3.1680 ca        1 AAX     -0.111500
     24 C20        -0.2670   -0.0790   -4.0980 ca        1 AAX     -0.098000
     25 C19        -0.5350   -0.0220   -5.4710 cp        1 AAX     -0.033000
     26 C18        -1.8650    0.0480   -5.9100 ca        1 AAX     -0.113000
     27 C17        -2.9090    0.0600   -4.9870 ca        1 AAX     -0.127000
     28 C16        -2.6440    0.0040   -3.6210 ca        1 AAX     -0.112000
     29 C21         0.5600   -0.0360   -6.4340 cp        1 AAX     -0.153300
     30 C26         1.6960   -0.8540   -6.2270 ca        1 AAX      0.406200
     31 N25         2.7380   -0.9110   -7.0750 nb        1 AAX     -0.663000
     32 C24         2.6850   -0.1410   -8.1800 ca        1 AAX      0.395200
     33 C23         1.6020    0.7050   -8.4800 ca        1 AAX     -0.246300
     34 C22         0.5280    0.7550   -7.5920 ca        1 AAX     -0.084000
     35 H30        -1.4640    0.8380    6.0000 hn        1 AAX      0.447800
     36 H311       -3.4270   -0.5770    5.6480 h1        1 AAX      0.059700
     37 H312       -2.4350   -1.4320    4.3800 h1        1 AAX      0.059700
     38 H32        -2.4110    0.5860    2.9510 hc        1 AAX      0.103700
     39 H341       -3.8190    2.0420    5.3760 hc        1 AAX      0.070700
     40 H342       -3.5010    2.7720    3.7280 hc        1 AAX      0.070700
     41 H331       -4.9280    0.9230    2.6390 hc        1 AAX      0.070700
     42 H332       -5.2490    0.2040    4.2900 hc        1 AAX      0.070700
     43 H5          2.0650    0.9510    5.8280 ha        1 AAX      0.163000
     44 H4          3.5240    1.9600    4.0960 ha        1 AAX      0.148000
     45 H7         -0.0190   -1.3310    2.8110 ha        1 AAX      0.176000
     46 H11         4.8780    2.5290    0.8110 h1        1 AAX      0.053367
     47 H12A        4.0020    3.2090    2.2800 h1        1 AAX      0.053367
     48 H13         5.1190    1.7590    2.4660 h1        1 AAX      0.053367
     49 HN9         2.2270   -0.2310    0.1460 hn        1 AAX      0.440800
     50 H12        -2.9310   -0.0520   -0.5300 h4        1 AAX      0.051100
     51 H20         0.7730   -0.1290   -3.7400 ha        1 AAX      0.150000
     52 H18        -2.0850    0.0850   -6.9880 ha        1 AAX      0.137000
     53 H17        -3.9500    0.1110   -5.3390 ha        1 AAX      0.137000
     54 H16        -3.4710    0.0120   -2.8960 ha        1 AAX      0.137000
     55 H26         1.7650   -1.5020   -5.3340 h4        1 AAX      0.028100
     56 H24         3.5560   -0.2100   -8.8550 h4        1 AAX      0.023100
     57 H23         1.6090    1.3130   -9.3940 ha        1 AAX      0.144000
     58 H22        -0.3330    1.4110   -7.7920 ha        1 AAX      0.141000
@<TRIPOS>BOND
     1    1    2 2   
     2    2    3 2   
     3    2    4 1   
     4    2    9 1   
     5    4    5 1   
     6    4   35 1   
     7    5    6 1   
     8    5   36 1   
     9    5   37 1   
    10    6    7 1   
    11    6    8 1   
    12    6   38 1   
    13    7    8 1   
    14    7   39 1   
    15    7   40 1   
    16    8   41 1   
    17    8   42 1   
    18    9   10 ar  
    19    9   12 ar  
    20   10   11 ar  
    21   10   43 1   
    22   11   14 ar  
    23   11   44 1   
    24   12   13 ar  
    25   12   45 1   
    26   13   14 ar  
    27   13   17 1   
    28   14   15 1   
    29   15   16 1   
    30   16   46 1   
    31   16   47 1   
    32   16   48 1   
    33   17   18 1   
    34   17   49 1   
    35   18   19 1   
    36   18   22 2   
    37   19   20 1   
    38   20   21 2   
    39   20   23 1   
    40   21   22 1   
    41   21   50 1   
    42   23   24 ar  
    43   23   28 ar  
    44   24   25 ar  
    45   24   51 1   
    46   25   26 ar  
    47   25   29 1   
    48   26   27 ar  
    49   26   52 1   
    50   27   28 ar  
    51   27   53 1   
    52   28   54 1   
    53   29   30 ar  
    54   29   34 ar  
    55   30   31 ar  
    56   30   55 1   
    57   31   32 ar  
    58   32   33 ar  
    59   32   56 1   
    60   33   34 ar  
    61   33   57 1   
    62   34   58 1   
@<TRIPOS>SUBSTRUCTURE
     1 AAX         1 TEMP              0 ****  ****    0 ROOT
