@<TRIPOS>MOLECULE
AAZ
   52    43     1     0     0
SMALL
bcc


@<TRIPOS>ATOM
      1 O4         -1.1820   -2.3450   -5.8820 o         1 AAZ     -0.934500
      2 S3         -2.4510   -1.7420   -5.5810 ss        1 AAZ      2.851000
      3 O5         -2.7430   -1.0760   -6.8190 o         1 AAZ     -0.934500
      4 C2         -3.6720   -2.9670   -5.2060 c2        1 AAZ     -0.853000
      5 C1         -3.3470   -4.2450   -5.9460 c3        1 AAZ     -0.193000
      6 C6         -2.3130   -0.5840   -4.2450 c1        1 AAZ     -0.851000
      7 C7         -3.4550   -0.0690   -3.6530 c2        1 AAZ      0.011000
      8 C8         -3.3480    0.8470   -2.6190 c1        1 AAZ     -0.220000
      9 C9         -2.0980    1.2480   -2.1760 c1        1 AAZ      0.116000
     10 O10        -1.9890    2.2080   -1.1570 os        1 AAZ     -0.220000
     11 C11        -2.5290    1.7940    0.0780 c3        1 AAZ     -0.074000
     12 C12        -0.9540    0.7340   -2.7680 c1        1 AAZ     -0.025000
     13 C31        -1.0630   -0.1830   -3.8020 c1        1 AAZ      0.028000
     14 N13         0.3200    1.2240   -2.3880 n3        1 AAZ     -0.173000
     15 C14         1.0370    0.5960   -1.3390 c2        1 AAZ      0.112000
     16 N15         1.3070   -0.7310   -1.2410 n2        1 AAZ     -0.182000
     17 C16         2.0790   -0.9190   -0.1580 c1        1 AAZ     -0.134000
     18 C17         2.2940    0.3020    0.4270 c2        1 AAZ     -0.040000
     19 O18         1.6520    1.2290   -0.3020 os        1 AAZ     -0.134000
     20 C19         2.9870    0.5300    1.6030 c1        1 AAZ     -0.015000
     21 C20         4.3680    0.6530    1.5810 c1        1 AAZ     -0.125500
     22 C21         5.0600    0.9000    2.7560 c1        1 AAZ     -0.125500
     23 C22         4.3730    1.0250    3.9530 c1        1 AAZ     -0.110000
     24 C23         2.9920    0.9020    3.9750 c1        1 AAZ     -0.037000
     25 C24         2.2990    0.6540    2.8000 c1        1 AAZ     -0.069000
     26 C25         2.3020    1.0550    5.1670 c1        1 AAZ      0.022000
     27 C26         2.2910    0.0290    6.0990 c1        1 AAZ     -0.125500
     28 C27         1.6050    0.1780    7.2690 c1        1 AAZ     -0.125500
     29 C28         0.9300    1.3370    7.5210 c1        1 AAZ     -0.125500
     30 C29         0.9420    2.3620    6.5880 c1        1 AAZ     -0.125500
     31 N30         1.6270    2.2120    5.4200 n1        1 AAZ     -0.130000
     32 H21A       -3.6760   -3.1400   -4.2440 ha        1 AAZ      0.153500
     33 H22A       -4.5530   -2.6450   -5.4830 ha        1 AAZ      0.153500
     34 H11        -4.1160   -4.8510   -5.9050 hc        1 AAZ      0.091333
     35 H12        -2.5690   -4.6740   -5.5310 hc        1 AAZ      0.091333
     36 H13A       -3.1450   -4.0380   -6.8830 hc        1 AAZ      0.091333
     37 H7         -4.3360   -0.3520   -3.9650 ha        1 AAZ      0.166000
     38 H8         -4.1530    1.2100   -2.2030 ha        1 AAZ      0.149000
     39 H111       -2.1240    0.9390    0.3410 h1        1 AAZ      0.093000
     40 H112       -3.4990    1.6830   -0.0100 h1        1 AAZ      0.093000
     41 H113       -2.3380    2.4710    0.7620 h1        1 AAZ      0.093000
     42 H31        -0.2570   -0.5460   -4.2190 ha        1 AAZ      0.179000
     43 H13         0.6750    1.9470   -2.8140 hn        1 AAZ      0.237000
     44 H16         2.4260   -1.7750    0.1570 DU        1 AAZ      0.189000
     45 H20         4.8530    0.5650    0.7380 ha        1 AAZ      0.144000
     46 H21         6.0320    0.9870    2.7400 ha        1 AAZ      0.144000
     47 H22         4.8600    1.1990    4.7800 ha        1 AAZ      0.137000
     48 H24         1.3280    0.5680    2.8150 ha        1 AAZ      0.162000
     49 H26         2.7740   -0.7990    5.9180 ha        1 AAZ      0.144000
     50 H27         1.5970   -0.5440    7.9260 ha        1 AAZ      0.144000
     51 H28         0.4390    1.4440    8.3580 ha        1 AAZ      0.144000
     52 H29         0.4600    3.1900    6.7680 ha        1 AAZ      0.144000
@<TRIPOS>BOND
     1    1    2 1   
     2    2    3 1   
     3    4    5 1   
     4    4   32 1   
     5    4   33 1   
     6    5   34 1   
     7    5   35 1   
     8    5   36 1   
     9    6    7 1   
    10    6   13 1   
    11    7    8 1   
    12    7   37 1   
    13    8   38 1   
    14    9   10 1   
    15    9   12 1   
    16   10   11 1   
    17   11   39 1   
    18   11   40 1   
    19   11   41 1   
    20   12   14 1   
    21   13   42 1   
    22   14   15 1   
    23   14   43 1   
    24   15   16 1   
    25   15   19 1   
    26   16   17 1   
    27   17   18 1   
    28   18   19 1   
    29   18   20 1   
    30   20   25 1   
    31   21   22 1   
    32   21   45 1   
    33   22   46 1   
    34   23   24 1   
    35   23   47 1   
    36   25   48 1   
    37   26   31 1   
    38   27   28 1   
    39   27   49 1   
    40   28   50 1   
    41   29   30 1   
    42   29   51 1   
    43   30   52 1   
@<TRIPOS>SUBSTRUCTURE
     1 AAZ         1 TEMP              0 ****  ****    0 ROOT
