@<TRIPOS>MOLECULE
AAZ
   52    55     1     0     0
SMALL
bcc


@<TRIPOS>ATOM
      1 O4          0.3200    0.2150    7.2240 o         1 AAZ     -0.655300
      2 S3          0.8150    0.5150    5.9440 sy        1 AAZ      1.387300
      3 O5          1.2650    1.8230    5.7190 o         1 AAZ     -0.655300
      4 C2          2.0520   -0.5930    5.5360 c3        1 AAZ     -0.313600
      5 C1          3.2700   -0.4030    6.4020 c3        1 AAZ     -0.075100
      6 C6         -0.3250    0.0830    4.7910 ca        1 AAZ     -0.406500
      7 C7         -1.4500   -0.6640    5.1530 ca        1 AAZ      0.011000
      8 C8         -2.4100   -1.0180    4.2130 ca        1 AAZ     -0.220000
      9 C9         -2.2480   -0.6340    2.8770 ca        1 AAZ      0.161100
     10 O10        -3.1390   -0.9530    1.8760 os        1 AAZ     -0.336900
     11 C11        -4.3170   -1.6550    2.2650 c3        1 AAZ      0.115700
     12 C12        -1.1160    0.1390    2.4770 ca        1 AAZ      0.056600
     13 C31        -0.1780    0.4890    3.4600 ca        1 AAZ      0.028000
     14 N13        -0.9780    0.6160    1.1460 nh        1 AAZ     -0.652300
     15 C14         0.1690    0.2390    0.4420 cc        1 AAZ      0.697300
     16 N15         1.4310   -0.0330    0.8400 nd        1 AAZ     -0.708000
     17 C16         2.1590   -0.2120   -0.3390 cd        1 AAZ      0.265900
     18 C17         1.3340   -0.0500   -1.4470 cc        1 AAZ      0.196900
     19 O18         0.0370    0.2340   -0.9720 os        1 AAZ     -0.392800
     20 C19         1.5330   -0.1070   -2.8690 ca        1 AAZ     -0.122500
     21 C20         2.8100   -0.3990   -3.3760 ca        1 AAZ     -0.107000
     22 C21         3.0160   -0.4550   -4.7510 ca        1 AAZ     -0.133000
     23 C22         1.9610   -0.2290   -5.6330 ca        1 AAZ     -0.110000
     24 C23         0.6820    0.0580   -5.1370 cp        1 AAZ     -0.144500
     25 C24         0.4710    0.1270   -3.7560 ca        1 AAZ     -0.069000
     26 C25        -0.4310    0.2810   -6.0780 cp        1 AAZ      0.457800
     27 C26        -0.5300   -0.5410   -7.2250 ca        1 AAZ     -0.237300
     28 C27        -1.5780   -0.3310   -8.1220 ca        1 AAZ     -0.093000
     29 C28        -2.4980    0.6830   -7.8620 ca        1 AAZ     -0.246300
     30 C29        -2.3280    1.4510   -6.6950 ca        1 AAZ      0.398200
     31 N30        -1.3290    1.2680   -5.8160 nb        1 AAZ     -0.656000
     32 H21A        2.3560   -0.4840    4.4600 h1        1 AAZ      0.114200
     33 H22A        1.7000   -1.6530    5.6400 h1        1 AAZ      0.114200
     34 H11         4.0700   -1.1250    6.1130 hc        1 AAZ      0.052033
     35 H12         3.6740    0.6340    6.2850 hc        1 AAZ      0.052033
     36 H13A        3.0160   -0.5730    7.4780 hc        1 AAZ      0.052033
     37 H7         -1.5800   -0.9690    6.2080 ha        1 AAZ      0.166000
     38 H8         -3.2870   -1.6020    4.5260 ha        1 AAZ      0.149000
     39 H111       -4.8790   -1.7620    1.3020 h1        1 AAZ      0.053700
     40 H112       -4.0540   -2.6570    2.6830 h1        1 AAZ      0.053700
     41 H113       -4.9050   -1.0580    3.0030 h1        1 AAZ      0.053700
     42 H31         0.6980    1.1090    3.1840 ha        1 AAZ      0.179000
     43 H13        -1.8130    0.5180    0.5940 hn        1 AAZ      0.441800
     44 H16         3.2250   -0.4410   -0.3020 h4        1 AAZ      0.052100
     45 H20         3.6460   -0.5800   -2.6830 ha        1 AAZ      0.136000
     46 H21         4.0190   -0.6770   -5.1440 ha        1 AAZ      0.137000
     47 H22         2.1350   -0.2650   -6.7190 ha        1 AAZ      0.137000
     48 H24        -0.5270    0.3680   -3.3550 ha        1 AAZ      0.162000
     49 H26         0.2070   -1.3370   -7.3960 ha        1 AAZ      0.146000
     50 H27        -1.6740   -0.9600   -9.0190 ha        1 AAZ      0.139000
     51 H28        -3.3360    0.8830   -8.5430 ha        1 AAZ      0.145000
     52 H29        -3.0330    2.2650   -6.4470 h4        1 AAZ      0.024100
@<TRIPOS>BOND
     1    1    2 2   
     2    2    3 2   
     3    2    4 1   
     4    2    6 1   
     5    4    5 1   
     6    4   32 1   
     7    4   33 1   
     8    5   34 1   
     9    5   35 1   
    10    5   36 1   
    11    6    7 ar  
    12    6   13 ar  
    13    7    8 ar  
    14    7   37 1   
    15    8    9 ar  
    16    8   38 1   
    17    9   10 1   
    18    9   12 ar  
    19   10   11 1   
    20   11   39 1   
    21   11   40 1   
    22   11   41 1   
    23   12   13 ar  
    24   12   14 1   
    25   13   42 1   
    26   14   15 1   
    27   14   43 1   
    28   15   16 2   
    29   15   19 1   
    30   16   17 1   
    31   17   18 2   
    32   17   44 1   
    33   18   19 1   
    34   18   20 1   
    35   20   21 ar  
    36   20   25 ar  
    37   21   22 ar  
    38   21   45 1   
    39   22   23 ar  
    40   22   46 1   
    41   23   24 ar  
    42   23   47 1   
    43   24   25 ar  
    44   24   26 1   
    45   25   48 1   
    46   26   27 ar  
    47   26   31 ar  
    48   27   28 ar  
    49   27   49 1   
    50   28   29 ar  
    51   28   50 1   
    52   29   30 ar  
    53   29   51 1   
    54   30   31 ar  
    55   30   52 1   
@<TRIPOS>SUBSTRUCTURE
     1 AAZ         1 TEMP              0 ****  ****    0 ROOT
