@<TRIPOS>MOLECULE
AAZ
   52    55     1     0     0
SMALL
bcc


@<TRIPOS>ATOM
      1 O4         -0.7210    0.4290   -0.9570 o         1 AAZ     -0.655300
      2 S3          0.4390    0.5570   -0.1750 sy        1 AAZ      1.387300
      3 O5          0.2700    0.8620    1.1820 o         1 AAZ     -0.655300
      4 C2          1.3880   -0.8570   -0.3280 c3        1 AAZ     -0.313600
      5 C1          0.7110   -2.0470    0.2990 c3        1 AAZ     -0.075100
      6 C6          1.4780    1.6590   -0.8960 ca        1 AAZ     -0.406500
      7 C7          1.2230    2.1320   -2.1880 ca        1 AAZ      0.011000
      8 C8          2.0660    3.0550   -2.7940 ca        1 AAZ     -0.220000
      9 C9          3.1980    3.5150   -2.1110 ca        1 AAZ      0.161100
     10 O10         4.0960    4.4160   -2.6390 os        1 AAZ     -0.336900
     11 C11         3.7920    4.9450   -3.9280 c3        1 AAZ      0.115700
     12 C12         3.4800    3.0600   -0.7880 ca        1 AAZ      0.056600
     13 C31         2.5950    2.1390   -0.2050 ca        1 AAZ      0.028000
     14 N13         4.5720    3.5820   -0.0430 nu        1 AAZ     -0.652300
     15 C14         5.5320    2.6750    0.4150 cc        1 AAZ      0.697300
     16 N15         5.4520    1.3780    0.7880 nd        1 AAZ     -0.708000
     17 C16         6.7190    1.0570    1.2820 cd        1 AAZ      0.265900
     18 C17         7.5620    2.1620    1.2040 cc        1 AAZ      0.196900
     19 O18         6.8230    3.2210    0.6380 os        1 AAZ     -0.392800
     20 C19         8.9310    2.4120    1.5650 ca        1 AAZ     -0.122500
     21 C20         9.6980    1.3760    2.1190 ca        1 AAZ     -0.107000
     22 C21        11.0250    1.6070    2.4750 ca        1 AAZ     -0.133000
     23 C22        11.6000    2.8600    2.2780 ca        1 AAZ     -0.110000
     24 C23        10.8440    3.8990    1.7190 cp        1 AAZ     -0.144500
     25 C24         9.5080    3.6770    1.3710 ca        1 AAZ     -0.069000
     26 C25        11.4670    5.2180    1.5000 cp        1 AAZ      0.457800
     27 C26        12.7950    5.2720    1.0180 ca        1 AAZ     -0.237300
     28 C27        13.3920    6.5170    0.8140 ca        1 AAZ     -0.093000
     29 C28        12.6620    7.6720    1.0910 ca        1 AAZ     -0.246300
     30 C29        11.3440    7.5250    1.5640 ca        1 AAZ      0.398200
     31 N30        10.7460    6.3400    1.7670 nb        1 AAZ     -0.656000
     32 H21A        1.6010   -1.0910   -1.4040 h1        1 AAZ      0.114200
     33 H22A        2.3950   -0.7240    0.1520 h1        1 AAZ      0.114200
     34 H11         0.5270   -1.8640    1.3870 hc        1 AAZ      0.052033
     35 H12         1.3500   -2.9570    0.2010 hc        1 AAZ      0.052033
     36 H13A       -0.2670   -2.2500   -0.2030 hc        1 AAZ      0.052033
     37 H7          0.3290    1.7690   -2.7290 ha        1 AAZ      0.166000
     38 H8          1.8390    3.4130   -3.8080 ha        1 AAZ      0.149000
     39 H111        3.7890    4.1310   -4.6920 h1        1 AAZ      0.053700
     40 H112        2.8120    5.4810   -3.9120 h1        1 AAZ      0.053700
     41 H113        4.6340    5.6600   -4.1130 h1        1 AAZ      0.053700
     42 H31         2.7750    1.7880    0.8300 ha        1 AAZ      0.179000
     43 H13         4.9870    4.3990   -0.4550 hn        1 AAZ      0.441800
     44 H16         6.9290    0.0560    1.6590 h4        1 AAZ      0.052100
     45 H20         9.2480    0.3840    2.2760 ha        1 AAZ      0.136000
     46 H21        11.6210    0.7940    2.9170 ha        1 AAZ      0.137000
     47 H22        12.6460    3.0360    2.5710 ha        1 AAZ      0.137000
     48 H24         8.8980    4.4910    0.9460 ha        1 AAZ      0.162000
     49 H26        13.3410    4.3440    0.8010 ha        1 AAZ      0.146000
     50 H27        14.4240    6.5830    0.4390 ha        1 AAZ      0.139000
     51 H28        13.0940    8.6700    0.9470 ha        1 AAZ      0.145000
     52 H29        10.7260    8.4120    1.7960 h4        1 AAZ      0.024100
@<TRIPOS>BOND
     1    1    2 2   
     2    2    3 2   
     3    2    4 1   
     4    2    6 1   
     5    4    5 1   
     6    4   32 1   
     7    4   33 1   
     8    5   34 1   
     9    5   35 1   
    10    5   36 1   
    11    6    7 ar  
    12    6   13 ar  
    13    7    8 ar  
    14    7   37 1   
    15    8    9 ar  
    16    8   38 1   
    17    9   10 1   
    18    9   12 ar  
    19   10   11 1   
    20   11   39 1   
    21   11   40 1   
    22   11   41 1   
    23   12   13 ar  
    24   12   14 1   
    25   13   42 1   
    26   14   15 1   
    27   14   43 1   
    28   15   16 2   
    29   15   19 1   
    30   16   17 1   
    31   17   18 2   
    32   17   44 1   
    33   18   19 1   
    34   18   20 1   
    35   20   21 ar  
    36   20   25 ar  
    37   21   22 ar  
    38   21   45 1   
    39   22   23 ar  
    40   22   46 1   
    41   23   24 ar  
    42   23   47 1   
    43   24   25 ar  
    44   24   26 1   
    45   25   48 1   
    46   26   27 ar  
    47   26   31 ar  
    48   27   28 ar  
    49   27   49 1   
    50   28   29 ar  
    51   28   50 1   
    52   29   30 ar  
    53   29   51 1   
    54   30   31 ar  
    55   30   52 1   
@<TRIPOS>SUBSTRUCTURE
     1 AAZ         1 TEMP              0 ****  ****    0 ROOT
