@<TRIPOS>MOLECULE
AAZ
   53    56     1     0     0
SMALL
bcc


@<TRIPOS>ATOM
      1 O4         -0.6510    0.6140   -1.2530 o         1 AAZ     -0.633800
      2 S3          0.4340    0.4790   -0.3870 sy        1 AAZ      1.380300
      3 O5          0.2380    0.5890    0.9930 o         1 AAZ     -0.633800
      4 C2          1.3220   -0.9200   -0.7530 c3        1 AAZ     -0.324600
      5 C1          0.5090   -2.1620   -0.4760 c3        1 AAZ     -0.084100
      6 C6          1.5970    1.6600   -0.8200 ca        1 AAZ     -0.370500
      7 C7          1.6450    2.1680   -2.1260 ca        1 AAZ      0.061000
      8 C8          2.5430    3.1680   -2.4800 ca        1 AAZ     -0.213000
      9 C9          3.4150    3.6940   -1.5170 ca        1 AAZ      0.223100
     10 O10         4.3260    4.6890   -1.7500 os        1 AAZ     -0.354900
     11 C11         4.3910    5.2200   -3.0810 c3        1 AAZ      0.116700
     12 C12         3.3620    3.1970   -0.1850 ca        1 AAZ     -0.122400
     13 C31         2.4590    2.1750    0.1450 ca        1 AAZ      0.054000
     14 N13         4.2390    3.7610    0.8470 n4        1 AAZ     -0.549100
     15 C14         5.2800    2.8460    1.2710 cc        1 AAZ      0.457300
     16 N15         5.2110    1.5780    1.7160 nd        1 AAZ     -0.552000
     17 C16         6.5240    1.2120    1.9690 cd        1 AAZ      0.214900
     18 C17         7.3910    2.2780    1.6610 cc        1 AAZ      0.344900
     19 O18         6.6050    3.3410    1.2000 os        1 AAZ     -0.352800
     20 C19         8.8110    2.4710    1.7410 ca        1 AAZ     -0.198500
     21 C20         9.6100    1.4610    2.3070 ca        1 AAZ     -0.074000
     22 C21        10.9850    1.6460    2.4060 ca        1 AAZ     -0.131000
     23 C22        11.5750    2.8250    1.9470 ca        1 AAZ     -0.068000
     24 C23        10.7880    3.8320    1.3700 cp        1 AAZ     -0.133500
     25 C24         9.4040    3.6550    1.2730 ca        1 AAZ     -0.047000
     26 C25        11.4200    5.0710    0.8810 cp        1 AAZ      0.434800
     27 C26        12.6880    5.0000    0.2660 ca        1 AAZ     -0.226300
     28 C27        13.2930    6.1780   -0.1790 ca        1 AAZ     -0.086000
     29 C28        12.6260    7.3890   -0.0030 ca        1 AAZ     -0.228300
     30 C29        11.3590    7.3670    0.6120 ca        1 AAZ      0.399200
     31 N30        10.7560    6.2480    1.0450 nb        1 AAZ     -0.668000
     32 H21A        2.2720   -0.9840   -0.1580 h1        1 AAZ      0.117200
     33 H22A        1.6430   -0.9460   -1.8290 h1        1 AAZ      0.117200
     34 H11        -0.4210   -2.1690   -1.0970 hc        1 AAZ      0.064367
     35 H12         1.1000   -3.0760   -0.7250 hc        1 AAZ      0.064367
     36 H13A        0.2280   -2.2140    0.6060 hc        1 AAZ      0.064367
     37 H7          0.9390    1.7750   -2.8850 ha        1 AAZ      0.187000
     38 H8          2.5620    3.5500   -3.5130 ha        1 AAZ      0.177000
     39 H111        3.4140    5.6840   -3.3580 h1        1 AAZ      0.073367
     40 H112        4.6790    4.4170   -3.8010 h1        1 AAZ      0.073367
     41 H113        5.1970    5.9940   -2.9970 h1        1 AAZ      0.073367
     42 H31         2.4060    1.7760    1.1790 ha        1 AAZ      0.192000
     43 H13         4.6970    4.6150    0.4800 hn        1 AAZ      0.488300
     44 H16         6.7680    0.2180    2.3560 h4        1 AAZ      0.087100
     45 H20         9.1480    0.5310    2.6740 ha        1 AAZ      0.144000
     46 H21        11.6110    0.8600    2.8560 ha        1 AAZ      0.157000
     47 H22        12.6630    2.9660    2.0490 ha        1 AAZ      0.156000
     48 H24         8.7730    4.4450    0.8350 ha        1 AAZ      0.158000
     49 H26        13.1890    4.0310    0.1320 ha        1 AAZ      0.148000
     50 H27        14.2820    6.1460   -0.6600 ha        1 AAZ      0.152000
     51 H28        13.0690    8.3390   -0.3310 ha        1 AAZ      0.156000
     52 H29        10.7930    8.3030    0.7720 h4        1 AAZ      0.029100
     53 H132        3.6700    3.9980    1.6760 hn        1 AAZ      0.488300
@<TRIPOS>BOND
     1    1    2 2   
     2    2    3 2   
     3    2    4 1   
     4    2    6 1   
     5    4    5 1   
     6    4   32 1   
     7    4   33 1   
     8    5   34 1   
     9    5   35 1   
    10    5   36 1   
    11    6    7 ar  
    12    6   13 ar  
    13    7    8 ar  
    14    7   37 1   
    15    8    9 ar  
    16    8   38 1   
    17    9   10 1   
    18    9   12 ar  
    19   10   11 1   
    20   11   39 1   
    21   11   40 1   
    22   11   41 1   
    23   12   13 ar  
    24   12   14 1   
    25   13   42 1   
    26   14   15 1   
    27   14   43 1   
    28   14   53 1   
    29   15   16 2   
    30   15   19 1   
    31   16   17 1   
    32   17   18 2   
    33   17   44 1   
    34   18   19 1   
    35   18   20 1   
    36   20   21 ar  
    37   20   25 ar  
    38   21   22 ar  
    39   21   45 1   
    40   22   23 ar  
    41   22   46 1   
    42   23   24 ar  
    43   23   47 1   
    44   24   25 ar  
    45   24   26 1   
    46   25   48 1   
    47   26   27 ar  
    48   26   31 ar  
    49   27   28 ar  
    50   27   49 1   
    51   28   29 ar  
    52   28   50 1   
    53   29   30 ar  
    54   29   51 1   
    55   30   31 ar  
    56   30   52 1   
@<TRIPOS>SUBSTRUCTURE
     1 AAZ         1 TEMP              0 ****  ****    0 ROOT
