@<TRIPOS>MOLECULE
AB0
   47    49     1     0     0
SMALL
bcc


@<TRIPOS>ATOM
      1 C22        -0.7180   -0.3660    0.9570 c3        1 AB0      0.093700
      2 O21         0.5540   -0.3050    0.3180 os        1 AB0     -0.468600
      3 C20         1.6330   -0.0940    1.1960 c3        1 AB0      0.321200
      4 O17         1.8040   -1.2520    1.9800 os        1 AB0     -0.417600
      5 C14         2.2150   -2.4140    1.2580 c3        1 AB0      0.116100
      6 C15         3.7460   -2.4370    1.2220 c3        1 AB0     -0.105400
      7 C10         4.2070   -3.7790    0.6810 c3        1 AB0      0.116100
      8 O11         5.6310   -3.8410    0.7840 os        1 AB0     -0.417600
      9 C05         6.1570   -5.0510    0.2300 c3        1 AB0      0.123100
     10 C06         7.6650   -4.9570    0.4590 c3        1 AB0     -0.052200
     11 C07         8.4410   -5.9150   -0.3600 c2        1 AB0     -0.151200
     12 C01         8.2290   -7.2310   -0.4390 c2        1 AB0     -0.205200
     13 C02         7.1560   -7.9870    0.2640 c3        1 AB0      0.163600
     14 O03         5.8580   -7.4440    0.0740 os        1 AB0     -0.399600
     15 C04         5.5630   -6.3100    0.8910 c3        1 AB0      0.113100
     16 C08         4.0250   -6.2650    0.9770 c3        1 AB0      0.153100
     17 O16         3.6330   -7.3050    1.8580 oh        1 AB0     -0.605800
     18 C09         3.5870   -4.9010    1.5210 c3        1 AB0      0.075100
     19 O12         2.1720   -4.8410    1.4280 os        1 AB0     -0.426600
     20 C13         1.6360   -3.6320    2.0110 c3        1 AB0      0.156100
     21 C18         0.1280   -3.7480    1.8780 c3        1 AB0     -0.200400
     22 C19        -0.5910   -3.3450    3.1820 c         1 AB0      0.916600
     23 O23        -1.6170   -2.6120    3.0700 o         1 AB0     -0.843800
     24 O24        -0.1400   -3.7750    4.2800 o         1 AB0     -0.843800
     25 H181       -0.1460   -4.8110    1.6560 hc        1 AB0      0.043700
     26 H182       -0.2380   -3.1070    1.0370 hc        1 AB0      0.043700
     27 H13         1.9280   -3.5870    3.0980 h1        1 AB0      0.093700
     28 H09         3.9070   -4.8000    2.5960 h1        1 AB0      0.066700
     29 H08         3.5750   -6.4480   -0.0370 h1        1 AB0      0.061700
     30 H16         2.7060   -7.1350    2.0810 ho        1 AB0      0.429000
     31 H04         5.9830   -6.4450    1.9250 h1        1 AB0      0.063700
     32 H021        7.0630   -9.0240   -0.1660 h1        1 AB0      0.051700
     33 H022        7.3970   -8.0640    1.3600 h1        1 AB0      0.051700
     34 H01         8.8900   -7.8560   -1.0610 ha        1 AB0      0.117000
     35 H07         9.2760   -5.4640   -0.9240 ha        1 AB0      0.114000
     36 H061        7.8820   -5.1310    1.5480 hc        1 AB0      0.061200
     37 H062        7.9850   -3.9050    0.2260 hc        1 AB0      0.061200
     38 H05         5.9280   -5.0800   -0.8720 h1        1 AB0      0.053700
     39 H10         3.9040   -3.8930   -0.3970 h1        1 AB0      0.048700
     40 H151        4.1300   -1.6080    0.5770 hc        1 AB0      0.054200
     41 H152        4.1510   -2.2810    2.2550 hc        1 AB0      0.054200
     42 H14         1.8070   -2.3900    0.2100 h1        1 AB0      0.059700
     43 H201        2.5170    0.1170    0.5370 h2        1 AB0      0.046700
     44 H202        1.4350    0.7250    1.9390 h2        1 AB0      0.046700
     45 H221       -1.0100    0.6590    1.2930 h1        1 AB0      0.055367
     46 H222       -1.4100   -0.7280    0.1570 h1        1 AB0      0.055367
     47 H223       -0.7130   -1.0830    1.8230 h1        1 AB0      0.055367
@<TRIPOS>BOND
     1    1    2 1   
     2    1   45 1   
     3    1   46 1   
     4    1   47 1   
     5    2    3 1   
     6    3    4 1   
     7    3   43 1   
     8    3   44 1   
     9    4    5 1   
    10    5    6 1   
    11    5   20 1   
    12    5   42 1   
    13    6    7 1   
    14    6   40 1   
    15    6   41 1   
    16    7    8 1   
    17    7   18 1   
    18    7   39 1   
    19    8    9 1   
    20    9   10 1   
    21    9   15 1   
    22    9   38 1   
    23   10   11 1   
    24   10   36 1   
    25   10   37 1   
    26   11   12 2   
    27   11   35 1   
    28   12   13 1   
    29   12   34 1   
    30   13   14 1   
    31   13   32 1   
    32   13   33 1   
    33   14   15 1   
    34   15   16 1   
    35   15   31 1   
    36   16   17 1   
    37   16   18 1   
    38   16   29 1   
    39   17   30 1   
    40   18   19 1   
    41   18   28 1   
    42   19   20 1   
    43   20   21 1   
    44   20   27 1   
    45   21   22 1   
    46   21   25 1   
    47   21   26 1   
    48   22   23 1   
    49   22   24 1   
@<TRIPOS>SUBSTRUCTURE
     1 AB0         1 TEMP              0 ****  ****    0 ROOT
