@<TRIPOS>MOLECULE
AB0
   47    49     1     0     0
SMALL
bcc


@<TRIPOS>ATOM
      1 C22        -0.7370   -0.3930    0.8990 c3        1 AB0      0.093700
      2 O21         0.5350   -0.3360    0.2580 os        1 AB0     -0.468600
      3 C20         1.6120   -0.1040    1.1320 c3        1 AB0      0.321200
      4 O17         1.7910   -1.2470    1.9350 os        1 AB0     -0.417600
      5 C14         2.2080   -2.4190    1.2340 c3        1 AB0      0.116100
      6 C15         3.7390   -2.4340    1.1960 c3        1 AB0     -0.105400
      7 C10         4.2070   -3.7820    0.6780 c3        1 AB0      0.116100
      8 O11         5.6320   -3.8340    0.7800 os        1 AB0     -0.417600
      9 C05         6.1630   -5.0500    0.2470 c3        1 AB0      0.123100
     10 C06         7.6720   -4.9440    0.4720 c3        1 AB0     -0.052200
     11 C07         8.4520   -5.9120   -0.3310 c2        1 AB0     -0.151200
     12 C01         8.2480   -7.2300   -0.3870 c2        1 AB0     -0.205200
     13 C02         7.1800   -7.9800    0.3300 c3        1 AB0      0.163600
     14 O03         5.8790   -7.4470    0.1320 os        1 AB0     -0.399600
     15 C04         5.5780   -6.3010    0.9300 c3        1 AB0      0.113100
     16 C08         4.0400   -6.2640    1.0160 c3        1 AB0      0.153100
     17 O16         3.6550   -7.2910    1.9160 oh        1 AB0     -0.605800
     18 C09         3.5940   -4.8930    1.5380 c3        1 AB0      0.075100
     19 O12         2.1790   -4.8430    1.4450 os        1 AB0     -0.426600
     20 C13         1.6370   -3.6270    2.0080 c3        1 AB0      0.156100
     21 C18         0.1300   -3.7530    1.8780 c3        1 AB0     -0.200400
     22 C19        -0.5900   -3.3320    3.1760 c         1 AB0      0.916600
     23 O23        -1.6210   -2.6070    3.0530 o         1 AB0     -0.843800
     24 O24        -0.1360   -3.7400    4.2800 o         1 AB0     -0.843800
     25 H181       -0.2410   -3.1300    1.0270 hc        1 AB0      0.043700
     26 H182       -0.1390   -4.8220    1.6750 hc        1 AB0      0.043700
     27 H13         1.9290   -3.5610    3.0940 h1        1 AB0      0.093700
     28 H09         3.9150   -4.7710    2.6110 h1        1 AB0      0.066700
     29 H08         3.5890   -6.4670    0.0060 h1        1 AB0      0.061700
     30 H16         2.7270   -7.1220    2.1370 ho        1 AB0      0.429000
     31 H04         6.0000   -6.4160    1.9660 h1        1 AB0      0.063700
     32 H021        7.4230   -8.0370    1.4270 h1        1 AB0      0.051700
     33 H022        7.0930   -9.0240   -0.0830 h1        1 AB0      0.051700
     34 H01         8.9120   -7.8620   -1.0000 ha        1 AB0      0.117000
     35 H07         9.2840   -5.4660   -0.9030 ha        1 AB0      0.114000
     36 H061        7.8910   -5.0980    1.5640 hc        1 AB0      0.061200
     37 H062        7.9860   -3.8950    0.2210 hc        1 AB0      0.061200
     38 H05         5.9340   -5.1000   -0.8540 h1        1 AB0      0.053700
     39 H10         3.9040   -3.9160   -0.3980 h1        1 AB0      0.048700
     40 H151        4.1440   -2.2570    2.2260 hc        1 AB0      0.054200
     41 H152        4.1180   -1.6140    0.5360 hc        1 AB0      0.054200
     42 H14         1.7990   -2.4150    0.1860 h1        1 AB0      0.059700
     43 H201        1.4110    0.7270    1.8610 h2        1 AB0      0.046700
     44 H202        2.4950    0.1010    0.4680 h2        1 AB0      0.046700
     45 H221       -0.7270   -1.0950    1.7780 h1        1 AB0      0.055700
     46 H222       -1.4270   -0.7730    0.1060 h1        1 AB0      0.055700
     47 H223       -1.0350    0.6360    1.2180 h1        1 AB0      0.055700
@<TRIPOS>BOND
     1    1    2 1   
     2    1   45 1   
     3    1   46 1   
     4    1   47 1   
     5    2    3 1   
     6    3    4 1   
     7    3   43 1   
     8    3   44 1   
     9    4    5 1   
    10    5    6 1   
    11    5   20 1   
    12    5   42 1   
    13    6    7 1   
    14    6   40 1   
    15    6   41 1   
    16    7    8 1   
    17    7   18 1   
    18    7   39 1   
    19    8    9 1   
    20    9   10 1   
    21    9   15 1   
    22    9   38 1   
    23   10   11 1   
    24   10   36 1   
    25   10   37 1   
    26   11   12 2   
    27   11   35 1   
    28   12   13 1   
    29   12   34 1   
    30   13   14 1   
    31   13   32 1   
    32   13   33 1   
    33   14   15 1   
    34   15   16 1   
    35   15   31 1   
    36   16   17 1   
    37   16   18 1   
    38   16   29 1   
    39   17   30 1   
    40   18   19 1   
    41   18   28 1   
    42   19   20 1   
    43   20   21 1   
    44   20   27 1   
    45   21   22 1   
    46   21   25 1   
    47   21   26 1   
    48   22   23 1   
    49   22   24 1   
@<TRIPOS>SUBSTRUCTURE
     1 AB0         1 TEMP              0 ****  ****    0 ROOT
