@<TRIPOS>MOLECULE
AB0
   47    49     1     0     0
SMALL
bcc


@<TRIPOS>ATOM
      1 C22         9.6660   -5.1820    5.2310 c3        1 AB0      0.093700
      2 O21         9.3570   -4.5530    3.9890 os        1 AB0     -0.468600
      3 C20         8.7220   -5.3940    3.0570 c3        1 AB0      0.321200
      4 O17         7.4230   -5.6780    3.5230 os        1 AB0     -0.417600
      5 C14         6.5420   -4.5550    3.5760 c3        1 AB0      0.116100
      6 C15         5.8320   -4.4400    2.2240 c3        1 AB0     -0.105400
      7 C10         4.7180   -3.4150    2.3370 c3        1 AB0      0.116100
      8 O11         3.9770   -3.4190    1.1150 os        1 AB0     -0.417600
      9 C05         2.9450   -2.4280    1.1110 c3        1 AB0      0.123100
     10 C06         2.2470   -2.6030   -0.2380 c3        1 AB0     -0.052200
     11 C07         1.3990   -1.4480   -0.6110 c2        1 AB0     -0.151200
     12 C01         0.4530   -0.8920    0.1480 c2        1 AB0     -0.205200
     13 C02         0.0820   -1.3100    1.5280 c3        1 AB0      0.163600
     14 O03         1.1880   -1.4000    2.4130 os        1 AB0     -0.399600
     15 C04         1.9590   -2.5960    2.2830 c3        1 AB0      0.113100
     16 C08         2.6720   -2.7650    3.6380 c3        1 AB0      0.153100
     17 O16         1.6940   -3.2100    4.5640 oh        1 AB0     -0.605800
     18 C09         3.7930   -3.8010    3.4960 c3        1 AB0      0.075100
     19 O12         4.5250   -3.8050    4.7110 os        1 AB0     -0.426600
     20 C13         5.5500   -4.8220    4.7300 c3        1 AB0      0.156100
     21 C18         6.1970   -4.7280    6.1000 c3        1 AB0     -0.200400
     22 C19         6.3950   -6.1200    6.7330 c         1 AB0      0.916600
     23 O23         7.5030   -6.3400    7.3030 o         1 AB0     -0.843800
     24 O24         5.4500   -6.9540    6.6700 o         1 AB0     -0.843800
     25 H181        7.1840   -4.2060    6.0290 hc        1 AB0      0.043700
     26 H182        5.5350   -4.1370    6.7840 hc        1 AB0      0.043700
     27 H13         5.0690   -5.8330    4.5960 h1        1 AB0      0.093700
     28 H09         3.3480   -4.8190    3.3110 h1        1 AB0      0.066700
     29 H08         3.0880   -1.7780    3.9830 h1        1 AB0      0.061700
     30 H16         2.1800   -3.5240    5.3400 ho        1 AB0      0.429000
     31 H04         1.2900   -3.4830    2.1080 h1        1 AB0      0.063700
     32 H021       -0.5680   -0.5280    2.0120 h1        1 AB0      0.051700
     33 H022       -0.4800   -2.2850    1.4950 h1        1 AB0      0.051700
     34 H01        -0.1410   -0.0500   -0.2440 ha        1 AB0      0.117000
     35 H07         1.5820   -1.0560   -1.6270 ha        1 AB0      0.114000
     36 H061        1.6200   -3.5360   -0.2080 hc        1 AB0      0.061200
     37 H062        3.0390   -2.7660   -1.0180 hc        1 AB0      0.061200
     38 H05         3.4160   -1.4070    1.1790 h1        1 AB0      0.053700
     39 H10         5.1460   -2.3880    2.5120 h1        1 AB0      0.048700
     40 H151        5.4080   -5.4360    1.9340 hc        1 AB0      0.054200
     41 H152        6.5590   -4.1350    1.4310 hc        1 AB0      0.054200
     42 H14         7.1200   -3.6130    3.7870 h1        1 AB0      0.059700
     43 H201        9.2170   -6.3980    2.9700 h2        1 AB0      0.046700
     44 H202        8.7200   -4.8210    2.0920 h2        1 AB0      0.046700
     45 H221        8.7740   -5.7150    5.6590 h1        1 AB0      0.055700
     46 H222        9.9720   -4.3380    5.8960 h1        1 AB0      0.055700
     47 H223       10.5180   -5.8910    5.0800 h1        1 AB0      0.055700
@<TRIPOS>BOND
     1    1    2 1   
     2    1   45 1   
     3    1   46 1   
     4    1   47 1   
     5    2    3 1   
     6    3    4 1   
     7    3   43 1   
     8    3   44 1   
     9    4    5 1   
    10    5    6 1   
    11    5   20 1   
    12    5   42 1   
    13    6    7 1   
    14    6   40 1   
    15    6   41 1   
    16    7    8 1   
    17    7   18 1   
    18    7   39 1   
    19    8    9 1   
    20    9   10 1   
    21    9   15 1   
    22    9   38 1   
    23   10   11 1   
    24   10   36 1   
    25   10   37 1   
    26   11   12 2   
    27   11   35 1   
    28   12   13 1   
    29   12   34 1   
    30   13   14 1   
    31   13   32 1   
    32   13   33 1   
    33   14   15 1   
    34   15   16 1   
    35   15   31 1   
    36   16   17 1   
    37   16   18 1   
    38   16   29 1   
    39   17   30 1   
    40   18   19 1   
    41   18   28 1   
    42   19   20 1   
    43   20   21 1   
    44   20   27 1   
    45   21   22 1   
    46   21   25 1   
    47   21   26 1   
    48   22   23 1   
    49   22   24 1   
@<TRIPOS>SUBSTRUCTURE
     1 AB0         1 TEMP              0 ****  ****    0 ROOT
