@<TRIPOS>MOLECULE
AB0
   47    48     1     0     0
SMALL
bcc


@<TRIPOS>ATOM
      1 C22        -3.5810    3.9680   -3.3840 c3        1 AB0     -0.078000
      2 O21        -2.9770    3.5560   -2.2100 os        1 AB0     -0.291000
      3 C20        -2.0100    2.5500   -2.3850 c3        1 AB0      0.105000
      4 O17        -1.9310    1.7480   -1.1820 os        1 AB0     -0.299000
      5 C14        -0.8140    0.5230   -1.2540 c3        1 AB0      0.009000
      6 C15         0.1550    0.8180   -0.4950 c3        1 AB0     -0.193000
      7 C10         1.1740   -0.2770   -0.3890 c3        1 AB0      0.017000
      8 O11         2.3580    0.2160    0.6940 os        1 AB0     -0.275000
      9 C05         2.0960    0.1780    1.5340 c3        1 AB0      0.028000
     10 C06         2.8630    0.4270    2.1400 c3        1 AB0     -0.132000
     11 C07         2.4310    0.0640    3.5400 c2        1 AB0     -0.140000
     12 C01         2.6710   -1.3120    4.0600 c1        1 AB0     -0.210000
     13 C02         2.9620   -2.4260    3.1070 c2        1 AB0      0.010000
     14 O03         2.7720   -1.8850    1.8180 os        1 AB0     -0.267000
     15 C04         1.6560   -0.8500    1.8210 c3        1 AB0     -0.003000
     16 C08         0.4640   -1.3480    0.7660 c3        1 AB0      0.029000
     17 O16        -0.8820   -0.3360    0.9590 oh        1 AB0     -0.365000
     18 C09         0.7370   -1.3100   -0.1120 c3        1 AB0     -0.014000
     19 O12        -0.1800   -1.6780   -0.8130 os        1 AB0     -0.254000
     20 C13        -1.4340   -0.6450   -0.9170 c3        1 AB0      0.011000
     21 C18        -2.3470   -1.0500   -1.9430 c3        1 AB0     -0.229000
     22 C19        -2.1880   -2.5180   -2.2030 c2        1 AB0      0.341000
     23 O23        -2.7070   -3.3440   -1.4330 o         1 AB0     -0.582500
     24 O24        -1.5200   -2.9090   -3.1730 o         1 AB0     -0.582500
     25 H181       -2.1570   -0.5490   -2.7660 hc        1 AB0      0.079500
     26 H182       -3.2470   -0.8720   -1.6600 hc        1 AB0      0.079500
     27 H13        -1.8910   -0.5630   -0.0510 h1        1 AB0      0.135000
     28 H09         1.4740   -1.9750   -0.2180 h1        1 AB0      0.108000
     29 H08         0.2120   -2.2490    0.9780 h1        1 AB0      0.090000
     30 H16        -1.2830   -0.5080    1.7720 ho        1 AB0      0.283000
     31 H04         1.2890   -0.7950    2.6960 h1        1 AB0      0.111000
     32 H021        3.7860   -2.9340    3.2150 h4        1 AB0      0.087500
     33 H022        2.2970   -3.1280    3.2720 h4        1 AB0      0.087500
     34 H01         2.7200   -1.4640    4.9960 ha        1 AB0      0.116000
     35 H07         1.9670    0.7310    4.1010 ha        1 AB0      0.112000
     36 H061        3.7800    0.0610    1.9760 hc        1 AB0      0.099500
     37 H062        3.0170    1.3630    2.0220 hc        1 AB0      0.099500
     38 H05         1.3570    0.8790    1.6620 h1        1 AB0      0.093000
     39 H10         1.5850   -0.3650   -1.2400 h1        1 AB0      0.102000
     40 H151        0.5970    1.6350   -0.8450 hc        1 AB0      0.097500
     41 H152       -0.1940    1.0070    0.3990 hc        1 AB0      0.097500
     42 H14        -0.4750    0.4470   -2.1920 h1        1 AB0      0.076000
     43 H201       -1.1650    2.9490   -2.5570 h2        1 AB0      0.078000
     44 H202       -2.2590    1.9900   -3.1300 h2        1 AB0      0.078000
     45 H221       -4.1510    3.2460   -3.7300 h1        1 AB0      0.084333
     46 H222       -2.9050    4.1850   -4.0360 h1        1 AB0      0.084333
     47 H223       -4.1220    4.7480   -3.2100 h1        1 AB0      0.084333
@<TRIPOS>BOND
     1    1    2 1   
     2    1   45 1   
     3    1   46 1   
     4    1   47 1   
     5    2    3 1   
     6    3    4 1   
     7    3   43 1   
     8    3   44 1   
     9    4    5 1   
    10    5    6 1   
    11    5   20 1   
    12    5   42 1   
    13    6    7 1   
    14    6   40 1   
    15    6   41 1   
    16    7    8 1   
    17    7   18 1   
    18    7   39 1   
    19    8    9 1   
    20    9   10 1   
    21    9   15 1   
    22    9   38 1   
    23   10   11 1   
    24   10   36 1   
    25   10   37 1   
    26   11   12 1   
    27   11   35 1   
    28   12   34 1   
    29   13   14 1   
    30   13   32 1   
    31   13   33 1   
    32   14   15 1   
    33   15   16 1   
    34   15   31 1   
    35   16   17 1   
    36   16   18 1   
    37   16   29 1   
    38   17   30 1   
    39   18   19 1   
    40   18   28 1   
    41   19   20 1   
    42   20   21 1   
    43   20   27 1   
    44   21   22 1   
    45   21   25 1   
    46   21   26 1   
    47   22   23 1   
    48   22   24 1   
@<TRIPOS>SUBSTRUCTURE
     1 AB0         1 TEMP              0 ****  ****    0 ROOT
