@<TRIPOS>MOLECULE
AB1
   94    97     1     0     0
SMALL
bcc


@<TRIPOS>ATOM
      1 C1         -6.2800    2.7590    1.4780 c3        1 AB1      0.095000
      2 C2         -5.9730    0.7150    0.0740 c3        1 AB1      0.067000
      3 N1         -5.3620    1.5180   -0.9780 n         1 AB1     -0.419800
      4 C3         -5.0520    2.8780   -0.6770 c         1 AB1      0.801500
      5 N2         -5.6390    3.4990    0.4320 n         1 AB1     -0.567900
      6 C4          2.0090    2.4430    0.6440 ca        1 AB1     -0.084300
      7 C5          3.3340    2.8310    0.4130 ca        1 AB1     -0.125000
      8 C6          4.1120    3.3340    1.4550 ca        1 AB1     -0.128500
      9 C7          3.5720    3.4550    2.7350 ca        1 AB1     -0.133000
     10 C8          2.2520    3.0710    2.9710 ca        1 AB1     -0.128500
     11 C9          1.4730    2.5680    1.9310 ca        1 AB1     -0.125000
     12 O1         -4.3680    3.5960   -1.4440 o         1 AB1     -0.665500
     13 C10        -4.4590    0.7430   -1.8130 c3        1 AB1      0.053700
     14 C11        -3.1920    0.2910   -1.0330 c         1 AB1      0.624100
     15 N3         -2.7800   -1.0130   -1.2120 n         1 AB1     -0.558900
     16 C12        -1.5690   -1.5350   -0.6160 c3        1 AB1      0.106700
     17 C13        -4.0120    1.4100   -3.1320 c3        1 AB1     -0.068700
     18 C14        -3.1860    0.4400   -3.9540 c3        1 AB1     -0.094100
     19 C15        -5.2150    1.8720   -3.9280 c3        1 AB1     -0.094100
     20 O2         -2.6040    1.0570   -0.2420 o         1 AB1     -0.614100
     21 C16        -5.0100   -4.1390    1.3200 ca        1 AB1     -0.130500
     22 C17        -4.9050   -3.6400    2.6180 ca        1 AB1     -0.135000
     23 C18        -3.7660   -2.9300    2.9990 ca        1 AB1     -0.130500
     24 C19        -2.7350   -2.7200    2.0860 ca        1 AB1     -0.126000
     25 C20        -2.8350   -3.2160    0.7800 ca        1 AB1     -0.070300
     26 C21        -3.9790   -3.9280    0.4040 ca        1 AB1     -0.126000
     27 C22        -1.7230   -3.0070   -0.1840 c3        1 AB1     -0.050100
     28 C23        -0.3430   -1.4460   -1.5430 c3        1 AB1     -0.141400
     29 C24         0.1750   -0.0180   -1.6790 c3        1 AB1      0.127100
     30 C25         1.0850    0.3860   -0.4830 c3        1 AB1      0.071700
     31 N4          2.3880   -0.2440   -0.5200 n         1 AB1     -0.540900
     32 C26         2.6870   -1.3450    0.2500 c         1 AB1      0.654100
     33 C27         4.1240   -1.8560    0.3210 c3        1 AB1      0.055400
     34 O3          5.0330   -0.8570   -0.1570 os        1 AB1     -0.353900
     35 C28         6.3680   -1.2440   -0.0400 ca        1 AB1      0.080100
     36 O4          0.8140    0.1710   -2.9280 oh        1 AB1     -0.595800
     37 C29         1.1700    1.9240   -0.4680 c3        1 AB1     -0.058100
     38 O5          1.8050   -2.0030    0.8430 o         1 AB1     -0.627100
     39 C30         7.0380   -1.6870   -1.1940 ca        1 AB1     -0.076300
     40 C31         8.4040   -1.9720   -1.1050 ca        1 AB1     -0.129000
     41 C32         9.0820   -1.8210    0.1030 ca        1 AB1     -0.123000
     42 C33         8.4060   -1.3790    1.2380 ca        1 AB1     -0.129000
     43 C34         7.0390   -1.0840    1.1860 ca        1 AB1     -0.076300
     44 C35         6.3340   -0.6140    2.4000 c3        1 AB1     -0.055800
     45 C36         6.3290   -1.8270   -2.4860 c3        1 AB1     -0.055800
     46 C37        -6.9430    1.4880    0.9570 c3        1 AB1     -0.095400
     47 H2         -7.0590    3.4240    1.9520 h1        1 AB1      0.038200
     48 H3         -5.5360    2.4810    2.2820 h1        1 AB1      0.038200
     49 H4         -6.5320   -0.1260   -0.4270 h1        1 AB1      0.048700
     50 H5         -5.1710    0.2560    0.7260 h1        1 AB1      0.048700
     51 H8         -5.2920    4.4060    0.6470 hn        1 AB1      0.329500
     52 H30         3.7630    2.7420   -0.5970 ha        1 AB1      0.134500
     53 H31         5.1510    3.6380    1.2650 ha        1 AB1      0.130500
     54 H32         4.1850    3.8550    3.5560 ha        1 AB1      0.129000
     55 H33         1.8230    3.1670    3.9790 ha        1 AB1      0.130500
     56 H34         0.4290    2.2700    2.1160 ha        1 AB1      0.134500
     57 H9         -5.0560   -0.1790   -2.1030 h1        1 AB1      0.063700
     58 H15        -3.1750   -1.5410   -1.9540 hn        1 AB1      0.305500
     59 H16        -1.3610   -0.9190    0.3130 h1        1 AB1      0.091700
     60 H10        -3.3730    2.3070   -2.8860 hc        1 AB1      0.106700
     61 H11        -3.0340    0.8540   -4.9810 hc        1 AB1      0.038700
     62 H12        -2.1770    0.2840   -3.4990 hc        1 AB1      0.038700
     63 H47        -3.6990   -0.5480   -4.0510 hc        1 AB1      0.038700
     64 H13        -5.7280    2.7130   -3.4000 hc        1 AB1      0.038700
     65 H14        -4.8900    2.2380   -4.9320 hc        1 AB1      0.038700
     66 H48        -5.9410    1.0370   -4.0720 hc        1 AB1      0.038700
     67 H20        -5.9040   -4.7030    1.0180 ha        1 AB1      0.129500
     68 H21        -5.7170   -3.8090    3.3410 ha        1 AB1      0.129000
     69 H22        -3.6790   -2.5380    4.0230 ha        1 AB1      0.129500
     70 H23        -1.8340   -2.1630    2.3880 ha        1 AB1      0.133500
     71 H19        -4.0660   -4.3280   -0.6170 ha        1 AB1      0.133500
     72 H17        -1.8650   -3.6520   -1.0910 hc        1 AB1      0.062700
     73 H18        -0.7540   -3.3100    0.3020 hc        1 AB1      0.062700
     74 H24         0.4630   -2.1030   -1.1210 hc        1 AB1      0.061200
     75 H25        -0.5990   -1.8350   -2.5640 hc        1 AB1      0.061200
     76 H26        -0.6890    0.7120   -1.7100 h1        1 AB1      0.097700
     77 H27         0.5540    0.0490    0.4610 h1        1 AB1      0.084700
     78 H35         3.1450    0.3240   -0.8330 hn        1 AB1      0.327500
     79 H36         4.3580   -2.1050    1.3910 h1        1 AB1      0.070700
     80 H37         4.2070   -2.7760   -0.3150 h1        1 AB1      0.070700
     81 H1          1.5320   -0.4700   -2.9920 ho        1 AB1      0.399000
     82 H28         1.5630    2.2790   -1.4580 hc        1 AB1      0.074700
     83 H29         0.1200    2.3140   -0.3600 hc        1 AB1      0.074700
     84 H41         8.9440   -2.3190   -1.9990 ha        1 AB1      0.136000
     85 H42        10.1560   -2.0510    0.1610 ha        1 AB1      0.135000
     86 H43         8.9480   -1.2560    2.1880 ha        1 AB1      0.136000
     87 H44         7.0100    0.0150    3.0300 hc        1 AB1      0.050200
     88 H45         5.4350   -0.0080    2.1280 hc        1 AB1      0.050200
     89 H46         6.0000   -1.4900    3.0130 hc        1 AB1      0.050200
     90 H38         6.3830   -0.8640   -3.0540 hc        1 AB1      0.050200
     91 H39         6.7890   -2.6310   -3.1110 hc        1 AB1      0.050200
     92 H40         5.2500   -2.0710   -2.3220 hc        1 AB1      0.050200
     93 H6         -7.8700    1.7450    0.3820 hc        1 AB1      0.062200
     94 H7         -7.2390    0.8420    1.8220 hc        1 AB1      0.062200
@<TRIPOS>BOND
     1    1    5 1   
     2    1   46 1   
     3    1   47 1   
     4    1   48 1   
     5    2    3 1   
     6    2   46 1   
     7    2   49 1   
     8    2   50 1   
     9    3    4 1   
    10    3   13 1   
    11    4    5 1   
    12    4   12 2   
    13    5   51 1   
    14    6    7 ar  
    15    6   11 ar  
    16    6   37 1   
    17    7    8 ar  
    18    7   52 1   
    19    8    9 ar  
    20    8   53 1   
    21    9   10 ar  
    22    9   54 1   
    23   10   11 ar  
    24   10   55 1   
    25   11   56 1   
    26   13   14 1   
    27   13   17 1   
    28   13   57 1   
    29   14   15 1   
    30   14   20 2   
    31   15   16 1   
    32   15   58 1   
    33   16   27 1   
    34   16   28 1   
    35   16   59 1   
    36   17   18 1   
    37   17   19 1   
    38   17   60 1   
    39   18   61 1   
    40   18   62 1   
    41   18   63 1   
    42   19   64 1   
    43   19   65 1   
    44   19   66 1   
    45   21   22 ar  
    46   21   26 ar  
    47   21   67 1   
    48   22   23 ar  
    49   22   68 1   
    50   23   24 ar  
    51   23   69 1   
    52   24   25 ar  
    53   24   70 1   
    54   25   26 ar  
    55   25   27 1   
    56   26   71 1   
    57   27   72 1   
    58   27   73 1   
    59   28   29 1   
    60   28   74 1   
    61   28   75 1   
    62   29   30 1   
    63   29   36 1   
    64   29   76 1   
    65   30   31 1   
    66   30   37 1   
    67   30   77 1   
    68   31   32 1   
    69   31   78 1   
    70   32   33 1   
    71   32   38 2   
    72   33   34 1   
    73   33   79 1   
    74   33   80 1   
    75   34   35 1   
    76   35   39 ar  
    77   35   43 ar  
    78   36   81 1   
    79   37   82 1   
    80   37   83 1   
    81   39   40 ar  
    82   39   45 1   
    83   40   41 ar  
    84   40   84 1   
    85   41   42 ar  
    86   41   85 1   
    87   42   43 ar  
    88   42   86 1   
    89   43   44 1   
    90   44   87 1   
    91   44   88 1   
    92   44   89 1   
    93   45   90 1   
    94   45   91 1   
    95   45   92 1   
    96   46   93 1   
    97   46   94 1   
@<TRIPOS>SUBSTRUCTURE
     1 AB1         1 TEMP              0 ****  ****    0 ROOT
