@<TRIPOS>MOLECULE
AB1
   96    99     1     0     0
SMALL
bcc


@<TRIPOS>ATOM
      1 C1          2.1210   -0.3530   -1.0290 c3        1 AB1      0.092000
      2 C2          1.1890    0.0800    1.2640 c3        1 AB1      0.092000
      3 N1          2.5310   -0.0540    1.7980 n         1 AB1     -0.492800
      4 C3          3.6240   -0.3770    0.9360 c         1 AB1      0.816500
      5 N2          3.4140   -0.5040   -0.4200 n         1 AB1     -0.548900
      6 C4         10.2780    2.5920    4.8060 ca        1 AB1     -0.170300
      7 C5         11.1840    1.5340    4.9530 ca        1 AB1     -0.129500
      8 C6         12.5220    1.7940    5.2480 ca        1 AB1     -0.112500
      9 C7         12.9630    3.1100    5.3980 ca        1 AB1     -0.094000
     10 C8         12.0630    4.1670    5.2520 ca        1 AB1     -0.112500
     11 C9         10.7250    3.9110    4.9550 ca        1 AB1     -0.129500
     12 O1          4.7720   -0.5170    1.4330 o         1 AB1     -0.697500
     13 C10         2.6980   -0.2190    3.2140 c3        1 AB1      0.109700
     14 C11         3.6960    0.8580    3.7200 c         1 AB1      0.541100
     15 N3          3.4350    1.4000    5.1210 n4        1 AB1     -0.691800
     16 C12         4.0210    2.7600    5.3980 c3        1 AB1      0.131500
     17 C13         3.1830   -1.6240    3.6650 c3        1 AB1     -0.099700
     18 C14         3.6280   -1.6600    5.1080 c3        1 AB1     -0.110100
     19 C15         2.0540   -2.6140    3.4490 c3        1 AB1     -0.110100
     20 O2          4.6570    1.3330    3.1440 o         1 AB1     -0.416100
     21 C16        -0.6230    2.9600    5.8700 ca        1 AB1     -0.113500
     22 C17        -0.9350    3.8340    4.8280 ca        1 AB1     -0.096000
     23 C18         0.0670    4.6170    4.2520 ca        1 AB1     -0.113500
     24 C19         1.3780    4.5280    4.7160 ca        1 AB1     -0.133500
     25 C20         1.6970    3.6500    5.7600 ca        1 AB1     -0.163300
     26 C21         0.6880    2.8670    6.3360 ca        1 AB1     -0.133500
     27 C22         3.0830    3.5920    6.2930 c3        1 AB1     -0.052100
     28 C23         5.3990    2.6860    6.0660 c3        1 AB1     -0.112400
     29 C24         6.4700    2.0940    5.1550 c3        1 AB1      0.117100
     30 C25         7.9080    2.4350    5.6300 c3        1 AB1      0.097500
     31 N4          8.3730    1.5680    6.7630 n4        1 AB1     -0.665800
     32 C26         8.1050    2.0990    8.1470 c         1 AB1      0.549100
     33 C27         8.8410    1.4330    9.2900 c3        1 AB1      0.059400
     34 O3          9.4680    0.2480    8.8030 os        1 AB1     -0.380900
     35 C28        10.2120   -0.4170    9.7900 ca        1 AB1      0.038100
     36 O4          6.2770    0.6860    5.1430 oh        1 AB1     -0.646800
     37 C29         8.8670    2.3210    4.4290 c3        1 AB1     -0.050100
     38 O5          7.3190    3.0290    8.2580 o         1 AB1     -0.441100
     39 C30         9.6420   -1.5470   10.4010 ca        1 AB1     -0.067800
     40 C31        10.4320   -2.2780   11.2960 ca        1 AB1     -0.115500
     41 C32        11.7400   -1.8850   11.5730 ca        1 AB1     -0.088000
     42 C33        12.2840   -0.7570   10.9610 ca        1 AB1     -0.115500
     43 C34        11.5270   -0.0010   10.0600 ca        1 AB1     -0.067800
     44 C35        12.1170    1.2010    9.4290 c3        1 AB1     -0.055800
     45 C36         8.2610   -1.9880   10.1050 c3        1 AB1     -0.055800
     46 C37         0.9800   -0.6500   -0.0610 c3        1 AB1     -0.114400
     47 H2          2.0580   -1.0560   -1.9100 h1        1 AB1      0.067700
     48 H3          2.0130    0.7010   -1.4200 h1        1 AB1      0.067700
     49 H4          0.4370   -0.3100    2.0080 h1        1 AB1      0.056700
     50 H5          0.9940    1.1820    1.1120 h1        1 AB1      0.056700
     51 H8          4.2140   -0.6450   -0.9940 hn        1 AB1      0.359500
     52 H30        10.8560    0.4950    4.7950 ha        1 AB1      0.136500
     53 H31        13.2340    0.9590    5.3460 ha        1 AB1      0.160000
     54 H32        14.0230    3.3150    5.6170 ha        1 AB1      0.163000
     55 H33        12.4130    5.2070    5.3550 ha        1 AB1      0.160000
     56 H34        10.0260    4.7500    4.8140 ha        1 AB1      0.136500
     57 H9          1.6970   -0.0230    3.7090 h1        1 AB1      0.084700
     58 H15         3.8340    0.7270    5.7880 hn        1 AB1      0.463300
     59 H16         4.1160    3.2810    4.3960 hx        1 AB1      0.118700
     60 H10         4.0610   -1.9260    3.0180 hc        1 AB1      0.118700
     61 H11         4.5940   -1.1130    5.2470 hc        1 AB1      0.052033
     62 H12         2.8460   -1.2500    5.7920 hc        1 AB1      0.052033
     63 H47         3.8070   -2.7250    5.4080 hc        1 AB1      0.052033
     64 H13         1.1850   -2.3780    4.1100 hc        1 AB1      0.052033
     65 H14         2.4100   -3.6460    3.6880 hc        1 AB1      0.052033
     66 H48         1.7080   -2.6050    2.3860 hc        1 AB1      0.052033
     67 H20        -1.4170    2.3580    6.3410 ha        1 AB1      0.159500
     68 H21        -1.9750    3.9180    4.4720 ha        1 AB1      0.163000
     69 H22        -0.1820    5.3220    3.4420 ha        1 AB1      0.159500
     70 H23         2.1590    5.1670    4.2760 ha        1 AB1      0.135500
     71 H19         0.9150    2.2130    7.1920 ha        1 AB1      0.135500
     72 H17         3.0870    3.1790    7.3370 hc        1 AB1      0.088200
     73 H18         3.5120    4.6310    6.3430 hc        1 AB1      0.088200
     74 H24         5.6930    3.7360    6.3410 hc        1 AB1      0.091700
     75 H25         5.3410    2.0990    7.0210 hc        1 AB1      0.091700
     76 H26         6.3610    2.5220    4.1150 h1        1 AB1      0.109700
     77 H27         7.9230    3.5050    6.0000 hx        1 AB1      0.123700
     78 H35         7.9240    0.6420    6.6880 hn        1 AB1      0.484800
     79 H36         9.6120    2.1550    9.6840 h1        1 AB1      0.121200
     80 H37         8.0950    1.1830   10.0950 h1        1 AB1      0.121200
     81 H1          6.5240    0.3580    4.2640 ho        1 AB1      0.458000
     82 H28         8.7680    1.3020    3.9650 hc        1 AB1      0.087700
     83 H29         8.5300    3.0740    3.6640 hc        1 AB1      0.087700
     84 H41        10.0090   -3.1710   11.7840 ha        1 AB1      0.158000
     85 H42        12.3490   -2.4710   12.2820 ha        1 AB1      0.162000
     86 H43        13.3200   -0.4550   11.1850 ha        1 AB1      0.158000
     87 H44        13.2020    1.0370    9.2090 hc        1 AB1      0.049367
     88 H45        11.5980    1.4490    8.4700 hc        1 AB1      0.049367
     89 H46        12.0340    2.0790   10.1190 hc        1 AB1      0.049367
     90 H38         8.2790   -2.8170    9.3530 hc        1 AB1      0.049367
     91 H39         7.7610   -2.3670   11.0310 hc        1 AB1      0.049367
     92 H40         7.6510   -1.1490    9.6880 hc        1 AB1      0.049367
     93 H6          0.9010   -1.7550    0.1170 hc        1 AB1      0.081700
     94 H7          0.0150   -0.3050   -0.5140 hc        1 AB1      0.081700
     95 H321        2.4160    1.4480    5.2690 hn        1 AB1      0.463300
     96 H421        9.3980    1.4220    6.6810 hn        1 AB1      0.484800
@<TRIPOS>BOND
     1    1    5 1   
     2    1   46 1   
     3    1   47 1   
     4    1   48 1   
     5    2    3 1   
     6    2   46 1   
     7    2   49 1   
     8    2   50 1   
     9    3    4 1   
    10    3   13 1   
    11    4    5 1   
    12    4   12 2   
    13    5   51 1   
    14    6    7 ar  
    15    6   11 ar  
    16    6   37 1   
    17    7    8 ar  
    18    7   52 1   
    19    8    9 ar  
    20    8   53 1   
    21    9   10 ar  
    22    9   54 1   
    23   10   11 ar  
    24   10   55 1   
    25   11   56 1   
    26   13   14 1   
    27   13   17 1   
    28   13   57 1   
    29   14   15 1   
    30   14   20 2   
    31   15   16 1   
    32   15   58 1   
    33   15   95 1   
    34   16   27 1   
    35   16   28 1   
    36   16   59 1   
    37   17   18 1   
    38   17   19 1   
    39   17   60 1   
    40   18   61 1   
    41   18   62 1   
    42   18   63 1   
    43   19   64 1   
    44   19   65 1   
    45   19   66 1   
    46   21   22 ar  
    47   21   26 ar  
    48   21   67 1   
    49   22   23 ar  
    50   22   68 1   
    51   23   24 ar  
    52   23   69 1   
    53   24   25 ar  
    54   24   70 1   
    55   25   26 ar  
    56   25   27 1   
    57   26   71 1   
    58   27   72 1   
    59   27   73 1   
    60   28   29 1   
    61   28   74 1   
    62   28   75 1   
    63   29   30 1   
    64   29   36 1   
    65   29   76 1   
    66   30   31 1   
    67   30   37 1   
    68   30   77 1   
    69   31   32 1   
    70   31   78 1   
    71   31   96 1   
    72   32   33 1   
    73   32   38 2   
    74   33   34 1   
    75   33   79 1   
    76   33   80 1   
    77   34   35 1   
    78   35   39 ar  
    79   35   43 ar  
    80   36   81 1   
    81   37   82 1   
    82   37   83 1   
    83   39   40 ar  
    84   39   45 1   
    85   40   41 ar  
    86   40   84 1   
    87   41   42 ar  
    88   41   85 1   
    89   42   43 ar  
    90   42   86 1   
    91   43   44 1   
    92   44   87 1   
    93   44   88 1   
    94   44   89 1   
    95   45   90 1   
    96   45   91 1   
    97   45   92 1   
    98   46   93 1   
    99   46   94 1   
@<TRIPOS>SUBSTRUCTURE
     1 AB1         1 TEMP              0 ****  ****    0 ROOT
