@<TRIPOS>MOLECULE
AB1
   96    99     1     0     0
SMALL
bcc


@<TRIPOS>ATOM
      1 C1          2.2200   -0.5560   -0.9670 c3        1 AB1      0.091000
      2 C2          1.2210   -0.0550    1.2830 c3        1 AB1      0.092000
      3 N1          2.5530   -0.1360    1.8530 n         1 AB1     -0.492800
      4 C3          3.6730   -0.4700    1.0330 c         1 AB1      0.817500
      5 N2          3.5010   -0.6580   -0.3220 ns        1 AB1     -0.547900
      6 C4         10.2460    2.5990    4.7450 ca        1 AB1     -0.170300
      7 C5         11.1470    1.5350    4.8800 ca        1 AB1     -0.129000
      8 C6         12.4890    1.7850    5.1610 ca        1 AB1     -0.112500
      9 C7         12.9400    3.0980    5.3090 ca        1 AB1     -0.094000
     10 C8         12.0460    4.1620    5.1750 ca        1 AB1     -0.112500
     11 C9         10.7040    3.9150    4.8910 ca        1 AB1     -0.129000
     12 O1          4.8110   -0.5650    1.5640 o         1 AB1     -0.702500
     13 C10         2.6920   -0.2360    3.2790 c3        1 AB1      0.109700
     14 C11         3.6610    0.8810    3.7530 c         1 AB1      0.541100
     15 N3          3.3940    1.4530    5.1390 ny        1 AB1     -0.690800
     16 C12         3.9970    2.8090    5.4000 c3        1 AB1      0.131500
     17 C13         3.1820   -1.6160    3.7950 c3        1 AB1     -0.099700
     18 C14         3.5930   -1.5990    5.2480 c3        1 AB1     -0.110100
     19 C15         2.0680   -2.6270    3.5890 c3        1 AB1     -0.110100
     20 O2          4.5990    1.3740    3.1540 o         1 AB1     -0.416100
     21 C16        -0.6390    3.0570    5.9100 ca        1 AB1     -0.113500
     22 C17        -0.9520    3.9280    4.8640 ca        1 AB1     -0.096000
     23 C18         0.0530    4.6980    4.2760 ca        1 AB1     -0.113500
     24 C19         1.3670    4.5990    4.7300 ca        1 AB1     -0.133500
     25 C20         1.6860    3.7250    5.7760 ca        1 AB1     -0.164300
     26 C21         0.6740    2.9550    6.3660 ca        1 AB1     -0.133500
     27 C22         3.0760    3.6570    6.2980 c3        1 AB1     -0.052100
     28 C23         5.3810    2.7250    6.0540 c3        1 AB1     -0.112400
     29 C24         6.4390    2.1250    5.1330 c3        1 AB1      0.117100
     30 C25         7.8840    2.4560    5.5940 c3        1 AB1      0.097500
     31 N4          8.3550    1.5850    6.7210 ny        1 AB1     -0.665800
     32 C26         8.1060    2.1150    8.1070 c         1 AB1      0.549100
     33 C27         8.8520    1.4450    9.2420 c3        1 AB1      0.059400
     34 O3          9.4720    0.2600    8.7460 os        1 AB1     -0.380900
     35 C28        10.2240   -0.4090    9.7240 ca        1 AB1      0.038100
     36 O4          6.2360    0.7180    5.1250 oh        1 AB1     -0.646800
     37 C29         8.8290    2.3380    4.3830 c3        1 AB1     -0.050100
     38 O5          7.3240    3.0480    8.2290 o         1 AB1     -0.441100
     39 C30         9.6580   -1.5400   10.3360 ca        1 AB1     -0.067800
     40 C31        10.4530   -2.2760   11.2230 ca        1 AB1     -0.115500
     41 C32        11.7640   -1.8860   11.4900 ca        1 AB1     -0.088000
     42 C33        12.3050   -0.7570   10.8770 ca        1 AB1     -0.115500
     43 C34        11.5420    0.0040    9.9850 ca        1 AB1     -0.067800
     44 C35        12.1280    1.2070    9.3520 c3        1 AB1     -0.055800
     45 C36         8.2730   -1.9770   10.0510 c3        1 AB1     -0.055800
     46 C37         1.0610   -0.8390   -0.0170 c3        1 AB1     -0.113400
     47 H2          2.1020    0.4810   -1.4000 h1        1 AB1      0.067700
     48 H3          2.1940   -1.2910   -1.8230 h1        1 AB1      0.067700
     49 H4          1.0040    1.0360    1.0870 h1        1 AB1      0.056700
     50 H5          0.4610   -0.4360    2.0250 h1        1 AB1      0.056700
     51 H8          4.3180   -0.8010   -0.8700 hn        1 AB1      0.359500
     52 H30        10.8100    0.4980    4.7230 ha        1 AB1      0.136500
     53 H31        13.1970    0.9460    5.2490 ha        1 AB1      0.160000
     54 H32        14.0050    3.2950    5.5170 ha        1 AB1      0.163000
     55 H33        12.4040    5.1990    5.2760 ha        1 AB1      0.160000
     56 H34        10.0090    4.7580    4.7600 ha        1 AB1      0.136500
     57 H9          1.6780   -0.0300    3.7450 h1        1 AB1      0.085700
     58 H15         2.3730    1.5190    5.2740 hn        1 AB1      0.464300
     59 H16         4.0860    3.3210    4.3930 hx        1 AB1      0.119700
     60 H10         4.0770   -1.9310    3.1810 hc        1 AB1      0.116700
     61 H11         2.7950   -1.1680    5.8990 hc        1 AB1      0.051867
     62 H12         4.5560   -1.0470    5.3900 hc        1 AB1      0.051867
     63 H47         3.7660   -2.6530    5.5900 hc        1 AB1      0.051867
     64 H13         1.7520   -2.6650    2.5190 hc        1 AB1      0.051867
     65 H14         2.4290   -3.6450    3.8800 hc        1 AB1      0.051867
     66 H48         1.1800   -2.3750    4.2170 hc        1 AB1      0.051867
     67 H20        -1.4350    2.4660    6.3910 ha        1 AB1      0.159500
     68 H21        -1.9930    4.0190    4.5160 ha        1 AB1      0.163000
     69 H22        -0.1960    5.3990    3.4620 ha        1 AB1      0.159500
     70 H23         2.1500    5.2280    4.2790 ha        1 AB1      0.135500
     71 H19         0.9020    2.3050    7.2240 ha        1 AB1      0.135500
     72 H17         3.5160    4.6920    6.3370 hc        1 AB1      0.088200
     73 H18         3.0850    3.2500    7.3450 hc        1 AB1      0.088200
     74 H24         5.3290    2.1400    7.0100 hc        1 AB1      0.091700
     75 H25         5.6850    3.7740    6.3250 hc        1 AB1      0.091700
     76 H26         6.3230    2.5530    4.0940 h1        1 AB1      0.109700
     77 H27         7.9090    3.5250    5.9660 hx        1 AB1      0.123700
     78 H35         9.3790    1.4320    6.6270 hn        1 AB1      0.484800
     79 H36         9.6280    2.1650    9.6290 h1        1 AB1      0.121200
     80 H37         8.1140    1.1950   10.0540 h1        1 AB1      0.121200
     81 H1          6.4670    0.3870    4.2420 ho        1 AB1      0.459000
     82 H28         8.4890    3.0950    3.6230 hc        1 AB1      0.087700
     83 H29         8.7190    1.3210    3.9180 hc        1 AB1      0.087700
     84 H41        10.0330   -3.1690   11.7120 ha        1 AB1      0.158000
     85 H42        12.3780   -2.4740   12.1920 ha        1 AB1      0.162000
     86 H43        13.3430   -0.4570   11.0930 ha        1 AB1      0.158000
     87 H44        13.2110    1.0420    9.1230 hc        1 AB1      0.049367
     88 H45        11.6030    1.4580    8.3980 hc        1 AB1      0.049367
     89 H46        12.0520    2.0830   10.0450 hc        1 AB1      0.049367
     90 H38         8.2830   -2.8040    9.2950 hc        1 AB1      0.049367
     91 H39         7.7800   -2.3610   10.9800 hc        1 AB1      0.049367
     92 H40         7.6600   -1.1360    9.6440 hc        1 AB1      0.049367
     93 H6          0.9990   -1.9370    0.2010 hc        1 AB1      0.081700
     94 H7          0.1010   -0.5310   -0.5070 hc        1 AB1      0.081700
     95 H321        3.7740    0.7870    5.8240 hn        1 AB1      0.464300
     96 H421        7.9000    0.6610    6.6490 hn        1 AB1      0.484800
@<TRIPOS>BOND
     1    1    5 1   
     2    1   46 1   
     3    1   47 1   
     4    1   48 1   
     5    2    3 1   
     6    2   46 1   
     7    2   49 1   
     8    2   50 1   
     9    3    4 1   
    10    3   13 1   
    11    4    5 1   
    12    4   12 2   
    13    5   51 1   
    14    6    7 ar  
    15    6   11 ar  
    16    6   37 1   
    17    7    8 ar  
    18    7   52 1   
    19    8    9 ar  
    20    8   53 1   
    21    9   10 ar  
    22    9   54 1   
    23   10   11 ar  
    24   10   55 1   
    25   11   56 1   
    26   13   14 1   
    27   13   17 1   
    28   13   57 1   
    29   14   15 1   
    30   14   20 2   
    31   15   16 1   
    32   15   58 1   
    33   15   95 1   
    34   16   27 1   
    35   16   28 1   
    36   16   59 1   
    37   17   18 1   
    38   17   19 1   
    39   17   60 1   
    40   18   61 1   
    41   18   62 1   
    42   18   63 1   
    43   19   64 1   
    44   19   65 1   
    45   19   66 1   
    46   21   22 ar  
    47   21   26 ar  
    48   21   67 1   
    49   22   23 ar  
    50   22   68 1   
    51   23   24 ar  
    52   23   69 1   
    53   24   25 ar  
    54   24   70 1   
    55   25   26 ar  
    56   25   27 1   
    57   26   71 1   
    58   27   72 1   
    59   27   73 1   
    60   28   29 1   
    61   28   74 1   
    62   28   75 1   
    63   29   30 1   
    64   29   36 1   
    65   29   76 1   
    66   30   31 1   
    67   30   37 1   
    68   30   77 1   
    69   31   32 1   
    70   31   78 1   
    71   31   96 1   
    72   32   33 1   
    73   32   38 2   
    74   33   34 1   
    75   33   79 1   
    76   33   80 1   
    77   34   35 1   
    78   35   39 ar  
    79   35   43 ar  
    80   36   81 1   
    81   37   82 1   
    82   37   83 1   
    83   39   40 ar  
    84   39   45 1   
    85   40   41 ar  
    86   40   84 1   
    87   41   42 ar  
    88   41   85 1   
    89   42   43 ar  
    90   42   86 1   
    91   43   44 1   
    92   44   87 1   
    93   44   88 1   
    94   44   89 1   
    95   45   90 1   
    96   45   91 1   
    97   45   92 1   
    98   46   93 1   
    99   46   94 1   
@<TRIPOS>SUBSTRUCTURE
     1 AB1         1 TEMP              0 ****  ****    0 ROOT
