@<TRIPOS>MOLECULE
AB1
   96    99     1     0     0
SMALL
bcc


@<TRIPOS>ATOM
      1 C1          2.0600   -0.4030   -0.9880 c3        1 AB1      0.092000
      2 C2          1.1500    0.0940    1.3010 c3        1 AB1      0.092000
      3 N1          2.4920   -0.0590    1.8310 n         1 AB1     -0.492800
      4 C3          3.5730   -0.4210    0.9710 c         1 AB1      0.816500
      5 N2          3.3530   -0.5690   -0.3820 n         1 AB1     -0.548900
      6 C4         10.3070    2.4830    4.7540 ca        1 AB1     -0.170300
      7 C5         11.1910    1.4090    4.9210 ca        1 AB1     -0.129500
      8 C6         12.5350    1.6480    5.2050 ca        1 AB1     -0.112500
      9 C7         13.0040    2.9570    5.3240 ca        1 AB1     -0.094000
     10 C8         12.1260    4.0290    5.1580 ca        1 AB1     -0.112500
     11 C9         10.7820    3.7950    4.8720 ca        1 AB1     -0.129500
     12 O1          4.7200   -0.5770    1.4640 o         1 AB1     -0.697500
     13 C10         2.6620   -0.2010    3.2500 c3        1 AB1      0.109700
     14 C11         3.6860    0.8640    3.7310 c         1 AB1      0.541100
     15 N3          3.4430    1.4380    5.1210 n4        1 AB1     -0.691800
     16 C12         4.0570    2.7920    5.3690 c3        1 AB1      0.131500
     17 C13         3.1200   -1.6070    3.7240 c3        1 AB1     -0.099700
     18 C14         3.5710   -1.6250    5.1660 c3        1 AB1     -0.110100
     19 C15         1.9690   -2.5760    3.5330 c3        1 AB1     -0.110100
     20 O2          4.6540    1.3070    3.1410 o         1 AB1     -0.416100
     21 C16        -0.5800    3.0930    5.8570 ca        1 AB1     -0.113500
     22 C17        -0.8790    3.9520    4.7990 ca        1 AB1     -0.096000
     23 C18         0.1350    4.7040    4.2030 ca        1 AB1     -0.113500
     24 C19         1.4470    4.5980    4.6630 ca        1 AB1     -0.133500
     25 C20         1.7530    3.7350    5.7220 ca        1 AB1     -0.163300
     26 C21         0.7310    2.9840    6.3190 ca        1 AB1     -0.133500
     27 C22         3.1400    3.6610    6.2510 c3        1 AB1     -0.052100
     28 C23         5.4360    2.7040    6.0320 c3        1 AB1     -0.112400
     29 C24         6.4900    2.0710    5.1300 c3        1 AB1      0.117100
     30 C25         7.9380    2.3920    5.5920 c3        1 AB1      0.097500
     31 N4          8.3900    1.5410    6.7420 n4        1 AB1     -0.665800
     32 C26         8.1390    2.1070    8.1140 c         1 AB1      0.549100
     33 C27         8.8680    1.4520    9.2680 c3        1 AB1      0.059400
     34 O3          9.4750    0.2480    8.8040 os        1 AB1     -0.380900
     35 C28        10.2110   -0.4080    9.8030 ca        1 AB1      0.038100
     36 O4          6.2690    0.6670    5.1480 oh        1 AB1     -0.645800
     37 C29         8.8880    2.2320    4.3900 c3        1 AB1     -0.050100
     38 O5          7.3720    3.0540    8.2080 o         1 AB1     -0.441100
     39 C30         9.6260   -1.5170   10.4370 ca        1 AB1     -0.067800
     40 C31        10.4060   -2.2420   11.3450 ca        1 AB1     -0.115500
     41 C32        11.7200   -1.8650   11.6120 ca        1 AB1     -0.088000
     42 C33        12.2800   -0.7570   10.9760 ca        1 AB1     -0.115500
     43 C34        11.5330   -0.0070   10.0620 ca        1 AB1     -0.067800
     44 C35        12.1400    1.1720    9.4050 c3        1 AB1     -0.055800
     45 C36         8.2370   -1.9420   10.1530 c3        1 AB1     -0.055800
     46 C37         0.9180   -0.6570   -0.0080 c3        1 AB1     -0.114400
     47 H2          1.9720    0.6460   -1.3970 h1        1 AB1      0.067700
     48 H3          1.9780   -1.1200   -1.8550 h1        1 AB1      0.067700
     49 H4          0.9770    1.1960    1.1300 h1        1 AB1      0.056700
     50 H5          0.3940   -0.2660    2.0560 h1        1 AB1      0.056700
     51 H8          4.1470   -0.7380   -0.9570 hn        1 AB1      0.359500
     52 H30        10.8410    0.3740    4.7860 ha        1 AB1      0.136500
     53 H31        13.2310    0.8000    5.3170 ha        1 AB1      0.160000
     54 H32        14.0700    3.1440    5.5340 ha        1 AB1      0.163000
     55 H33        12.4980    5.0640    5.2370 ha        1 AB1      0.160000
     56 H34        10.1000    4.6440    4.7160 ha        1 AB1      0.136500
     57 H9          1.6680    0.0260    3.7460 h1        1 AB1      0.084700
     58 H15         2.4260    1.5090    5.2740 hn        1 AB1      0.463300
     59 H16         4.1580    3.2910    4.3560 hx        1 AB1      0.118700
     60 H10         3.9880   -1.9390    3.0800 hc        1 AB1      0.118700
     61 H11         4.5500   -1.0950    5.2900 hc        1 AB1      0.051867
     62 H12         3.7290   -2.6870    5.4860 hc        1 AB1      0.051867
     63 H47         2.8020   -1.1850    5.8450 hc        1 AB1      0.051867
     64 H13         2.3040   -3.6110    3.7910 hc        1 AB1      0.051867
     65 H14         1.6180   -2.5800    2.4720 hc        1 AB1      0.051867
     66 H48         1.1080   -2.3100    4.1940 hc        1 AB1      0.051867
     67 H20        -1.3830    2.5170    6.3440 ha        1 AB1      0.159500
     68 H21        -1.9190    4.0500    4.4460 ha        1 AB1      0.163000
     69 H22        -0.1040    5.3970    3.3800 ha        1 AB1      0.159500
     70 H23         2.2380    5.2130    4.2070 ha        1 AB1      0.135500
     71 H19         0.9490    2.3430    7.1870 ha        1 AB1      0.135500
     72 H17         3.1410    3.2680    7.3030 hc        1 AB1      0.088200
     73 H18         3.5900    4.6920    6.2780 hc        1 AB1      0.088200
     74 H24         5.7530    3.7530    6.2850 hc        1 AB1      0.091700
     75 H25         5.3710    2.1380    7.0000 hc        1 AB1      0.091700
     76 H26         6.3860    2.4800    4.0810 h1        1 AB1      0.109700
     77 H27         7.9760    3.4700    5.9380 hx        1 AB1      0.123700
     78 H35         9.4120    1.3720    6.6580 hn        1 AB1      0.484800
     79 H36         8.1200    1.2310   10.0810 h1        1 AB1      0.121200
     80 H37         9.6510    2.1700    9.6460 h1        1 AB1      0.121200
     81 H1          6.5060    0.3160    4.2750 ho        1 AB1      0.458000
     82 H28         8.5640    2.9760    3.6100 hc        1 AB1      0.087200
     83 H29         8.7670    1.2070    3.9480 hc        1 AB1      0.087200
     84 H41         9.9700   -3.1190   11.8520 ha        1 AB1      0.158000
     85 H42        12.3220   -2.4450   12.3310 ha        1 AB1      0.162000
     86 H43        13.3210   -0.4670   11.1920 ha        1 AB1      0.158000
     87 H44        12.0720    2.0660   10.0780 hc        1 AB1      0.049367
     88 H45        13.2220    0.9870    9.1870 hc        1 AB1      0.049367
     89 H46        11.6230    1.4090    8.4420 hc        1 AB1      0.049367
     90 H38         7.7330   -2.2950   11.0880 hc        1 AB1      0.049367
     91 H39         7.6380   -1.1030    9.7210 hc        1 AB1      0.049367
     92 H40         8.2410   -2.7870    9.4180 hc        1 AB1      0.049367
     93 H6         -0.0420   -0.3000   -0.4630 hc        1 AB1      0.081700
     94 H7          0.8170   -1.7560    0.1910 hc        1 AB1      0.081700
     95 H321        3.8320    0.7710    5.8000 hn        1 AB1      0.463300
     96 H421        7.9220    0.6230    6.6880 hn        1 AB1      0.484800
@<TRIPOS>BOND
     1    1    5 1   
     2    1   46 1   
     3    1   47 1   
     4    1   48 1   
     5    2    3 1   
     6    2   46 1   
     7    2   49 1   
     8    2   50 1   
     9    3    4 1   
    10    3   13 1   
    11    4    5 1   
    12    4   12 2   
    13    5   51 1   
    14    6    7 ar  
    15    6   11 ar  
    16    6   37 1   
    17    7    8 ar  
    18    7   52 1   
    19    8    9 ar  
    20    8   53 1   
    21    9   10 ar  
    22    9   54 1   
    23   10   11 ar  
    24   10   55 1   
    25   11   56 1   
    26   13   14 1   
    27   13   17 1   
    28   13   57 1   
    29   14   15 1   
    30   14   20 2   
    31   15   16 1   
    32   15   58 1   
    33   15   95 1   
    34   16   27 1   
    35   16   28 1   
    36   16   59 1   
    37   17   18 1   
    38   17   19 1   
    39   17   60 1   
    40   18   61 1   
    41   18   62 1   
    42   18   63 1   
    43   19   64 1   
    44   19   65 1   
    45   19   66 1   
    46   21   22 ar  
    47   21   26 ar  
    48   21   67 1   
    49   22   23 ar  
    50   22   68 1   
    51   23   24 ar  
    52   23   69 1   
    53   24   25 ar  
    54   24   70 1   
    55   25   26 ar  
    56   25   27 1   
    57   26   71 1   
    58   27   72 1   
    59   27   73 1   
    60   28   29 1   
    61   28   74 1   
    62   28   75 1   
    63   29   30 1   
    64   29   36 1   
    65   29   76 1   
    66   30   31 1   
    67   30   37 1   
    68   30   77 1   
    69   31   32 1   
    70   31   78 1   
    71   31   96 1   
    72   32   33 1   
    73   32   38 2   
    74   33   34 1   
    75   33   79 1   
    76   33   80 1   
    77   34   35 1   
    78   35   39 ar  
    79   35   43 ar  
    80   36   81 1   
    81   37   82 1   
    82   37   83 1   
    83   39   40 ar  
    84   39   45 1   
    85   40   41 ar  
    86   40   84 1   
    87   41   42 ar  
    88   41   85 1   
    89   42   43 ar  
    90   42   86 1   
    91   43   44 1   
    92   44   87 1   
    93   44   88 1   
    94   44   89 1   
    95   45   90 1   
    96   45   91 1   
    97   45   92 1   
    98   46   93 1   
    99   46   94 1   
@<TRIPOS>SUBSTRUCTURE
     1 AB1         1 TEMP              0 ****  ****    0 ROOT
