@<TRIPOS>MOLECULE
AB1
   94    89     1     0     0
SMALL
bcc


@<TRIPOS>ATOM
      1 C1         -8.5380   -2.0250    0.7940 c3        1 AB1     -0.022000
      2 C2         -7.3040    0.0420    0.9260 c3        1 AB1     -0.025000
      3 N1         -6.3020   -0.5650    1.7340 n         1 AB1     -0.318000
      4 C3         -6.2260   -2.0470    1.6170 c2        1 AB1      0.400000
      5 N2         -7.5660   -2.6930    1.6010 n         1 AB1     -0.373000
      6 C4          2.4140    1.4810    2.6810 c1        1 AB1     -0.079000
      7 C5          2.0100    0.4530    3.5360 c1        1 AB1     -0.127400
      8 C6          2.5180    0.3850    4.8310 c1        1 AB1     -0.127400
      9 C7          3.4310    1.3460    5.2740 c1        1 AB1     -0.127400
     10 C8          3.8310    2.3670    4.4240 c1        1 AB1     -0.127400
     11 C9          3.3220    2.4350    3.1240 c1        1 AB1     -0.125000
     12 O1         -5.2770   -2.6380    2.0560 o         1 AB1     -0.432000
     13 C10        -5.1520    0.1770    2.1190 c3        1 AB1      0.033000
     14 C11        -3.9360   -0.2930    1.2920 c2        1 AB1      0.278000
     15 N3         -2.6760    0.4880    1.3170 n         1 AB1     -0.370000
     16 C12        -1.6560    0.2620    0.2920 c3        1 AB1      0.027000
     17 C13        -4.8740   -0.0440    3.6000 c3        1 AB1     -0.116000
     18 C14        -5.0550    1.2510    4.3460 c3        1 AB1     -0.209500
     19 C15        -5.8310   -1.0690    4.1450 c3        1 AB1     -0.209500
     20 O2         -3.9930   -1.3190    0.6700 o         1 AB1     -0.392000
     21 C16        -2.2950    0.6740   -4.2660 c1        1 AB1     -0.127400
     22 C17        -1.0270    0.7000   -4.8270 c1        1 AB1     -0.127400
     23 C18         0.0860    0.8950   -4.0200 c1        1 AB1     -0.127400
     24 C19        -0.0710    1.0650   -2.6370 c1        1 AB1     -0.139000
     25 C20        -1.3330    1.0380   -2.0770 c1        1 AB1     -0.077000
     26 C21        -2.4530    0.8420   -2.8910 c1        1 AB1     -0.127400
     27 C22        -1.5300    1.4740   -0.5600 c3        1 AB1     -0.143000
     28 C23        -0.3230   -0.0310    0.9570 c3        1 AB1     -0.167000
     29 C24         0.7660   -0.1360   -0.1110 c3        1 AB1      0.022000
     30 C25         2.0490    0.4340    0.4250 c3        1 AB1     -0.012000
     31 N4          2.8960    0.8300   -0.6730 n         1 AB1     -0.356000
     32 C26         4.2820    0.2930   -0.7780 c2        1 AB1      0.304000
     33 C27         5.0070    0.2880   -2.1540 c3        1 AB1     -0.046000
     34 O3          6.3310   -0.2110   -1.9940 os        1 AB1     -0.239000
     35 C28         6.9110   -0.7110   -3.2020 c2        1 AB1      0.036000
     36 O4          0.9590   -1.4910   -0.4560 oh        1 AB1     -0.316000
     37 C29         1.7400    1.6490    1.2950 c3        1 AB1     -0.144000
     38 O5          4.8930   -0.0350    0.2380 o         1 AB1     -0.362000
     39 C30         7.2940   -0.0050   -4.3490 c2        1 AB1     -0.068000
     40 C31         7.8290   -0.6910   -5.4390 c1        1 AB1     -0.130000
     41 C32         7.9830   -2.0730   -5.3870 c1        1 AB1     -0.127400
     42 C33         7.6010   -2.7740   -4.2440 c1        1 AB1     -0.127400
     43 C34         7.0650   -2.0930   -3.1520 c1        1 AB1     -0.071000
     44 C35         6.6960   -2.8670   -1.8600 c3        1 AB1     -0.185000
     45 C36         7.3570    1.4930   -4.3100 c3        1 AB1     -0.176000
     46 C37        -8.6040   -0.6020    1.0490 c3        1 AB1     -0.180000
     47 H2         -8.2150   -2.1100   -0.1280 h1        1 AB1      0.081500
     48 H3         -9.4020   -2.3820    1.0760 h1        1 AB1      0.081500
     49 H4         -7.4250    0.9480    1.2900 h1        1 AB1      0.091000
     50 H5         -7.0210   -0.1130   -0.0020 h1        1 AB1      0.091000
     51 H8         -7.6430   -3.5940    1.7610 hn        1 AB1      0.246000
     52 H30         1.3620   -0.2280    3.2220 ha        1 AB1      0.135600
     53 H31         2.2270   -0.3550    5.4470 ha        1 AB1      0.135600
     54 H32         3.7970    1.2980    6.2070 ha        1 AB1      0.135600
     55 H33         4.4840    3.0530    4.7400 ha        1 AB1      0.135600
     56 H34         3.6130    3.1760    2.5080 ha        1 AB1      0.130000
     57 H9         -5.3110    1.1390    1.9530 h1        1 AB1      0.128000
     58 H15        -2.5680    1.1440    1.9190 hn        1 AB1      0.254000
     59 H16        -1.9130   -0.4890   -0.2550 h1        1 AB1      0.136000
     60 H10        -3.9560   -0.3610    3.7140 hc        1 AB1      0.127000
     61 H11        -5.0730    1.0720    5.3150 hc        1 AB1      0.078333
     62 H12        -5.9000    1.6680    4.0760 hc        1 AB1      0.078333
     63 H47        -4.3230    1.8440    4.1430 hc        1 AB1      0.078333
     64 H13        -5.5200   -1.9610    3.9100 hc        1 AB1      0.078333
     65 H14        -5.8790   -0.9840    5.1360 hc        1 AB1      0.078333
     66 H48        -6.7190   -0.9220    3.7620 hc        1 AB1      0.078333
     67 H20        -3.0880    0.5350   -4.8410 ha        1 AB1      0.135600
     68 H21        -0.9130    0.5790   -5.8200 ha        1 AB1      0.135600
     69 H22         0.9660    0.9140   -4.4090 ha        1 AB1      0.135600
     70 H23         0.7000    1.1990   -2.0780 ha        1 AB1      0.125000
     71 H19        -3.3380    0.8230   -2.5000 ha        1 AB1      0.135600
     72 H17        -0.7400    2.0090   -0.2630 hc        1 AB1      0.092500
     73 H18        -2.3330    2.0100   -0.4790 hc        1 AB1      0.092500
     74 H24        -0.3810   -0.8660    1.4420 hc        1 AB1      0.102000
     75 H25        -0.1050    0.6810    1.5690 hc        1 AB1      0.102000
     76 H26         0.4990    0.3550   -0.8860 h1        1 AB1      0.087000
     77 H27         2.4960   -0.2280    0.9490 h1        1 AB1      0.138000
     78 H35         2.5760    1.4200   -1.3190 hn        1 AB1      0.233000
     79 H36         5.0420    1.1960   -2.5060 h1        1 AB1      0.110500
     80 H37         4.5150   -0.2860   -2.7800 h1        1 AB1      0.110500
     81 H1          1.4310   -1.5420   -1.2050 ho        1 AB1      0.204000
     82 H28         0.7680    1.7300    1.4110 hc        1 AB1      0.095000
     83 H29         2.0880    2.4640    0.8570 hc        1 AB1      0.095000
     84 H41         8.0940   -0.2060   -6.2300 ha        1 AB1      0.136000
     85 H42         8.3580   -2.5520   -6.1520 ha        1 AB1      0.135600
     86 H43         7.7080   -3.7290   -4.2100 ha        1 AB1      0.135600
     87 H44         7.3990   -2.7090   -1.1620 hc        1 AB1      0.091333
     88 H45         5.8040   -2.5450   -1.5170 hc        1 AB1      0.091333
     89 H46         6.6410   -3.8470   -2.0620 hc        1 AB1      0.091333
     90 H38         6.5360    1.8650   -4.6940 hc        1 AB1      0.087667
     91 H39         7.4470    1.7880   -3.3910 hc        1 AB1      0.087667
     92 H40         8.1300    1.8010   -4.8300 hc        1 AB1      0.087667
     93 H6         -8.9410   -0.4590    1.9450 hc        1 AB1      0.103500
     94 H7         -9.2220   -0.1940    0.4090 hc        1 AB1      0.103500
@<TRIPOS>BOND
     1    1    5 1   
     2    1   46 1   
     3    1   47 1   
     4    1   48 1   
     5    2    3 1   
     6    2   46 1   
     7    2   49 1   
     8    2   50 1   
     9    3    4 1   
    10    3   13 1   
    11    4    5 1   
    12    4   12 1   
    13    5   51 1   
    14    6   11 1   
    15    6   37 1   
    16    7    8 1   
    17    7   52 1   
    18    8   53 1   
    19    9   10 1   
    20    9   54 1   
    21   10   55 1   
    22   11   56 1   
    23   13   14 1   
    24   13   17 1   
    25   13   57 1   
    26   14   15 1   
    27   14   20 1   
    28   15   16 1   
    29   15   58 1   
    30   16   27 1   
    31   16   28 1   
    32   16   59 1   
    33   17   18 1   
    34   17   19 1   
    35   17   60 1   
    36   18   61 1   
    37   18   62 1   
    38   18   63 1   
    39   19   64 1   
    40   19   65 1   
    41   19   66 1   
    42   21   26 1   
    43   21   67 1   
    44   22   23 1   
    45   22   68 1   
    46   23   69 1   
    47   24   25 1   
    48   24   70 1   
    49   25   27 1   
    50   26   71 1   
    51   27   72 1   
    52   27   73 1   
    53   28   29 1   
    54   28   74 1   
    55   28   75 1   
    56   29   30 1   
    57   29   36 1   
    58   29   76 1   
    59   30   31 1   
    60   30   37 1   
    61   30   77 1   
    62   31   32 1   
    63   31   78 1   
    64   32   33 1   
    65   32   38 1   
    66   33   34 1   
    67   33   79 1   
    68   33   80 1   
    69   34   35 1   
    70   35   39 1   
    71   35   43 1   
    72   36   81 1   
    73   37   82 1   
    74   37   83 1   
    75   39   40 1   
    76   39   45 1   
    77   40   84 1   
    78   41   42 1   
    79   41   85 1   
    80   42   86 1   
    81   43   44 1   
    82   44   87 1   
    83   44   88 1   
    84   44   89 1   
    85   45   90 1   
    86   45   91 1   
    87   45   92 1   
    88   46   93 1   
    89   46   94 1   
@<TRIPOS>SUBSTRUCTURE
     1 AB1         1 TEMP              0 ****  ****    0 ROOT
