@<TRIPOS>MOLECULE
AB2
   90    93     1     0     0
SMALL
bcc


@<TRIPOS>ATOM
      1 C1         -0.4150   -4.6790    2.6080 c3        1 AB2      0.097700
      2 O1          0.0490   -3.6150    1.7600 os        1 AB2     -0.268900
      3 C2          1.0480   -2.8330    2.2050 ca        1 AB2      0.297100
      4 C3          1.4770   -1.8160    1.3010 ca        1 AB2     -0.215500
      5 C4          2.4960   -0.9770    1.6630 ca        1 AB2      0.062000
      6 C5          3.1550   -1.0770    2.9280 ca        1 AB2     -0.677500
      7 C6          2.6910   -2.0970    3.8110 ca        1 AB2      0.062000
      8 C7          1.6740   -2.9550    3.4710 ca        1 AB2     -0.215500
      9 S1          4.3490   -0.1700    3.2850 s4        1 AB2      1.684300
     10 O2          4.8610    0.6250    2.3040 o         1 AB2     -0.445900
     11 O3          5.0300   -0.4160    4.4350 o         1 AB2     -0.445900
     12 N1          3.1760    1.7420    4.1880 n3        1 AB2     -0.897200
     13 C8          2.2260    1.4440    5.2650 c3        1 AB2      0.115800
     14 C9          2.8230    0.8420    6.5490 c3        1 AB2     -0.084700
     15 C10         2.9510    1.8880    7.6370 c3        1 AB2     -0.097100
     16 C11         1.9270   -0.2820    7.0350 c3        1 AB2     -0.097100
     17 C12         4.1970    2.7350    4.5090 c3        1 AB2      0.083800
     18 C13         3.7440    4.2060    4.4310 c3        1 AB2      0.103100
     19 O4          2.6410    4.4750    5.2670 oh        1 AB2     -0.594800
     20 C14         4.9490    5.1440    4.7310 c3        1 AB2      0.034000
     21 C15         5.2610    5.1750    6.2390 c3        1 AB2     -0.048100
     22 C16         6.5620    5.8270    6.5420 ca        1 AB2     -0.114300
     23 C17         6.6010    6.9910    7.3180 ca        1 AB2     -0.120000
     24 C18         7.8240    7.5780    7.6410 ca        1 AB2     -0.119500
     25 C19         9.0150    7.0080    7.1900 ca        1 AB2     -0.109000
     26 C20         8.9810    5.8470    6.4180 ca        1 AB2     -0.119500
     27 C21         7.7600    5.2560    6.0970 ca        1 AB2     -0.120000
     28 N2          4.7020    6.4830    4.1950 na        1 AB2      0.065400
     29 C22         3.5800    7.2750    4.4870 cc        1 AB2     -0.160600
     30 C23         3.8330    8.4810    3.8100 cd        1 AB2      0.181600
     31 C24         2.9990    9.6970    3.7130 c3        1 AB2      0.142100
     32 O5          3.8040   10.8400    3.3270 os        1 AB2     -0.395900
     33 C25         4.3190   10.7710    2.0670 c         1 AB2      0.642100
     34 O6          3.6990   10.4400    1.0720 o         1 AB2     -0.391000
     35 N3          5.7460   11.2060    2.0410 n4        1 AB2     -0.627800
     36 C26         5.9440   12.4540    1.2200 c3        1 AB2      0.139800
     37 C27         5.4260   13.7500    1.9560 c3        1 AB2      0.142100
     38 O7          4.2610   14.2030    1.3230 oh        1 AB2     -0.569800
     39 C28         6.5990   14.7490    1.9440 c3        1 AB2     -0.075100
     40 C29         7.7550   14.0130    1.3610 ca        1 AB2     -0.056300
     41 C30         9.0500   14.4710    1.1690 ca        1 AB2     -0.103000
     42 C31         9.9840   13.6180    0.5670 ca        1 AB2     -0.077000
     43 C32         9.6210   12.3330    0.1580 ca        1 AB2     -0.118000
     44 C33         8.3160   11.8670    0.3470 ca        1 AB2     -0.097000
     45 C34         7.3940   12.7090    0.9560 ca        1 AB2     -0.189300
     46 N4          5.0930    8.3280    3.1710 nd        1 AB2     -0.424000
     47 N5          5.5640    7.1760    3.4150 nc        1 AB2     -0.119800
     48 H11        -1.2160   -5.1540    1.9820 h1        1 AB2      0.080700
     49 H12         0.4150   -5.3980    2.8110 h1        1 AB2      0.080700
     50 H13A       -0.8380   -4.2600    3.5520 h1        1 AB2      0.080700
     51 H3          0.9800   -1.7370    0.3180 ha        1 AB2      0.190000
     52 H4          2.8390   -0.2010    0.9500 ha        1 AB2      0.172000
     53 H6          3.1840   -2.2010    4.7990 ha        1 AB2      0.172000
     54 H7          1.3510   -3.7390    4.1760 ha        1 AB2      0.190000
     55 H81         1.4870    0.7110    4.8260 h1        1 AB2      0.072200
     56 H82         1.6440    2.3730    5.5380 h1        1 AB2      0.072200
     57 H9          3.8460    0.4120    6.3440 hc        1 AB2      0.068700
     58 H101        3.6770    2.6860    7.3480 hc        1 AB2      0.046533
     59 H102        1.9630    2.3650    7.8490 hc        1 AB2      0.046533
     60 H103        3.3190    1.4120    8.5800 hc        1 AB2      0.046533
     61 H111        1.8610   -1.0930    6.2690 hc        1 AB2      0.046533
     62 H112        2.3400   -0.7180    7.9770 hc        1 AB2      0.046533
     63 H113        0.8960    0.0960    7.2440 hc        1 AB2      0.046533
     64 H121        4.6070    2.5090    5.5330 h1        1 AB2      0.090200
     65 H122        5.0320    2.6020    3.7570 h1        1 AB2      0.090200
     66 H13         3.3460    4.4160    3.3920 h1        1 AB2      0.099700
     67 HO4         2.8850    4.2560    6.1780 ho        1 AB2      0.419000
     68 H14         5.8540    4.7270    4.1910 h1        1 AB2      0.108700
     69 H151        5.2950    4.1120    6.6030 hc        1 AB2      0.062200
     70 H152        4.4290    5.6940    6.7890 hc        1 AB2      0.062200
     71 H17         5.6670    7.4400    7.6890 ha        1 AB2      0.127000
     72 H18         7.8490    8.4870    8.2610 ha        1 AB2      0.146500
     73 H19         9.9810    7.4680    7.4520 ha        1 AB2      0.150000
     74 H20         9.9200    5.3910    6.0680 ha        1 AB2      0.146500
     75 H21         7.7430    4.3330    5.4990 ha        1 AB2      0.127000
     76 H22         2.7440    6.9150    5.0910 h4        1 AB2      0.221000
     77 H241        2.6040   10.0220    4.7160 h1        1 AB2      0.110200
     78 H242        2.1670    9.5680    2.9690 h1        1 AB2      0.110200
     79 HN3         6.0690   11.3640    3.0040 hn        1 AB2      0.475800
     80 H26         5.3620   12.3030    0.2610 hx        1 AB2      0.134700
     81 H27         5.1010   13.5260    3.0120 h1        1 AB2      0.093700
     82 HO7         4.5060   14.7040    0.5310 ho        1 AB2      0.430000
     83 H281        6.3440   15.6510    1.3270 hc        1 AB2      0.094700
     84 H282        6.8220   15.1050    2.9830 hc        1 AB2      0.094700
     85 H30         9.3410   15.4870    1.4780 ha        1 AB2      0.164000
     86 H31        11.0160   13.9710    0.4070 ha        1 AB2      0.163000
     87 H32        10.3670   11.6810   -0.3250 ha        1 AB2      0.160000
     88 H33         8.0350   10.8620    0.0010 ha        1 AB2      0.135000
     89 H114        2.6390    2.0870    3.4020 hn        1 AB2      0.391800
     90 H321        6.3020   10.4410    1.6290 hn        1 AB2      0.475800
@<TRIPOS>BOND
     1    1    2 1   
     2    1   48 1   
     3    1   49 1   
     4    1   50 1   
     5    2    3 1   
     6    3    4 ar  
     7    3    8 ar  
     8    4    5 ar  
     9    4   51 1   
    10    5    6 ar  
    11    5   52 1   
    12    6    7 ar  
    13    6    9 1   
    14    7    8 ar  
    15    7   53 1   
    16    8   54 1   
    17    9   10 1   
    18    9   11 1   
    19   12   13 1   
    20   12   17 1   
    21   12   89 1   
    22   13   14 1   
    23   13   55 1   
    24   13   56 1   
    25   14   15 1   
    26   14   16 1   
    27   14   57 1   
    28   15   58 1   
    29   15   59 1   
    30   15   60 1   
    31   16   61 1   
    32   16   62 1   
    33   16   63 1   
    34   17   18 1   
    35   17   64 1   
    36   17   65 1   
    37   18   19 1   
    38   18   20 1   
    39   18   66 1   
    40   19   67 1   
    41   20   21 1   
    42   20   28 1   
    43   20   68 1   
    44   21   22 1   
    45   21   69 1   
    46   21   70 1   
    47   22   23 ar  
    48   22   27 ar  
    49   23   24 ar  
    50   23   71 1   
    51   24   25 ar  
    52   24   72 1   
    53   25   26 ar  
    54   25   73 1   
    55   26   27 ar  
    56   26   74 1   
    57   27   75 1   
    58   28   29 1   
    59   28   47 1   
    60   29   30 2   
    61   29   76 1   
    62   30   31 1   
    63   30   46 1   
    64   31   32 1   
    65   31   77 1   
    66   31   78 1   
    67   32   33 1   
    68   33   34 2   
    69   33   35 1   
    70   35   36 1   
    71   35   79 1   
    72   35   90 1   
    73   36   37 1   
    74   36   45 1   
    75   36   80 1   
    76   37   38 1   
    77   37   39 1   
    78   37   81 1   
    79   38   82 1   
    80   39   40 1   
    81   39   83 1   
    82   39   84 1   
    83   40   41 ar  
    84   40   45 ar  
    85   41   42 ar  
    86   41   85 1   
    87   42   43 ar  
    88   42   86 1   
    89   43   44 ar  
    90   43   87 1   
    91   44   45 ar  
    92   44   88 1   
    93   46   47 2   
@<TRIPOS>SUBSTRUCTURE
     1 AB2         1 TEMP              0 ****  ****    0 ROOT
