@<TRIPOS>MOLECULE
AB2
   88    92     1     0     0
SMALL
bcc


@<TRIPOS>ATOM
      1 C1         -5.3900    5.5520   -2.3030 c3        1 AB2      0.109700
      2 O1         -4.7410    4.3610   -2.7430 os        1 AB2     -0.315900
      3 C2         -5.0820    3.1990   -2.0970 ca        1 AB2      0.194100
      4 C3         -4.4260    2.0420   -2.5680 ca        1 AB2     -0.210000
      5 C4         -4.7050    0.8230   -1.9730 ca        1 AB2      0.018000
      6 C5         -5.6190    0.7150   -0.9120 ca        1 AB2     -0.434500
      7 C6         -6.2650    1.8770   -0.4710 ca        1 AB2      0.018000
      8 C7         -6.0080    3.1150   -1.0460 ca        1 AB2     -0.210000
      9 S1         -5.9670   -0.7750   -0.2290 sy        1 AB2      1.510200
     10 O2         -5.6790   -1.7920   -1.1700 o         1 AB2     -0.653800
     11 O3         -7.2820   -0.7410    0.2840 o         1 AB2     -0.653800
     12 N1         -4.8940   -0.8880    1.0100 n3        1 AB2     -0.800500
     13 C8         -5.1240   -0.1930    2.2510 c3        1 AB2      0.218800
     14 C9         -6.0680   -0.8940    3.2440 c3        1 AB2     -0.096700
     15 C10        -5.4880   -2.1960    3.7490 c3        1 AB2     -0.087600
     16 C11        -6.3320    0.0510    4.3990 c3        1 AB2     -0.087600
     17 C12        -3.6990   -1.6730    0.9110 c3        1 AB2      0.193800
     18 C13        -2.3860   -0.8540    0.8800 c3        1 AB2      0.097100
     19 O4         -1.9430   -0.5290    2.1830 oh        1 AB2     -0.594800
     20 C14        -1.2990   -1.6380    0.0900 c3        1 AB2      0.036000
     21 C15        -0.8430   -2.8720    0.8910 c3        1 AB2     -0.051100
     22 C16        -0.0980   -3.8470    0.0520 ca        1 AB2     -0.093300
     23 C17         1.2770   -4.0360    0.2330 ca        1 AB2     -0.117500
     24 C18         1.9650   -4.9660   -0.5460 ca        1 AB2     -0.124000
     25 C19         1.2860   -5.7130   -1.5080 ca        1 AB2     -0.122000
     26 C20        -0.0850   -5.5300   -1.6900 ca        1 AB2     -0.124000
     27 C21        -0.7750   -4.6020   -0.9130 ca        1 AB2     -0.117500
     28 N2         -0.1870   -0.7670   -0.2720 na        1 AB2      0.045400
     29 C22         0.5300    0.0440    0.6170 cc        1 AB2     -0.183600
     30 C23         1.5040    0.6590   -0.1920 cd        1 AB2      0.230600
     31 C24         2.5410    1.6350    0.1940 c3        1 AB2      0.144100
     32 O5          3.7560    0.8800    0.3980 os        1 AB2     -0.441900
     33 C25         4.8570    1.6430    0.7340 c         1 AB2      0.734100
     34 O6          4.7270    2.8750    0.8240 o         1 AB2     -0.584000
     35 N3          5.9750    0.8700    0.9850 n         1 AB2     -0.520900
     36 C26         7.2740    1.4910    1.0710 c3        1 AB2      0.150000
     37 C27         8.1530    0.8600    2.2140 c3        1 AB2      0.135100
     38 O7          8.2160    1.8380    3.2350 oh        1 AB2     -0.586800
     39 C28         9.5430    0.5670    1.6100 c3        1 AB2     -0.075100
     40 C29         9.4080    0.8370    0.1520 ca        1 AB2     -0.074300
     41 C30        10.3590    0.6550   -0.8410 ca        1 AB2     -0.121000
     42 C31        10.0270    0.9850   -2.1610 ca        1 AB2     -0.121000
     43 C32         8.7670    1.4890   -2.4720 ca        1 AB2     -0.131000
     44 C33         7.8050    1.6750   -1.4710 ca        1 AB2     -0.098000
     45 C34         8.1310    1.3460   -0.1650 ca        1 AB2     -0.127300
     46 N4          1.3080    0.1650   -1.5080 nd        1 AB2     -0.335000
     47 N5          0.3360   -0.6460   -1.5230 nc        1 AB2     -0.160800
     48 H11        -4.9560    6.3410   -2.9680 h1        1 AB2      0.052033
     49 H12        -6.4950    5.4740   -2.4500 h1        1 AB2      0.052033
     50 H13A       -5.1470    5.7580   -1.2320 h1        1 AB2      0.052033
     51 H3         -3.7100    2.1250   -3.3980 ha        1 AB2      0.155500
     52 H4         -4.2120   -0.0910   -2.3510 ha        1 AB2      0.154500
     53 H6         -7.0100    1.8020    0.3430 ha        1 AB2      0.154500
     54 H7         -6.5330    4.0090   -0.6810 ha        1 AB2      0.155500
     55 H81        -4.1360   -0.0040    2.7640 h1        1 AB2      0.054700
     56 H82        -5.5740    0.8140    2.0000 h1        1 AB2      0.054700
     57 H9         -7.0460   -1.1090    2.7240 hc        1 AB2      0.081700
     58 H101       -4.4520   -2.0430    4.1390 hc        1 AB2      0.034700
     59 H102       -6.1190   -2.6020    4.5770 hc        1 AB2      0.034700
     60 H103       -5.4550   -2.9570    2.9330 hc        1 AB2      0.034700
     61 H111       -6.7900    1.0000    4.0320 hc        1 AB2      0.034700
     62 H112       -7.0360   -0.4220    5.1260 hc        1 AB2      0.034700
     63 H113       -5.3840    0.2960    4.9340 hc        1 AB2      0.034700
     64 H121       -3.6490   -2.3770    1.7950 h1        1 AB2      0.069200
     65 H122       -3.7590   -2.3020   -0.0260 h1        1 AB2      0.069200
     66 H13        -2.5540    0.1520    0.3970 h1        1 AB2      0.102700
     67 HO4        -1.9140   -1.3440    2.7010 ho        1 AB2      0.403000
     68 H14        -1.7700   -2.0010   -0.8750 h1        1 AB2      0.102700
     69 H151       -0.2160   -2.5490    1.7650 hc        1 AB2      0.058200
     70 H152       -1.7650   -3.3690    1.2980 hc        1 AB2      0.058200
     71 H17         1.8200   -3.4450    0.9860 ha        1 AB2      0.132000
     72 H18         3.0460   -5.1050   -0.4030 ha        1 AB2      0.134500
     73 H19         1.8310   -6.4440   -2.1230 ha        1 AB2      0.134000
     74 H20        -0.6230   -6.1170   -2.4500 ha        1 AB2      0.134500
     75 H21        -1.8560   -4.4590   -1.0610 ha        1 AB2      0.132000
     76 H22         0.2760    0.1300    1.6740 h4        1 AB2      0.207000
     77 H241        2.7230    2.4000   -0.6080 h1        1 AB2      0.069700
     78 H242        2.2750    2.1480    1.1550 h1        1 AB2      0.069700
     79 HN3         5.9400   -0.0810    0.6940 hn        1 AB2      0.320500
     80 H26         7.1280    2.5910    1.3050 h1        1 AB2      0.125700
     81 H27         7.6990   -0.0840    2.6190 h1        1 AB2      0.047700
     82 HO7         8.7480    1.4630    3.9470 ho        1 AB2      0.402000
     83 H281       10.3140    1.2390    2.0670 hc        1 AB2      0.063700
     84 H282        9.8450   -0.4930    1.8000 hc        1 AB2      0.063700
     85 H30        11.3560    0.2610   -0.6000 ha        1 AB2      0.135000
     86 H31        10.7730    0.8440   -2.9570 ha        1 AB2      0.133000
     87 H32         8.5200    1.7460   -3.5130 ha        1 AB2      0.136000
     88 H33         6.8130    2.0810   -1.7200 ha        1 AB2      0.144000
@<TRIPOS>BOND
     1    1    2 1   
     2    1   48 1   
     3    1   49 1   
     4    1   50 1   
     5    2    3 1   
     6    3    4 ar  
     7    3    8 ar  
     8    4    5 ar  
     9    4   51 1   
    10    5    6 ar  
    11    5   52 1   
    12    6    7 ar  
    13    6    9 1   
    14    7    8 ar  
    15    7   53 1   
    16    8   54 1   
    17    9   10 2   
    18    9   11 2   
    19    9   12 1   
    20   12   13 1   
    21   12   17 1   
    22   13   14 1   
    23   13   55 1   
    24   13   56 1   
    25   14   15 1   
    26   14   16 1   
    27   14   57 1   
    28   15   58 1   
    29   15   59 1   
    30   15   60 1   
    31   16   61 1   
    32   16   62 1   
    33   16   63 1   
    34   17   18 1   
    35   17   64 1   
    36   17   65 1   
    37   18   19 1   
    38   18   20 1   
    39   18   66 1   
    40   19   67 1   
    41   20   21 1   
    42   20   28 1   
    43   20   68 1   
    44   21   22 1   
    45   21   69 1   
    46   21   70 1   
    47   22   23 ar  
    48   22   27 ar  
    49   23   24 ar  
    50   23   71 1   
    51   24   25 ar  
    52   24   72 1   
    53   25   26 ar  
    54   25   73 1   
    55   26   27 ar  
    56   26   74 1   
    57   27   75 1   
    58   28   29 1   
    59   28   47 1   
    60   29   30 2   
    61   29   76 1   
    62   30   31 1   
    63   30   46 1   
    64   31   32 1   
    65   31   77 1   
    66   31   78 1   
    67   32   33 1   
    68   33   34 2   
    69   33   35 1   
    70   35   36 1   
    71   35   79 1   
    72   36   37 1   
    73   36   45 1   
    74   36   80 1   
    75   37   38 1   
    76   37   39 1   
    77   37   81 1   
    78   38   82 1   
    79   39   40 1   
    80   39   83 1   
    81   39   84 1   
    82   40   41 ar  
    83   40   45 ar  
    84   41   42 ar  
    85   41   85 1   
    86   42   43 ar  
    87   42   86 1   
    88   43   44 ar  
    89   43   87 1   
    90   44   45 ar  
    91   44   88 1   
    92   46   47 2   
@<TRIPOS>SUBSTRUCTURE
     1 AB2         1 TEMP              0 ****  ****    0 ROOT
