@<TRIPOS>MOLECULE
AB2
   88    83     1     0     0
SMALL
bcc


@<TRIPOS>ATOM
      1 C1         -2.2200   -7.6580   -3.2430 c3        1 AB2     -0.080000
      2 O1         -2.5800   -6.4580   -2.5800 os        1 AB2     -0.199000
      3 C2         -1.6460   -6.0400   -1.5990 c2        1 AB2      0.148000
      4 C3         -0.7530   -5.0160   -1.8860 c2        1 AB2     -0.183000
      5 C4          0.0750   -4.5170   -0.8910 c1        1 AB2      0.011000
      6 C5          0.0110   -5.0410    0.3940 c1        1 AB2     -0.873000
      7 C6         -0.8810   -6.0650    0.6800 c1        1 AB2      0.023000
      8 C7         -1.7090   -6.5640   -0.3170 c1        1 AB2     -0.237000
      9 S1          1.2150   -4.5430    1.6190 s4        1 AB2      2.063800
     10 O2          2.4290   -4.0820    1.0000 o         1 AB2     -0.544900
     11 O3          1.6960   -5.6740    2.3690 o         1 AB2     -0.544900
     12 N1          0.5660   -3.3730    2.6330 n2        1 AB2     -0.820000
     13 C8         -0.7310   -3.5900    3.2490 c3        1 AB2     -0.018000
     14 C9         -0.7090   -4.9020    4.0430 c3        1 AB2     -0.135000
     15 C10        -0.7180   -4.5960    5.5210 c3        1 AB2     -0.205500
     16 C11        -1.9300   -5.7270    3.6910 c3        1 AB2     -0.205500
     17 C12         1.3810   -2.2090    3.0270 c3        1 AB2     -0.014000
     18 C13         0.7520   -0.9250    2.4580 c3        1 AB2      0.004000
     19 O4         -0.2260   -0.4630    3.3270 oh        1 AB2     -0.325000
     20 C14         1.8260    0.1380    2.2940 c3        1 AB2      0.015000
     21 C15         2.3100    0.5840    3.6590 c3        1 AB2     -0.130000
     22 C16         3.7620    1.1040    3.5460 c2        1 AB2     -0.088000
     23 C17         4.1290    2.2800    4.1860 c2        1 AB2     -0.115000
     24 C18         5.4460    2.7200    4.1300 c1        1 AB2     -0.127000
     25 C19         6.3940    1.9840    3.4340 c1        1 AB2     -0.123750
     26 C20         6.0270    0.8090    2.7940 c1        1 AB2     -0.123750
     27 C21         4.7100    0.3690    2.8510 c1        1 AB2     -0.133000
     28 N2          1.2870    1.2540    1.5940 n3        1 AB2     -0.160000
     29 C22         1.8530    1.8780    0.5520 c1        1 AB2     -0.114000
     30 C23         1.0320    2.9180    0.1820 c1        1 AB2     -0.199000
     31 C24         1.2520    3.8520   -0.9880 c2        1 AB2      0.082000
     32 O5         -0.0010    4.3120   -1.4710 os        1 AB2     -0.265000
     33 C25         0.0360    4.7780   -2.8080 c2        1 AB2      0.396000
     34 O6          1.0060    4.5610   -3.4980 o         1 AB2     -0.407000
     35 N3         -1.0680    5.5170   -3.3390 n         1 AB2     -0.322000
     36 C26        -1.2960    5.5440   -4.7380 c3        1 AB2      0.023000
     37 C27        -1.7530    4.2240   -5.1920 c3        1 AB2      0.014000
     38 O7         -0.8640    3.7260   -6.2120 oh        1 AB2     -0.331000
     39 C28        -3.1180    4.3790   -5.7490 c3        1 AB2     -0.125000
     40 C29        -3.5180    5.8740   -5.6130 c2        1 AB2     -0.061000
     41 C30        -4.7060    6.5480   -5.8830 c2        1 AB2     -0.122000
     42 C31        -4.8070    7.9190   -5.6220 c1        1 AB2     -0.119000
     43 C32        -3.7070    8.6190   -5.0850 c1        1 AB2     -0.123750
     44 C33        -2.5120    7.9430   -4.8120 c1        1 AB2     -0.123750
     45 C34        -2.4090    6.5790   -5.0710 c1        1 AB2     -0.103000
     46 N4         -0.0290    2.9190    1.0020 n2        1 AB2     -0.081000
     47 N5          0.1190    1.8910    1.8820 n2        1 AB2     -0.018000
     48 H11        -1.4760   -7.4800   -3.8610 h1        1 AB2      0.091000
     49 H12        -2.9930   -7.9980   -3.7490 h1        1 AB2      0.091000
     50 H13A       -1.9430   -8.3260   -2.5820 h1        1 AB2      0.091000
     51 H3         -0.7080   -4.6470   -2.7890 ha        1 AB2      0.163000
     52 H4          0.7020   -3.7960   -1.0930 ha        1 AB2      0.149000
     53 H6         -0.9260   -6.4330    1.5800 ha        1 AB2      0.156000
     54 H7         -2.3360   -7.2830   -0.1140 ha        1 AB2      0.147000
     55 H81        -0.9340   -2.8440    3.8560 h1        1 AB2      0.096500
     56 H82        -1.4150   -3.6410    2.5580 h1        1 AB2      0.096500
     57 H9          0.0960   -5.4020    3.8200 hc        1 AB2      0.116000
     58 H101        0.1560   -4.2520    5.7880 hc        1 AB2      0.074500
     59 H102       -1.4060   -3.9240    5.7110 hc        1 AB2      0.074500
     60 H103       -0.9140   -5.4160    6.0240 hc        1 AB2      0.074500
     61 H111       -2.7140   -5.1400    3.6310 hc        1 AB2      0.074500
     62 H112       -2.0800   -6.4050    4.3890 hc        1 AB2      0.074500
     63 H113       -1.7880   -6.1680    2.8360 hc        1 AB2      0.074500
     64 H121        2.2880   -2.3110    2.6750 h1        1 AB2      0.115000
     65 H122        1.4140   -2.1500    4.0060 h1        1 AB2      0.115000
     66 H13         0.3500   -1.1170    1.5860 h1        1 AB2      0.095000
     67 HO4        -1.0290   -0.6680    3.0050 ho        1 AB2      0.223000
     68 H14         2.5730   -0.2300    1.7900 h1        1 AB2      0.121000
     69 H151        1.7310    1.3020    3.9930 hc        1 AB2      0.114500
     70 H152        2.2810   -0.1710    4.2770 hc        1 AB2      0.114500
     71 H17         3.4630    2.7970    4.6750 ha        1 AB2      0.139000
     72 H18         5.7040    3.5480    4.5800 ha        1 AB2      0.135000
     73 H19         7.3220    2.2940    3.3940 ha        1 AB2      0.135500
     74 H20         6.6940    0.2920    2.3050 ha        1 AB2      0.135500
     75 H21         4.4530   -0.4540    2.4020 ha        1 AB2      0.130000
     76 H22         2.6810    1.6190    0.1120 DU        1 AB2      0.197000
     77 H241        1.7220    3.3760   -1.7020 h4        1 AB2      0.120500
     78 H242        1.7900    4.6160   -0.6980 h4        1 AB2      0.120500
     79 HN3        -1.6180    5.9830   -2.7780 hn        1 AB2      0.237000
     80 H26        -0.4690    5.7850   -5.2030 h1        1 AB2      0.135000
     81 H27        -1.7720    3.6030   -4.4380 h1        1 AB2      0.097000
     82 HO7        -0.8320    2.8380   -6.1700 ho        1 AB2      0.231000
     83 H281       -3.1080    4.1350   -6.6940 hc        1 AB2      0.112500
     84 H282       -3.7400    3.8310   -5.2320 hc        1 AB2      0.112500
     85 H30        -5.4670    6.0650   -6.2540 ha        1 AB2      0.137000
     86 H31        -5.6410    8.3920   -5.8120 ha        1 AB2      0.132000
     87 H32        -3.7790    9.5740   -4.9030 ha        1 AB2      0.135500
     88 H33        -1.7540    8.4270   -4.4420 ha        1 AB2      0.135500
@<TRIPOS>BOND
     1    1    2 1   
     2    1   48 1   
     3    1   49 1   
     4    1   50 1   
     5    2    3 1   
     6    3    4 1   
     7    3    8 1   
     8    4    5 1   
     9    4   51 1   
    10    5   52 1   
    11    6    7 1   
    12    6    9 1   
    13    7   53 1   
    14    8   54 1   
    15    9   10 1   
    16    9   11 1   
    17   12   13 1   
    18   12   17 1   
    19   13   14 1   
    20   13   55 1   
    21   13   56 1   
    22   14   15 1   
    23   14   16 1   
    24   14   57 1   
    25   15   58 1   
    26   15   59 1   
    27   15   60 1   
    28   16   61 1   
    29   16   62 1   
    30   16   63 1   
    31   17   18 1   
    32   17   64 1   
    33   17   65 1   
    34   18   19 1   
    35   18   20 1   
    36   18   66 1   
    37   19   67 1   
    38   20   21 1   
    39   20   28 1   
    40   20   68 1   
    41   21   22 1   
    42   21   69 1   
    43   21   70 1   
    44   22   23 1   
    45   22   27 1   
    46   23   24 1   
    47   23   71 1   
    48   24   72 1   
    49   25   26 1   
    50   25   73 1   
    51   26   74 1   
    52   27   75 1   
    53   28   29 1   
    54   28   47 1   
    55   29   30 1   
    56   30   46 1   
    57   31   32 1   
    58   31   77 1   
    59   31   78 1   
    60   32   33 1   
    61   33   34 1   
    62   33   35 1   
    63   35   36 1   
    64   35   79 1   
    65   36   37 1   
    66   36   45 1   
    67   36   80 1   
    68   37   38 1   
    69   37   39 1   
    70   37   81 1   
    71   38   82 1   
    72   39   40 1   
    73   39   83 1   
    74   39   84 1   
    75   40   41 1   
    76   40   45 1   
    77   41   42 1   
    78   41   85 1   
    79   42   86 1   
    80   43   44 1   
    81   43   87 1   
    82   44   88 1   
    83   46   47 1   
@<TRIPOS>SUBSTRUCTURE
     1 AB2         1 TEMP              0 ****  ****    0 ROOT
