@<TRIPOS>MOLECULE
AB2
   90    93     1     0     0
SMALL
bcc


@<TRIPOS>ATOM
      1 C1         -1.8160   -3.7840    3.3110 c3        1 AB2      0.097700
      2 O1         -1.3320   -2.7580    2.4270 os        1 AB2     -0.270900
      3 C2         -0.1500   -2.1790    2.7100 ca        1 AB2      0.295100
      4 C3          0.2800   -1.1880    1.7780 ca        1 AB2     -0.215500
      5 C4          1.4730   -0.5470    1.9790 ca        1 AB2      0.063500
      6 C5          2.3120   -0.8290    3.1020 ca        1 AB2     -0.671500
      7 C6          1.8480   -1.8220    4.0130 ca        1 AB2      0.063500
      8 C7          0.6580   -2.4850    3.8320 ca        1 AB2     -0.215500
      9 S1          3.6820   -0.1390    3.2720 s4        1 AB2      1.680300
     10 O2          4.1820    0.5440    2.2010 o         1 AB2     -0.446900
     11 O3          4.4780   -0.5140    4.3090 o         1 AB2     -0.446900
     12 N1          3.0670    1.9770    4.2450 n3        1 AB2     -0.891200
     13 C8          2.1360    2.0030    5.3810 c3        1 AB2      0.121800
     14 C9          2.2990    0.8750    6.4090 c3        1 AB2     -0.065700
     15 C10         3.5940    0.9600    7.1840 c3        1 AB2     -0.103600
     16 C11         1.1150    0.9320    7.3560 c3        1 AB2     -0.103600
     17 C12         4.3190    2.6950    4.4880 c3        1 AB2      0.120800
     18 C13         4.3010    4.2080    4.1730 c3        1 AB2      0.119100
     19 O4          3.1520    4.7540    4.7890 oh        1 AB2     -0.602800
     20 C14         5.6090    4.8460    4.7230 c3        1 AB2      0.032000
     21 C15         5.4560    5.1540    6.2240 c3        1 AB2     -0.040100
     22 C16         6.7600    5.4230    6.8840 ca        1 AB2     -0.119300
     23 C17         7.0250    6.6810    7.4370 ca        1 AB2     -0.128000
     24 C18         8.2330    6.9190    8.0920 ca        1 AB2     -0.120000
     25 C19         9.1840    5.9040    8.2000 ca        1 AB2     -0.110000
     26 C20         8.9220    4.6460    7.6550 ca        1 AB2     -0.120000
     27 C21         7.7150    4.4050    7.0020 ca        1 AB2     -0.128000
     28 N2          6.0110    6.0230    3.9480 na        1 AB2      0.066400
     29 C22         7.3170    6.3000    3.5250 cc        1 AB2     -0.149600
     30 C23         7.2130    7.5620    2.9080 cd        1 AB2      0.182600
     31 C24         8.2620    8.3580    2.2390 c3        1 AB2      0.142100
     32 O5          7.8730    9.7520    2.1490 os        1 AB2     -0.398900
     33 C25         6.8150   10.0000    1.3260 c         1 AB2      0.635100
     34 O6          6.6650    9.5100    0.2200 o         1 AB2     -0.393000
     35 N3          5.8830   10.9950    1.9290 n4        1 AB2     -0.627800
     36 C26         5.5610   12.1280    0.9940 c3        1 AB2      0.139800
     37 C27         4.2120   12.8430    1.3980 c3        1 AB2      0.140100
     38 O7          3.1630   12.3120    0.6390 oh        1 AB2     -0.578800
     39 C28         4.4750   14.3500    1.2200 c3        1 AB2     -0.069100
     40 C29         5.9550   14.4810    1.1070 ca        1 AB2     -0.059300
     41 C30         6.7110   15.6440    1.0800 ca        1 AB2     -0.101000
     42 C31         8.1020   15.5390    0.9480 ca        1 AB2     -0.078000
     43 C32         8.7200   14.2930    0.8430 ca        1 AB2     -0.116000
     44 C33         7.9610   13.1170    0.8660 ca        1 AB2     -0.093000
     45 C34         6.5840   13.2200    1.0020 ca        1 AB2     -0.185300
     46 N4          5.8550    7.9540    3.0170 nd        1 AB2     -0.410000
     47 N5          5.1960    7.0540    3.6250 nc        1 AB2     -0.159800
     48 H11        -1.1000   -4.6400    3.3330 h1        1 AB2      0.080033
     49 H12        -2.7850   -4.0790    2.8290 h1        1 AB2      0.080033
     50 H13A       -1.9850   -3.3620    4.3300 h1        1 AB2      0.080033
     51 H3         -0.3580   -0.9670    0.9050 ha        1 AB2      0.188500
     52 H4          1.8150    0.2080    1.2440 ha        1 AB2      0.171500
     53 H6          2.4810   -2.0750    4.8870 ha        1 AB2      0.171500
     54 H7          0.3360   -3.2550    4.5530 ha        1 AB2      0.188500
     55 H81         1.0910    1.9330    4.9570 h1        1 AB2      0.079200
     56 H82         2.2090    2.9920    5.9230 h1        1 AB2      0.079200
     57 H9          2.2740   -0.1150    5.8690 hc        1 AB2      0.019700
     58 H101        3.5600    0.2670    8.0610 hc        1 AB2      0.051533
     59 H102        4.4600    0.6590    6.5450 hc        1 AB2      0.051533
     60 H103        3.7610    1.9950    7.5700 hc        1 AB2      0.051533
     61 H111        1.1080    1.8970    7.9180 hc        1 AB2      0.051533
     62 H112        0.1530    0.8400    6.7960 hc        1 AB2      0.051533
     63 H113        1.1770    0.0960    8.0940 hc        1 AB2      0.051533
     64 H121        5.1040    2.2310    3.8220 h1        1 AB2      0.085200
     65 H122        4.6270    2.5460    5.5620 h1        1 AB2      0.085200
     66 H13         4.2340    4.3490    3.0550 h1        1 AB2      0.063700
     67 HO4         3.1070    5.6920    4.5580 ho        1 AB2      0.439000
     68 H14         6.4490    4.0980    4.5900 h1        1 AB2      0.087700
     69 H151        4.9720    4.2580    6.7020 hc        1 AB2      0.076700
     70 H152        4.7500    6.0150    6.3670 hc        1 AB2      0.076700
     71 H17         6.2730    7.4810    7.3700 ha        1 AB2      0.128000
     72 H18         8.4310    7.9070    8.5340 ha        1 AB2      0.147500
     73 H19        10.1340    6.0910    8.7240 ha        1 AB2      0.152000
     74 H20         9.6660    3.8400    7.7510 ha        1 AB2      0.147500
     75 H21         7.5060    3.4050    6.5950 ha        1 AB2      0.128000
     76 H22         8.1610    5.6270    3.6880 h4        1 AB2      0.217000
     77 H241        9.2020    8.4220    2.8570 h1        1 AB2      0.111200
     78 H242        8.4760    7.9710    1.2060 h1        1 AB2      0.111200
     79 HN3         6.3000   11.3630    2.7950 hn        1 AB2      0.480800
     80 H26         5.4500   11.6740   -0.0370 hx        1 AB2      0.135700
     81 H27         3.9330   12.6220    2.4670 h1        1 AB2      0.087700
     82 HO7         3.1300   12.7640   -0.2160 ho        1 AB2      0.433000
     83 H281        4.0720   14.9250    2.0930 hc        1 AB2      0.093700
     84 H282        3.9680   14.7360    0.2970 hc        1 AB2      0.093700
     85 H30         6.2300   16.6310    1.1580 ha        1 AB2      0.164000
     86 H31         8.7130   16.4570    0.9230 ha        1 AB2      0.164000
     87 H32         9.8140   14.2310    0.7350 ha        1 AB2      0.160000
     88 H33         8.4530   12.1380    0.7740 ha        1 AB2      0.135000
     89 H114        2.6030    2.4330    3.4690 hn        1 AB2      0.388800
     90 H321        5.0100   10.4930    2.1580 hn        1 AB2      0.480800
@<TRIPOS>BOND
     1    1    2 1   
     2    1   48 1   
     3    1   49 1   
     4    1   50 1   
     5    2    3 1   
     6    3    4 ar  
     7    3    8 ar  
     8    4    5 ar  
     9    4   51 1   
    10    5    6 ar  
    11    5   52 1   
    12    6    7 ar  
    13    6    9 1   
    14    7    8 ar  
    15    7   53 1   
    16    8   54 1   
    17    9   10 1   
    18    9   11 1   
    19   12   13 1   
    20   12   17 1   
    21   12   89 1   
    22   13   14 1   
    23   13   55 1   
    24   13   56 1   
    25   14   15 1   
    26   14   16 1   
    27   14   57 1   
    28   15   58 1   
    29   15   59 1   
    30   15   60 1   
    31   16   61 1   
    32   16   62 1   
    33   16   63 1   
    34   17   18 1   
    35   17   64 1   
    36   17   65 1   
    37   18   19 1   
    38   18   20 1   
    39   18   66 1   
    40   19   67 1   
    41   20   21 1   
    42   20   28 1   
    43   20   68 1   
    44   21   22 1   
    45   21   69 1   
    46   21   70 1   
    47   22   23 ar  
    48   22   27 ar  
    49   23   24 ar  
    50   23   71 1   
    51   24   25 ar  
    52   24   72 1   
    53   25   26 ar  
    54   25   73 1   
    55   26   27 ar  
    56   26   74 1   
    57   27   75 1   
    58   28   29 1   
    59   28   47 1   
    60   29   30 2   
    61   29   76 1   
    62   30   31 1   
    63   30   46 1   
    64   31   32 1   
    65   31   77 1   
    66   31   78 1   
    67   32   33 1   
    68   33   34 2   
    69   33   35 1   
    70   35   36 1   
    71   35   79 1   
    72   35   90 1   
    73   36   37 1   
    74   36   45 1   
    75   36   80 1   
    76   37   38 1   
    77   37   39 1   
    78   37   81 1   
    79   38   82 1   
    80   39   40 1   
    81   39   83 1   
    82   39   84 1   
    83   40   41 ar  
    84   40   45 ar  
    85   41   42 ar  
    86   41   85 1   
    87   42   43 ar  
    88   42   86 1   
    89   43   44 ar  
    90   43   87 1   
    91   44   45 ar  
    92   44   88 1   
    93   46   47 2   
@<TRIPOS>SUBSTRUCTURE
     1 AB2         1 TEMP              0 ****  ****    0 ROOT
