@<TRIPOS>MOLECULE
AB2
   90    93     1     0     0
SMALL
bcc


@<TRIPOS>ATOM
      1 C1         -1.8540   -3.7560    3.4240 c3        1 AB2      0.097700
      2 O1         -1.3620   -2.7440    2.5280 os        1 AB2     -0.270900
      3 C2         -0.1780   -2.1680    2.8070 ca        1 AB2      0.295100
      4 C3          0.2620   -1.1930    1.8640 ca        1 AB2     -0.215500
      5 C4          1.4570   -0.5560    2.0610 ca        1 AB2      0.063500
      6 C5          2.2920   -0.8280    3.1890 ca        1 AB2     -0.671500
      7 C6          1.8180   -1.8070    4.1120 ca        1 AB2      0.063500
      8 C7          0.6250   -2.4650    3.9360 ca        1 AB2     -0.215500
      9 S1          3.6650   -0.1440    3.3550 s4        1 AB2      1.680300
     10 O2          4.1720    0.5220    2.2770 o         1 AB2     -0.446900
     11 O3          4.4550   -0.5110    4.3990 o         1 AB2     -0.446900
     12 N1          3.0580    1.9870    4.2980 n7        1 AB2     -0.891200
     13 C8          2.1260    2.0310    5.4340 c3        1 AB2      0.121800
     14 C9          2.2860    0.9170    6.4770 c3        1 AB2     -0.065700
     15 C10         3.5810    1.0080    7.2520 c3        1 AB2     -0.103600
     16 C11         1.1010    0.9900    7.4220 c3        1 AB2     -0.103600
     17 C12         4.3120    2.7030    4.5320 c3        1 AB2      0.120800
     18 C13         4.2990    4.2130    4.1970 c3        1 AB2      0.119100
     19 O4          3.1520    4.7710    4.8060 oh        1 AB2     -0.602800
     20 C14         5.6090    4.8540    4.7370 c3        1 AB2      0.032000
     21 C15         5.4580    5.1820    6.2340 c3        1 AB2     -0.040100
     22 C16         6.7630    5.4550    6.8900 ca        1 AB2     -0.120300
     23 C17         7.0340    6.7190    7.4250 ca        1 AB2     -0.128000
     24 C18         8.2440    6.9610    8.0760 ca        1 AB2     -0.120000
     25 C19         9.1900    5.9440    8.1980 ca        1 AB2     -0.110000
     26 C20         8.9230    4.6790    7.6710 ca        1 AB2     -0.120000
     27 C21         7.7150    4.4350    7.0220 ca        1 AB2     -0.128000
     28 N2          6.0140    6.0180    3.9460 na        1 AB2      0.066400
     29 C22         7.3220    6.2850    3.5190 cc        1 AB2     -0.149600
     30 C23         7.2220    7.5380    2.8850 cd        1 AB2      0.182600
     31 C24         8.2730    8.3220    2.2040 c3        1 AB2      0.142100
     32 O5          7.8880    9.7160    2.0940 os        1 AB2     -0.398900
     33 C25         6.8310    9.9550    1.2680 c         1 AB2      0.635100
     34 O6          6.6780    9.4480    0.1690 o         1 AB2     -0.393000
     35 N3          5.9030   10.9620    1.8560 ny        1 AB2     -0.627800
     36 C26         5.5800   12.0800    0.9020 c3        1 AB2      0.139800
     37 C27         4.2340   12.8040    1.2980 c3        1 AB2      0.140100
     38 O7          3.1810   12.2620    0.5510 oh        1 AB2     -0.578800
     39 C28         4.4990   14.3080    1.0930 c3        1 AB2     -0.069100
     40 C29         5.9790   14.4340    0.9720 ca        1 AB2     -0.059300
     41 C30         6.7370   15.5940    0.9220 ca        1 AB2     -0.101000
     42 C31         8.1270   15.4840    0.7860 ca        1 AB2     -0.078000
     43 C32         8.7420   14.2350    0.7000 ca        1 AB2     -0.116000
     44 C33         7.9810   13.0610    0.7470 ca        1 AB2     -0.093000
     45 C34         6.6050   13.1690    0.8870 ca        1 AB2     -0.185300
     46 N4          5.8650    7.9370    2.9890 nd        1 AB2     -0.410000
     47 N5          5.2040    7.0470    3.6100 nc        1 AB2     -0.159800
     48 H11        -1.1440   -4.6160    3.4590 h1        1 AB2      0.080033
     49 H12        -2.0240   -3.3210    4.4370 h1        1 AB2      0.080033
     50 H13A       -2.8240   -4.0520    2.9430 h1        1 AB2      0.080033
     51 H3         -0.3730   -0.9790    0.9870 ha        1 AB2      0.188500
     52 H4          1.8060    0.1870    1.3170 ha        1 AB2      0.171500
     53 H6          2.4480   -2.0520    4.9910 ha        1 AB2      0.171500
     54 H7          0.2970   -3.2230    4.6660 ha        1 AB2      0.188500
     55 H81         2.2030    3.0270    5.9630 h1        1 AB2      0.079200
     56 H82         1.0810    1.9590    5.0110 h1        1 AB2      0.079200
     57 H9          2.2580   -0.0810    5.9510 hc        1 AB2      0.019700
     58 H101        3.5440    0.3270    8.1380 hc        1 AB2      0.051533
     59 H102        3.7510    2.0480    7.6230 hc        1 AB2      0.051533
     60 H103        4.4460    0.6950    6.6170 hc        1 AB2      0.051533
     61 H111        0.1390    0.8930    6.8640 hc        1 AB2      0.051533
     62 H112        1.1610    0.1640    8.1720 hc        1 AB2      0.051533
     63 H113        1.0970    1.9620    7.9710 hc        1 AB2      0.051533
     64 H121        5.0950    2.2280    3.8720 h1        1 AB2      0.085200
     65 H122        4.6190    2.5680    5.6080 h1        1 AB2      0.085200
     66 H13         4.2310    4.3380    3.0780 h1        1 AB2      0.063700
     67 HO4         3.1110    5.7050    4.5630 ho        1 AB2      0.439000
     68 H14         6.4460    4.1010    4.6140 h1        1 AB2      0.087700
     69 H151        4.7550    6.0480    6.3650 hc        1 AB2      0.076700
     70 H152        4.9710    4.2950    6.7250 hc        1 AB2      0.076700
     71 H17         6.2860    7.5220    7.3470 ha        1 AB2      0.128000
     72 H18         8.4460    7.9550    8.5050 ha        1 AB2      0.147500
     73 H19        10.1410    6.1340    8.7190 ha        1 AB2      0.152000
     74 H20         9.6630    3.8710    7.7780 ha        1 AB2      0.147500
     75 H21         7.5010    3.4300    6.6290 ha        1 AB2      0.128000
     76 H22         8.1630    5.6120    3.6910 h4        1 AB2      0.217000
     77 H241        8.4860    7.9190    1.1770 h1        1 AB2      0.111200
     78 H242        9.2130    8.3920    2.8210 h1        1 AB2      0.111200
     79 HN3         5.0300   10.4670    2.0970 hn        1 AB2      0.480800
     80 H26         5.4640   11.6070   -0.1210 hx        1 AB2      0.135700
     81 H27         3.9570   12.6020    2.3710 h1        1 AB2      0.087700
     82 HO7         3.1460   12.7000   -0.3120 ho        1 AB2      0.433000
     83 H281        3.9900   14.6780    0.1640 hc        1 AB2      0.093700
     84 H282        4.1010   14.8990    1.9570 hc        1 AB2      0.093700
     85 H30         6.2590   16.5840    0.9840 ha        1 AB2      0.164000
     86 H31         8.7410   16.3990    0.7430 ha        1 AB2      0.164000
     87 H32         9.8360   14.1680    0.5890 ha        1 AB2      0.160000
     88 H33         8.4710   12.0790    0.6700 ha        1 AB2      0.135000
     89 H114        2.5950    2.4340    3.5170 hn        1 AB2      0.388800
     90 H321        6.3240   11.3450    2.7140 hn        1 AB2      0.480800
@<TRIPOS>BOND
     1    1    2 1   
     2    1   48 1   
     3    1   49 1   
     4    1   50 1   
     5    2    3 1   
     6    3    4 ar  
     7    3    8 ar  
     8    4    5 ar  
     9    4   51 1   
    10    5    6 ar  
    11    5   52 1   
    12    6    7 ar  
    13    6    9 1   
    14    7    8 ar  
    15    7   53 1   
    16    8   54 1   
    17    9   10 1   
    18    9   11 1   
    19   12   13 1   
    20   12   17 1   
    21   12   89 1   
    22   13   14 1   
    23   13   55 1   
    24   13   56 1   
    25   14   15 1   
    26   14   16 1   
    27   14   57 1   
    28   15   58 1   
    29   15   59 1   
    30   15   60 1   
    31   16   61 1   
    32   16   62 1   
    33   16   63 1   
    34   17   18 1   
    35   17   64 1   
    36   17   65 1   
    37   18   19 1   
    38   18   20 1   
    39   18   66 1   
    40   19   67 1   
    41   20   21 1   
    42   20   28 1   
    43   20   68 1   
    44   21   22 1   
    45   21   69 1   
    46   21   70 1   
    47   22   23 ar  
    48   22   27 ar  
    49   23   24 ar  
    50   23   71 1   
    51   24   25 ar  
    52   24   72 1   
    53   25   26 ar  
    54   25   73 1   
    55   26   27 ar  
    56   26   74 1   
    57   27   75 1   
    58   28   29 1   
    59   28   47 1   
    60   29   30 2   
    61   29   76 1   
    62   30   31 1   
    63   30   46 1   
    64   31   32 1   
    65   31   77 1   
    66   31   78 1   
    67   32   33 1   
    68   33   34 2   
    69   33   35 1   
    70   35   36 1   
    71   35   79 1   
    72   35   90 1   
    73   36   37 1   
    74   36   45 1   
    75   36   80 1   
    76   37   38 1   
    77   37   39 1   
    78   37   81 1   
    79   38   82 1   
    80   39   40 1   
    81   39   83 1   
    82   39   84 1   
    83   40   41 ar  
    84   40   45 ar  
    85   41   42 ar  
    86   41   85 1   
    87   42   43 ar  
    88   42   86 1   
    89   43   44 ar  
    90   43   87 1   
    91   44   45 ar  
    92   44   88 1   
    93   46   47 2   
@<TRIPOS>SUBSTRUCTURE
     1 AB2         1 TEMP              0 ****  ****    0 ROOT
