@<TRIPOS>MOLECULE
AB3
   38    40     1     0     0
SMALL
bcc


@<TRIPOS>ATOM
      1 C20        -0.0290    0.0020   -0.0370 c3        1 AB3     -0.105767
      2 C14         1.5090    0.0150   -0.0440 c3        1 AB3      0.099700
      3 C19         1.9820   -0.0590    1.4160 c3        1 AB3     -0.105767
      4 C21         1.9820   -1.2490   -0.7810 c3        1 AB3     -0.105767
      5 N11         2.0430    1.2320   -0.7020 na        1 AB3      0.005200
      6 N15         1.2650    2.1880   -1.2420 nc        1 AB3     -0.496100
      7 C7          3.4080    1.5350   -0.8780 ca        1 AB3      0.474800
      8 N3          4.5360    0.8610   -0.4900 nb        1 AB3     -0.742000
      9 C6          5.6770    1.5000   -0.8270 ca        1 AB3      0.691900
     10 N5          5.8600    2.6840   -1.4730 nb        1 AB3     -0.800000
     11 C2          4.7330    3.3600   -1.8760 ca        1 AB3      0.757200
     12 N1          4.8430    4.5370   -2.5800 nv        1 AB3     -0.957500
     13 C4          3.4470    2.8040   -1.5930 ca        1 AB3     -0.493500
     14 C13         2.0540    3.1490   -1.7900 cd        1 AB3      0.409500
     15 C18         1.5330    4.3350   -2.4600 ca        1 AB3     -0.067900
     16 C28         0.6620    5.1890   -1.7790 ca        1 AB3     -0.130000
     17 C27         1.8940    4.6050   -3.7890 ca        1 AB3     -0.161000
     18 C30         1.3950    5.7350   -4.4310 ca        1 AB3     -0.097000
     19 C26         0.5340    6.6070   -3.7660 ca        1 AB3     -0.209000
     20 C29         0.1720    6.3270   -2.4420 ca        1 AB3      0.121100
     21 O33        -0.6710    7.1370   -1.7160 oh        1 AB3     -0.495100
     22 H201       -0.3690   -0.9320    0.4710 hc        1 AB3      0.052256
     23 H202       -0.4360    0.8790    0.5200 hc        1 AB3      0.052256
     24 H203       -0.4360    0.0100   -1.0760 hc        1 AB3      0.052256
     25 H191        1.6550    0.8430    1.9850 hc        1 AB3      0.052256
     26 H192        3.0920   -0.1500    1.4810 hc        1 AB3      0.052256
     27 H193        1.5260   -0.9630    1.8880 hc        1 AB3      0.052256
     28 H211        3.0920   -1.3490   -0.7450 hc        1 AB3      0.052256
     29 H212        1.6510   -1.2330   -1.8470 hc        1 AB3      0.052256
     30 H213        1.5300   -2.1390   -0.2800 hc        1 AB3      0.052256
     31 H6          6.6170    0.9870   -0.5290 h5        1 AB3      0.051100
     32 HN11        4.0240    5.0830   -2.6940 hn        1 AB3      0.440300
     33 HN12        5.7260    4.9820   -2.6540 hn        1 AB3      0.440300
     34 H28         0.3540    4.9850   -0.7440 ha        1 AB3      0.164000
     35 H27         2.5590    3.9120   -4.3260 ha        1 AB3      0.148000
     36 H30         1.6760    5.9390   -5.4750 ha        1 AB3      0.137000
     37 H26         0.1400    7.4980   -4.2740 ha        1 AB3      0.136000
     38 H33        -0.9640    7.8570   -2.2930 ho        1 AB3      0.420000
@<TRIPOS>BOND
     1    1    2 1   
     2    1   22 1   
     3    1   23 1   
     4    1   24 1   
     5    2    3 1   
     6    2    4 1   
     7    2    5 1   
     8    3   25 1   
     9    3   26 1   
    10    3   27 1   
    11    4   28 1   
    12    4   29 1   
    13    4   30 1   
    14    5    6 1   
    15    5    7 1   
    16    6   14 2   
    17    7    8 ar  
    18    7   13 ar  
    19    8    9 ar  
    20    9   10 ar  
    21    9   31 1   
    22   10   11 ar  
    23   11   12 1   
    24   11   13 ar  
    25   12   32 1   
    26   12   33 1   
    27   13   14 1   
    28   14   15 1   
    29   15   16 ar  
    30   15   17 ar  
    31   16   20 ar  
    32   16   34 1   
    33   17   18 ar  
    34   17   35 1   
    35   18   19 ar  
    36   18   36 1   
    37   19   20 ar  
    38   19   37 1   
    39   20   21 1   
    40   21   38 1   
@<TRIPOS>SUBSTRUCTURE
     1 AB3         1 TEMP              0 ****  ****    0 ROOT
