@<TRIPOS>MOLECULE
AB3
   38    40     1     0     0
SMALL
bcc


@<TRIPOS>ATOM
      1 C20        -0.0300    0.0070   -0.0300 c3        1 AB3     -0.105767
      2 C14         1.5080    0.0170   -0.0400 c3        1 AB3      0.099700
      3 C19         1.9840   -0.0570    1.4190 c3        1 AB3     -0.105767
      4 C21         1.9770   -1.2470   -0.7770 c3        1 AB3     -0.105767
      5 N11         2.0430    1.2340   -0.7000 na        1 AB3      0.005200
      6 N15         1.2650    2.1900   -1.2400 nc        1 AB3     -0.496100
      7 C7          3.4080    1.5350   -0.8790 ca        1 AB3      0.474800
      8 N3          4.5360    0.8590   -0.4920 nb        1 AB3     -0.742000
      9 C6          5.6760    1.4960   -0.8330 ca        1 AB3      0.691900
     10 N5          5.8600    2.6790   -1.4800 nb        1 AB3     -0.800000
     11 C2          4.7330    3.3560   -1.8820 ca        1 AB3      0.757200
     12 N1          4.8440    4.5320   -2.5870 nh        1 AB3     -0.957500
     13 C4          3.4470    2.8020   -1.5950 ca        1 AB3     -0.493500
     14 C13         2.0540    3.1490   -1.7900 cd        1 AB3      0.409500
     15 C18         1.5330    4.3340   -2.4610 ca        1 AB3     -0.067900
     16 C28         0.6650    5.1910   -1.7800 ca        1 AB3     -0.130000
     17 C27         1.8920    4.6020   -3.7910 ca        1 AB3     -0.161000
     18 C30         1.3920    5.7320   -4.4340 ca        1 AB3     -0.097000
     19 C26         0.5350    6.6060   -3.7680 ca        1 AB3     -0.209000
     20 C29         0.1750    6.3290   -2.4430 ca        1 AB3      0.121100
     21 O33        -0.6660    7.1410   -1.7160 oh        1 AB3     -0.495100
     22 H201       -0.4340    0.8850    0.5270 hc        1 AB3      0.052256
     23 H202       -0.3710   -0.9270    0.4800 hc        1 AB3      0.052256
     24 H203       -0.4390    0.0150   -1.0680 hc        1 AB3      0.052256
     25 H191        3.0940   -0.1490    1.4820 hc        1 AB3      0.052256
     26 H192        1.6600    0.8470    1.9880 hc        1 AB3      0.052256
     27 H193        1.5280   -0.9590    1.8930 hc        1 AB3      0.052256
     28 H211        3.0870   -1.3490   -0.7430 hc        1 AB3      0.052256
     29 H212        1.6450   -1.2320   -1.8420 hc        1 AB3      0.052256
     30 H213        1.5260   -2.1360   -0.2740 hc        1 AB3      0.052256
     31 H6          6.6160    0.9820   -0.5350 h5        1 AB3      0.051100
     32 HN11        4.0240    5.0790   -2.7010 hn        1 AB3      0.440300
     33 HN12        5.7260    4.9760   -2.6640 hn        1 AB3      0.440300
     34 H28         0.3580    4.9880   -0.7440 ha        1 AB3      0.164000
     35 H27         2.5550    3.9070   -4.3290 ha        1 AB3      0.148000
     36 H30         1.6720    5.9350   -5.4790 ha        1 AB3      0.137000
     37 H26         0.1410    7.4970   -4.2770 ha        1 AB3      0.136000
     38 H33        -0.9590    7.8600   -2.2940 ho        1 AB3      0.420000
@<TRIPOS>BOND
     1    1    2 1   
     2    1   22 1   
     3    1   23 1   
     4    1   24 1   
     5    2    3 1   
     6    2    4 1   
     7    2    5 1   
     8    3   25 1   
     9    3   26 1   
    10    3   27 1   
    11    4   28 1   
    12    4   29 1   
    13    4   30 1   
    14    5    6 1   
    15    5    7 1   
    16    6   14 2   
    17    7    8 ar  
    18    7   13 ar  
    19    8    9 ar  
    20    9   10 ar  
    21    9   31 1   
    22   10   11 ar  
    23   11   12 1   
    24   11   13 ar  
    25   12   32 1   
    26   12   33 1   
    27   13   14 1   
    28   14   15 1   
    29   15   16 ar  
    30   15   17 ar  
    31   16   20 ar  
    32   16   34 1   
    33   17   18 ar  
    34   17   35 1   
    35   18   19 ar  
    36   18   36 1   
    37   19   20 ar  
    38   19   37 1   
    39   20   21 1   
    40   21   38 1   
@<TRIPOS>SUBSTRUCTURE
     1 AB3         1 TEMP              0 ****  ****    0 ROOT
