@<TRIPOS>MOLECULE
AB3
   38    33     1     0     0
SMALL
bcc


@<TRIPOS>ATOM
      1 C20        -1.9490   -2.4230    1.4640 c3        1 AB3     -0.105433
      2 C14        -0.4350   -2.4740    1.4630 c3        1 AB3      0.277200
      3 C19         0.0730   -2.4780    2.8930 c3        1 AB3     -0.105433
      4 C21         0.0280   -3.7330    0.7590 c3        1 AB3     -0.105433
      5 N11         0.0820   -1.3220    0.7730 n3        1 AB3     -0.345000
      6 N15        -0.7970   -0.3870    0.2820 n1        1 AB3     -0.358800
      7 C7          1.3650   -0.8720    0.5320 c1        1 AB3      0.465600
      8 N3          2.5870   -1.3880    0.8450 n1        1 AB3     -0.542800
      9 C6          3.7210   -0.7020    0.5240 c1        1 AB3      0.413300
     10 N5          3.6340    0.5050   -0.1120 n1        1 AB3     -0.600800
     11 C2          2.4320    1.0160   -0.4220 c1        1 AB3      0.294800
     12 N1          3.0400    2.1790   -0.9720 n3        1 AB3     -0.822400
     13 C4          1.2770    0.3190   -0.0960 c1        1 AB3     -0.280000
     14 C13        -0.0770    0.6240   -0.2530 cg        1 AB3      0.280800
     15 C18        -0.7740    1.6790   -0.8650 cg        1 AB3      0.022000
     16 C28        -1.1150    1.5990   -2.2090 c1        1 AB3     -0.130500
     17 C27        -1.1290    2.7970   -0.1240 c1        1 AB3     -0.104500
     18 C30        -1.8240    3.8370   -0.7270 c1        1 AB3     -0.069500
     19 C26        -2.1650    3.7570   -2.0700 c1        1 AB3     -0.069500
     20 C29        -1.8100    2.6380   -2.8110 c1        1 AB3      0.105600
     21 O33        -2.0630    2.6030   -4.1930 oh        1 AB3     -0.479600
     22 H201       -2.3040   -3.2170    1.9210 hc        1 AB3      0.052256
     23 H202       -2.2490   -1.6150    1.9330 hc        1 AB3      0.052256
     24 H203       -2.2760   -2.4040    0.5390 hc        1 AB3      0.052256
     25 H191        1.0510   -2.5620    2.8930 hc        1 AB3      0.052256
     26 H192       -0.1830   -1.6420    3.3320 hc        1 AB3      0.052256
     27 H193       -0.3210   -3.2370    3.3780 hc        1 AB3      0.052256
     28 H211       -0.4740   -4.5030    1.1030 hc        1 AB3      0.052256
     29 H212        0.9860   -3.8670    0.9240 hc        1 AB3      0.052256
     30 H213       -0.1290   -3.6450   -0.2030 hc        1 AB3      0.052256
     31 H6          4.5970   -1.0740    0.7490 ha        1 AB3      0.130500
     32 HN11        3.9130    2.3660   -0.7890 hn        1 AB3      0.442300
     33 HN12        2.5500    2.7490   -1.4960 hn        1 AB3      0.442300
     34 H28        -0.8660    0.8130   -2.7290 ha        1 AB3      0.089500
     35 H27        -0.8900    2.8530    0.8180 ha        1 AB3      0.090500
     36 H30        -2.0740    4.6250   -0.2060 ha        1 AB3      0.088500
     37 H26        -2.6540    4.4890   -2.4950 ha        1 AB3      0.088500
     38 H33        -2.7800    2.0970   -4.3510 ho        1 AB3      0.422000
@<TRIPOS>BOND
     1    1    2 1   
     2    1   22 1   
     3    1   23 1   
     4    1   24 1   
     5    2    3 1   
     6    2    4 1   
     7    2    5 1   
     8    3   25 1   
     9    3   26 1   
    10    3   27 1   
    11    4   28 1   
    12    4   29 1   
    13    4   30 1   
    14    5    6 1   
    15    5    7 1   
    16    6   14 3   
    17    7    8 3   
    18    9   10 3   
    19    9   31 1   
    20   11   12 1   
    21   11   13 3   
    22   12   32 1   
    23   12   33 1   
    24   14   15 1   
    25   15   17 3   
    26   16   20 3   
    27   16   34 1   
    28   17   35 1   
    29   18   19 3   
    30   18   36 1   
    31   19   37 1   
    32   20   21 1   
    33   21   38 1   
@<TRIPOS>SUBSTRUCTURE
     1 AB3         1 TEMP              0 ****  ****    0 ROOT
