@<TRIPOS>MOLECULE
AB3
   38    40     1     0     0
SMALL
bcc


@<TRIPOS>ATOM
      1 C20         2.4670    3.2020    0.4290 c3        1 AB3     -0.105767
      2 C14         2.9220    1.7540    0.1750 c3        1 AB3      0.099700
      3 C19         3.7170    1.7400   -1.1400 c3        1 AB3     -0.105767
      4 C21         3.8600    1.3520    1.3230 c3        1 AB3     -0.105767
      5 N11         1.7680    0.8250    0.0950 na        1 AB3      0.005200
      6 N15         0.4890    1.2110    0.2510 nc        1 AB3     -0.496100
      7 C7          1.8510   -0.5660   -0.1190 ca        1 AB3      0.474800
      8 N3          2.9330   -1.3800   -0.3320 nb        1 AB3     -0.742000
      9 C6          2.5920   -2.6720   -0.5230 ca        1 AB3      0.691900
     10 N5          1.3660   -3.2630   -0.5400 nb        1 AB3     -0.800000
     11 C2          0.2770   -2.4540   -0.3140 ca        1 AB3      0.757200
     12 N1         -0.9880   -2.9910   -0.2650 nh        1 AB3     -0.957500
     13 C4          0.4800   -1.0570   -0.0900 ca        1 AB3     -0.493500
     14 C13        -0.3210    0.1250    0.1520 cd        1 AB3      0.409500
     15 C18        -1.7730    0.1890    0.2730 ca        1 AB3     -0.067900
     16 C28        -2.5030    1.0290   -0.5710 ca        1 AB3     -0.130000
     17 C27        -2.4300   -0.5820    1.2450 ca        1 AB3     -0.161000
     18 C30        -3.8160   -0.5200    1.3640 ca        1 AB3     -0.097000
     19 C26        -4.5640    0.3030    0.5240 ca        1 AB3     -0.209000
     20 C29        -3.9010    1.0750   -0.4400 ca        1 AB3      0.121100
     21 O33        -4.5660    1.9120   -1.3070 oh        1 AB3     -0.495100
     22 H201        1.8100    3.5670   -0.3950 hc        1 AB3      0.052256
     23 H202        1.9190    3.2870    1.3970 hc        1 AB3      0.052256
     24 H203        3.3750    3.8500    0.4750 hc        1 AB3      0.052256
     25 H191        4.5480    2.4810   -1.0570 hc        1 AB3      0.052256
     26 H192        4.1590    0.7350   -1.3380 hc        1 AB3      0.052256
     27 H193        3.0670    2.0280   -2.0000 hc        1 AB3      0.052256
     28 H211        3.3180    1.3570    2.2990 hc        1 AB3      0.052256
     29 H212        4.2990    0.3410    1.1550 hc        1 AB3      0.052256
     30 H213        4.6930    2.0940    1.3740 hc        1 AB3      0.052256
     31 H6          3.4420   -3.3680   -0.7010 h5        1 AB3      0.051100
     32 HN11       -1.7550   -2.3630   -0.2830 hn        1 AB3      0.440300
     33 HN12       -1.1340   -3.9280   -0.5540 hn        1 AB3      0.440300
     34 H28        -2.0040    1.6530   -1.3270 ha        1 AB3      0.164000
     35 H27        -1.8440   -1.2210    1.9230 ha        1 AB3      0.148000
     36 H30        -4.3260   -1.1210    2.1310 ha        1 AB3      0.137000
     37 H26        -5.6570    0.3520    0.6190 ha        1 AB3      0.136000
     38 H33        -5.5080    1.8790   -1.0890 ho        1 AB3      0.420000
@<TRIPOS>BOND
     1    1    2 1   
     2    1   22 1   
     3    1   23 1   
     4    1   24 1   
     5    2    3 1   
     6    2    4 1   
     7    2    5 1   
     8    3   25 1   
     9    3   26 1   
    10    3   27 1   
    11    4   28 1   
    12    4   29 1   
    13    4   30 1   
    14    5    6 1   
    15    5    7 1   
    16    6   14 2   
    17    7    8 ar  
    18    7   13 ar  
    19    8    9 ar  
    20    9   10 ar  
    21    9   31 1   
    22   10   11 ar  
    23   11   12 1   
    24   11   13 ar  
    25   12   32 1   
    26   12   33 1   
    27   13   14 1   
    28   14   15 1   
    29   15   16 ar  
    30   15   17 ar  
    31   16   20 ar  
    32   16   34 1   
    33   17   18 ar  
    34   17   35 1   
    35   18   19 ar  
    36   18   36 1   
    37   19   20 ar  
    38   19   37 1   
    39   20   21 1   
    40   21   38 1   
@<TRIPOS>SUBSTRUCTURE
     1 AB3         1 TEMP              0 ****  ****    0 ROOT
