@<TRIPOS>MOLECULE
AB3
   39    41     1     0     0
SMALL
bcc


@<TRIPOS>ATOM
      1 C20        -0.0120   -0.0990   -0.0630 c3        1 AB3     -0.112767
      2 C14         1.5230   -0.0470   -0.0330 c3        1 AB3      0.091700
      3 C19         1.9750   -0.0670    1.4330 c3        1 AB3     -0.112767
      4 C21         2.0590   -1.2930   -0.7480 c3        1 AB3     -0.112767
      5 N11         2.0350    1.1920   -0.7090 na        1 AB3      0.041200
      6 N15         1.2440    2.1140   -1.2690 nc        1 AB3     -0.415100
      7 C7          3.3900    1.5360   -0.8540 ca        1 AB3      0.460800
      8 N3          4.5420    0.9210   -0.4530 nb        1 AB3     -0.623000
      9 C6          5.6710    1.5830   -0.7730 ca        1 AB3      0.678900
     10 N5          5.8060    2.7790   -1.4370 nb        1 AB3     -0.697000
     11 C2          4.6600    3.3770   -1.8280 ca        1 AB3      0.555200
     12 N1          4.7460    4.6770   -2.5280 n4        1 AB3     -0.834300
     13 C4          3.3970    2.8180   -1.5860 ca        1 AB3     -0.428500
     14 C13         1.9970    3.1070   -1.8120 cd        1 AB3      0.390500
     15 C18         1.4700    4.2740   -2.5070 ca        1 AB3     -0.102900
     16 C28         0.6400    5.1680   -1.8320 ca        1 AB3     -0.129000
     17 C27         1.7940    4.4820   -3.8590 ca        1 AB3     -0.221000
     18 C30         1.2850    5.5920   -4.5300 ca        1 AB3     -0.079000
     19 C26         0.4670    6.5070   -3.8710 ca        1 AB3     -0.198000
     20 C29         0.1430    6.2900   -2.5240 ca        1 AB3      0.150100
     21 O33        -0.6490    7.1380   -1.7970 oh        1 AB3     -0.477100
     22 H201       -0.4580    0.7720    0.4740 hc        1 AB3      0.064144
     23 H202       -0.3350   -1.0360    0.4520 hc        1 AB3      0.064144
     24 H203       -0.3970   -0.1200   -1.1100 hc        1 AB3      0.064144
     25 H191        1.6090    0.8350    1.9790 hc        1 AB3      0.064144
     26 H192        1.5370   -0.9750    1.9170 hc        1 AB3      0.064144
     27 H193        3.0850   -0.1270    1.5230 hc        1 AB3      0.064144
     28 H211        1.7530   -1.3030   -1.8220 hc        1 AB3      0.064144
     29 H212        1.6230   -2.1930   -0.2480 hc        1 AB3      0.064144
     30 H213        3.1700   -1.3630   -0.6810 hc        1 AB3      0.064144
     31 H6          6.6320    1.1090   -0.4640 h5        1 AB3      0.098100
     32 HN11        5.4710    4.6440   -3.2560 hn        1 AB3      0.477467
     33 HN12        3.8260    4.8850   -2.9550 hn        1 AB3      0.477467
     34 H28         0.3520    5.0070   -0.7810 ha        1 AB3      0.175000
     35 H27         2.3730    3.7260   -4.4100 ha        1 AB3      0.141000
     36 H30         1.5160    5.7400   -5.5980 ha        1 AB3      0.154000
     37 H26         0.0610    7.3790   -4.4070 ha        1 AB3      0.159000
     38 H33        -1.0110    7.8120   -2.3940 ho        1 AB3      0.439000
     39 H13         4.9870    5.4110   -1.8510 hn        1 AB3      0.477467
@<TRIPOS>BOND
     1    1    2 1   
     2    1   22 1   
     3    1   23 1   
     4    1   24 1   
     5    2    3 1   
     6    2    4 1   
     7    2    5 1   
     8    3   25 1   
     9    3   26 1   
    10    3   27 1   
    11    4   28 1   
    12    4   29 1   
    13    4   30 1   
    14    5    6 1   
    15    5    7 1   
    16    6   14 2   
    17    7    8 ar  
    18    7   13 ar  
    19    8    9 ar  
    20    9   10 ar  
    21    9   31 1   
    22   10   11 ar  
    23   11   12 1   
    24   11   13 ar  
    25   12   32 1   
    26   12   33 1   
    27   12   39 1   
    28   13   14 1   
    29   14   15 1   
    30   15   16 ar  
    31   15   17 ar  
    32   16   20 ar  
    33   16   34 1   
    34   17   18 ar  
    35   17   35 1   
    36   18   19 ar  
    37   18   36 1   
    38   19   20 ar  
    39   19   37 1   
    40   20   21 1   
    41   21   38 1   
@<TRIPOS>SUBSTRUCTURE
     1 AB3         1 TEMP              0 ****  ****    0 ROOT
