@<TRIPOS>MOLECULE
AB4
   45    38     1     0     0
SMALL
bcc


@<TRIPOS>ATOM
      1 CL22        2.0460    5.8960    1.3270 cl        1 AB4      0.010000
      2 C10         0.3040    5.8120    1.3590 c2        1 AB4      0.033000
      3 C19        -0.4360    6.9150    1.7540 c2        1 AB4     -0.142000
      4 C23        -1.8190    6.8400    1.8010 c1        1 AB4     -0.061000
      5 C20        -2.4630    5.6630    1.4520 c1        1 AB4     -0.088000
      6 CL24       -4.2040    5.5880    1.4530 cl        1 AB4      0.010000
      7 C7         -1.7230    4.5600    1.0570 c1        1 AB4     -0.018000
      8 C2         -0.3390    4.6340    1.0100 c1        1 AB4     -0.784000
      9 S1          0.6000    3.2620    0.3980 s4        1 AB4      2.079800
     10 O8          0.5550    3.1980   -1.0360 o         1 AB4     -0.532400
     11 O9          2.0060    3.4500    0.6250 o         1 AB4     -0.532400
     12 N5          0.0680    1.8630    1.0740 n2        1 AB4     -0.838000
     13 C14         0.7910    0.6560    0.8700 c2        1 AB4      0.018000
     14 C12         0.3360   -0.2760   -0.0500 c2        1 AB4     -0.106000
     15 C21         1.9000    0.3740    1.6520 c1        1 AB4     -0.107000
     16 C18         2.5540   -0.8410    1.5140 c1        1 AB4     -0.204000
     17 C11         2.0990   -1.7730    0.5940 c1        1 AB4      0.093000
     18 O25         2.7330   -3.0260    0.4910 o         1 AB4     -0.235000
     19 C3          0.9900   -1.4900   -0.1880 c1        1 AB4     -0.024000
     20 C4          0.5020   -2.4440   -1.0680 c1        1 AB4     -0.062000
     21 C6         -0.4240   -3.4780   -0.8330 c1        1 AB4     -0.026000
     22 C27        -0.9240   -3.6970    0.4650 c2        1 AB4     -0.098000
     23 C29        -1.8380   -4.7170    0.6950 c1        1 AB4     -0.158000
     24 C30        -2.2600   -5.5250   -0.3570 c1        1 AB4     -0.123000
     25 C28        -1.7680   -5.3100   -1.6390 c1        1 AB4     -0.123000
     26 C15        -0.8420   -4.2760   -1.8740 c1        1 AB4     -0.026000
     27 C17        -0.3420   -4.0580   -3.1710 c2        1 AB4     -0.098000
     28 C16         0.5710   -3.0370   -3.4010 c1        1 AB4     -0.158000
     29 C13         0.9940   -2.2300   -2.3480 c1        1 AB4      0.103000
     30 O26         1.7720   -1.2510   -2.9900 oh        1 AB4     -0.241000
     31 H19         0.0170    7.7440    2.0000 ha        1 AB4      0.160000
     32 H23        -2.3410    7.6170    2.0790 ha        1 AB4      0.158000
     33 H7         -2.1760    3.7310    0.8110 ha        1 AB4      0.189000
     34 H5         -0.6790    1.8640    1.5970 hn        1 AB4      0.249000
     35 H12        -0.4460   -0.0780   -0.6000 ha        1 AB4      0.176000
     36 H21         2.2210    1.0300    2.3000 ha        1 AB4      0.137000
     37 H18         3.3360   -1.0400    2.0640 ha        1 AB4      0.136000
     38 H25         3.6060   -2.9080    0.3820 ho        1 AB4      0.216000
     39 H27        -0.6280   -3.1310    1.2040 ha        1 AB4      0.137000
     40 H29        -2.1840   -4.8690    1.5960 ha        1 AB4      0.133000
     41 H30        -2.9020   -6.2420   -0.1950 ha        1 AB4      0.130500
     42 H28        -2.0640   -5.8760   -2.3770 ha        1 AB4      0.130500
     43 H17        -0.6380   -4.6230   -3.9100 ha        1 AB4      0.137000
     44 H16         0.9180   -2.8860   -4.3020 ha        1 AB4      0.133000
     45 H26         2.5220   -1.6180   -3.2860 ho        1 AB4      0.218000
@<TRIPOS>BOND
     1    1    2 1   
     2    2    3 1   
     3    2    8 1   
     4    3    4 1   
     5    3   31 1   
     6    4   32 1   
     7    5    6 1   
     8    5    7 1   
     9    7   33 1   
    10    8    9 1   
    11    9   10 1   
    12    9   11 1   
    13   12   13 1   
    14   12   34 1   
    15   13   14 1   
    16   13   15 1   
    17   14   19 1   
    18   14   35 1   
    19   15   36 1   
    20   16   17 1   
    21   16   37 1   
    22   17   19 1   
    23   18   38 1   
    24   20   29 1   
    25   21   22 1   
    26   21   26 1   
    27   22   23 1   
    28   22   39 1   
    29   23   40 1   
    30   24   25 1   
    31   24   41 1   
    32   25   42 1   
    33   26   27 1   
    34   27   28 1   
    35   27   43 1   
    36   28   44 1   
    37   29   30 1   
    38   30   45 1   
@<TRIPOS>SUBSTRUCTURE
     1 AB4         1 TEMP              0 ****  ****    0 ROOT
