@<TRIPOS>MOLECULE
AB4
   45    48     1     0     0
SMALL
bcc


@<TRIPOS>ATOM
      1 CL22       -0.4980   -0.3640   -2.2210 cl        1 AB4     -0.072400
      2 C10         0.6050   -0.7070   -0.9730 ca        1 AB4      0.124400
      3 C19         0.0940   -1.1740    0.2430 ca        1 AB4     -0.143000
      4 C23         0.9610   -1.4750    1.2890 ca        1 AB4     -0.060000
      5 C20         2.3390   -1.3070    1.1100 ca        1 AB4     -0.010600
      6 CL24        3.4050   -1.6760    2.3780 cl        1 AB4     -0.072400
      7 C7          2.8400   -0.8380   -0.1050 ca        1 AB4     -0.018000
      8 C2          1.9810   -0.5250   -1.1670 ca        1 AB4     -0.345500
      9 S1          2.6950    0.0950   -2.5950 sy        1 AB4      1.507200
     10 O8          2.1470    1.3600   -2.8760 o         1 AB4     -0.643300
     11 O9          4.0930    0.0540   -2.4150 o         1 AB4     -0.643300
     12 N5          2.2090   -0.9370   -3.7420 nh        1 AB4     -0.777500
     13 C14         2.6910   -2.2400   -3.9770 ca        1 AB4      0.103600
     14 C12         1.7880   -3.2720   -4.3090 ca        1 AB4     -0.104000
     15 C21         4.0700   -2.5330   -3.9140 ca        1 AB4     -0.112000
     16 C18         4.5190   -3.8240   -4.1600 ca        1 AB4     -0.200000
     17 C11         3.6130   -4.8410   -4.4910 ca        1 AB4      0.137100
     18 O25         4.0270   -6.1280   -4.7420 oh        1 AB4     -0.483100
     19 C3          2.2310   -4.5700   -4.5700 cp        1 AB4     -0.030000
     20 C4          1.2610   -5.6090   -4.9290 cp        1 AB4     -0.061000
     21 C6          0.5920   -6.3490   -3.9080 ca        1 AB4      0.014000
     22 C27         0.8400   -6.1100   -2.5260 ca        1 AB4     -0.123000
     23 C29         0.1870   -6.8320   -1.5590 ca        1 AB4     -0.119000
     24 C30        -0.7500   -7.8300   -1.9180 ca        1 AB4     -0.138000
     25 C28        -1.0100   -8.0840   -3.2420 ca        1 AB4     -0.108000
     26 C15        -0.3470   -7.3520   -4.2640 ca        1 AB4     -0.069000
     27 C17        -0.6070   -7.6110   -5.6370 ca        1 AB4     -0.074000
     28 C16         0.0340   -6.9000   -6.6160 ca        1 AB4     -0.198000
     29 C13         0.9720   -5.8910   -6.2590 ca        1 AB4      0.144100
     30 O26         1.6090   -5.1520   -7.2310 oh        1 AB4     -0.489100
     31 H19        -0.9920   -1.3040    0.3760 ha        1 AB4      0.160000
     32 H23         0.5620   -1.8420    2.2480 ha        1 AB4      0.157000
     33 H7          3.9320   -0.7060   -0.2360 ha        1 AB4      0.185000
     34 H5          1.4400   -0.6990   -4.3310 hn        1 AB4      0.461800
     35 H12         0.7080   -3.0630   -4.3800 ha        1 AB4      0.144000
     36 H21         4.8030   -1.7470   -3.6600 ha        1 AB4      0.171000
     37 H18         5.5950   -4.0450   -4.1040 ha        1 AB4      0.140000
     38 H25         4.9950   -6.1430   -4.6940 ho        1 AB4      0.418000
     39 H27         1.5730   -5.3350   -2.2520 ha        1 AB4      0.141000
     40 H29         0.3860   -6.6460   -0.4930 ha        1 AB4      0.131000
     41 H30        -1.2610   -8.3960   -1.1260 ha        1 AB4      0.132000
     42 H28        -1.7350   -8.8580   -3.5360 ha        1 AB4      0.131000
     43 H17        -1.3340   -8.3960   -5.8990 ha        1 AB4      0.136000
     44 H16        -0.1610   -7.0960   -7.6800 ha        1 AB4      0.135000
     45 H26         1.3640   -5.5210   -8.0920 ho        1 AB4      0.418000
@<TRIPOS>BOND
     1    1    2 1   
     2    2    3 ar  
     3    2    8 ar  
     4    3    4 ar  
     5    3   31 1   
     6    4    5 ar  
     7    4   32 1   
     8    5    6 1   
     9    5    7 ar  
    10    7    8 ar  
    11    7   33 1   
    12    8    9 1   
    13    9   10 2   
    14    9   11 2   
    15    9   12 1   
    16   12   13 1   
    17   12   34 1   
    18   13   14 ar  
    19   13   15 ar  
    20   14   19 ar  
    21   14   35 1   
    22   15   16 ar  
    23   15   36 1   
    24   16   17 ar  
    25   16   37 1   
    26   17   18 1   
    27   17   19 ar  
    28   18   38 1   
    29   19   20 1   
    30   20   21 ar  
    31   20   29 ar  
    32   21   22 ar  
    33   21   26 ar  
    34   22   23 ar  
    35   22   39 1   
    36   23   24 ar  
    37   23   40 1   
    38   24   25 ar  
    39   24   41 1   
    40   25   26 ar  
    41   25   42 1   
    42   26   27 ar  
    43   27   28 ar  
    44   27   43 1   
    45   28   29 ar  
    46   28   44 1   
    47   29   30 1   
    48   30   45 1   
@<TRIPOS>SUBSTRUCTURE
     1 AB4         1 TEMP              0 ****  ****    0 ROOT
