@<TRIPOS>MOLECULE
AB4
   45    48     1     0     0
SMALL
bcc


@<TRIPOS>ATOM
      1 CL22        2.0580    2.4000   -1.7080 cl        1 AB4     -0.072400
      2 C10         2.7010    1.7380   -0.2810 ca        1 AB4      0.125400
      3 C19         2.8750    2.5880    0.8160 ca        1 AB4     -0.142000
      4 C23         3.3910    2.0870    2.0070 ca        1 AB4     -0.058000
      5 C20         3.7310    0.7320    2.0930 ca        1 AB4     -0.010600
      6 CL24        4.3570    0.1090    3.5420 cl        1 AB4     -0.070400
      7 C7          3.5580   -0.1090    0.9930 ca        1 AB4     -0.017000
      8 C2          3.0440    0.3800   -0.2160 ca        1 AB4     -0.349500
      9 S1          2.9240   -0.7240   -1.5170 sy        1 AB4      1.509200
     10 O8          3.6680   -0.2430   -2.6090 o         1 AB4     -0.641300
     11 O9          3.2900   -1.9940   -1.0280 o         1 AB4     -0.641300
     12 N5          1.3520   -0.6690   -1.9160 nh        1 AB4     -0.775500
     13 C14         0.2690   -1.2390   -1.2200 ca        1 AB4      0.112600
     14 C12        -0.9590   -0.5530   -1.1520 ca        1 AB4     -0.123000
     15 C21         0.3790   -2.5060   -0.6000 ca        1 AB4     -0.122000
     16 C18        -0.6990   -3.0470    0.0810 ca        1 AB4     -0.140000
     17 C11        -1.9180   -2.3500    0.1480 ca        1 AB4      0.133100
     18 O25        -2.9270   -2.9740    0.8380 oh        1 AB4     -0.493100
     19 C3         -2.0590   -1.0980   -0.4790 cp        1 AB4     -0.110000
     20 C4         -3.3220   -0.3570   -0.4510 cp        1 AB4     -0.151000
     21 C6         -3.8120    0.2040    0.7690 ca        1 AB4      0.003000
     22 C27        -3.1140    0.0500    2.0000 ca        1 AB4     -0.140000
     23 C29        -3.6000    0.6050    3.1590 ca        1 AB4     -0.110000
     24 C30        -4.8090    1.3390    3.1510 ca        1 AB4     -0.137000
     25 C28        -5.5050    1.5030    1.9780 ca        1 AB4     -0.105000
     26 C15        -5.0240    0.9420    0.7650 ca        1 AB4     -0.069000
     27 C17        -5.7390    1.1130   -0.4540 ca        1 AB4     -0.080000
     28 C16        -5.2720    0.5780   -1.6220 ca        1 AB4     -0.148000
     29 C13        -4.0500   -0.1600   -1.6190 ca        1 AB4      0.158100
     30 O26        -3.6780   -0.6420   -2.8480 oh        1 AB4     -0.495100
     31 H19         2.6040    3.6530    0.7410 ha        1 AB4      0.160000
     32 H23         3.5290    2.7540    2.8730 ha        1 AB4      0.158000
     33 H7          3.8320   -1.1800    1.0700 ha        1 AB4      0.185000
     34 H5          1.0630   -0.1130   -2.6920 hn        1 AB4      0.459800
     35 H12        -1.0760    0.4320   -1.6320 ha        1 AB4      0.145000
     36 H21         1.3260   -3.0750   -0.6460 ha        1 AB4      0.176000
     37 H18        -0.6170   -4.0300    0.5710 ha        1 AB4      0.160000
     38 H25        -3.6830   -2.3670    0.8860 ho        1 AB4      0.436000
     39 H27        -2.1740   -0.5240    2.0040 ha        1 AB4      0.144000
     40 H29        -3.0540    0.4830    4.1070 ha        1 AB4      0.136000
     41 H30        -5.1800    1.7730    4.0910 ha        1 AB4      0.136000
     42 H28        -6.4470    2.0710    1.9570 ha        1 AB4      0.134000
     43 H17        -6.6780    1.6870   -0.4380 ha        1 AB4      0.140000
     44 H16        -5.8060    0.6960   -2.5760 ha        1 AB4      0.156000
     45 H26        -2.8580   -1.1510   -2.7450 ho        1 AB4      0.432000
@<TRIPOS>BOND
     1    1    2 1   
     2    2    3 ar  
     3    2    8 ar  
     4    3    4 ar  
     5    3   31 1   
     6    4    5 ar  
     7    4   32 1   
     8    5    6 1   
     9    5    7 ar  
    10    7    8 ar  
    11    7   33 1   
    12    8    9 1   
    13    9   10 2   
    14    9   11 2   
    15    9   12 1   
    16   12   13 1   
    17   12   34 1   
    18   13   14 ar  
    19   13   15 ar  
    20   14   19 ar  
    21   14   35 1   
    22   15   16 ar  
    23   15   36 1   
    24   16   17 ar  
    25   16   37 1   
    26   17   18 1   
    27   17   19 ar  
    28   18   38 1   
    29   19   20 1   
    30   20   21 ar  
    31   20   29 ar  
    32   21   22 ar  
    33   21   26 ar  
    34   22   23 ar  
    35   22   39 1   
    36   23   24 ar  
    37   23   40 1   
    38   24   25 ar  
    39   24   41 1   
    40   25   26 ar  
    41   25   42 1   
    42   26   27 ar  
    43   27   28 ar  
    44   27   43 1   
    45   28   29 ar  
    46   28   44 1   
    47   29   30 1   
    48   30   45 1   
@<TRIPOS>SUBSTRUCTURE
     1 AB4         1 TEMP              0 ****  ****    0 ROOT
