@<TRIPOS>MOLECULE
AB4
   45    48     1     0     0
SMALL
bcc


@<TRIPOS>ATOM
      1 Cl22       -0.4110   -0.2870   -2.3630 cl        1 AB4     -0.072400
      2 C10         0.6410   -0.6320   -1.0730 ca        1 AB4      0.124400
      3 C19         0.0780   -1.0550    0.1360 ca        1 AB4     -0.143000
      4 C23         0.9020   -1.3570    1.2160 ca        1 AB4     -0.060000
      5 C20         2.2890   -1.2340    1.0790 ca        1 AB4     -0.010600
      6 Cl24        3.3030   -1.6050    2.3880 cl        1 AB4     -0.072400
      7 C7          2.8420   -0.8090   -0.1300 ca        1 AB4     -0.018000
      8 C2          2.0270   -0.4960   -1.2270 ca        1 AB4     -0.345500
      9 S1          2.8050    0.0680   -2.6440 sy        1 AB4      1.507200
     10 O8          2.3050    1.3420   -2.9720 o         1 AB4     -0.643300
     11 O9          4.1950   -0.0100   -2.4180 o         1 AB4     -0.643300
     12 N5          2.3240   -0.9750   -3.7830 nu        1 AB4     -0.777500
     13 C14         2.7720   -2.2980   -3.9720 ca        1 AB4      0.103600
     14 C12         1.8480   -3.3090   -4.3130 ca        1 AB4     -0.104000
     15 C21         4.1380   -2.6320   -3.8550 ca        1 AB4     -0.112000
     16 C18         4.5540   -3.9410   -4.0570 ca        1 AB4     -0.200000
     17 C11         3.6280   -4.9380   -4.3980 ca        1 AB4      0.137100
     18 O25         4.0090   -6.2420   -4.6060 oh        1 AB4     -0.483100
     19 C3          2.2590   -4.6250   -4.5300 cp        1 AB4     -0.030000
     20 C4          1.2700   -5.6410   -4.9000 cp        1 AB4     -0.061000
     21 C6          0.5450   -6.3400   -3.8870 ca        1 AB4      0.014000
     22 C27         0.7570   -6.0810   -2.5030 ca        1 AB4     -0.123000
     23 C29         0.0510   -6.7630   -1.5440 ca        1 AB4     -0.119000
     24 C30        -0.9040   -7.7390   -1.9140 ca        1 AB4     -0.138000
     25 C28        -1.1300   -8.0120   -3.2400 ca        1 AB4     -0.108000
     26 C15        -0.4120   -7.3210   -4.2550 ca        1 AB4     -0.069000
     27 C17        -0.6370   -7.6000   -5.6300 ca        1 AB4     -0.074000
     28 C16         0.0570   -6.9280   -6.6010 ca        1 AB4     -0.198000
     29 C13         1.0140   -5.9410   -6.2340 ca        1 AB4      0.144100
     30 O26         1.7050   -5.2430   -7.1980 oh        1 AB4     -0.489100
     31 H19        -1.0150   -1.1490    0.2360 ha        1 AB4      0.160000
     32 H23         0.4610   -1.6880    2.1700 ha        1 AB4      0.157000
     33 H7          3.9420   -0.7130   -0.2290 ha        1 AB4      0.185000
     34 H5          1.5820   -0.7280   -4.4010 hn        1 AB4      0.461800
     35 H12         0.7790   -3.0670   -4.4260 ha        1 AB4      0.144000
     36 H21         4.8870   -1.8630   -3.5930 ha        1 AB4      0.171000
     37 H18         5.6200   -4.1940   -3.9590 ha        1 AB4      0.140000
     38 H25         4.9740   -6.2850   -4.5240 ho        1 AB4      0.418000
     39 H27         1.5040   -5.3230   -2.2200 ha        1 AB4      0.141000
     40 H29         0.2220   -6.5610   -0.4760 ha        1 AB4      0.131000
     41 H30        -1.4570   -8.2740   -1.1280 ha        1 AB4      0.132000
     42 H28        -1.8690   -8.7700   -3.5420 ha        1 AB4      0.131000
     43 H17        -1.3790   -8.3670   -5.9000 ha        1 AB4      0.136000
     44 H16        -0.1100   -7.1400   -7.6670 ha        1 AB4      0.135000
     45 H26         1.4750   -5.6210   -8.0600 ho        1 AB4      0.418000
@<TRIPOS>BOND
     1    1    2 1   
     2    2    3 ar  
     3    2    8 ar  
     4    3    4 ar  
     5    3   31 1   
     6    4    5 ar  
     7    4   32 1   
     8    5    6 1   
     9    5    7 ar  
    10    7    8 ar  
    11    7   33 1   
    12    8    9 1   
    13    9   10 2   
    14    9   11 2   
    15    9   12 1   
    16   12   13 1   
    17   12   34 1   
    18   13   14 ar  
    19   13   15 ar  
    20   14   19 ar  
    21   14   35 1   
    22   15   16 ar  
    23   15   36 1   
    24   16   17 ar  
    25   16   37 1   
    26   17   18 1   
    27   17   19 ar  
    28   18   38 1   
    29   19   20 1   
    30   20   21 ar  
    31   20   29 ar  
    32   21   22 ar  
    33   21   26 ar  
    34   22   23 ar  
    35   22   39 1   
    36   23   24 ar  
    37   23   40 1   
    38   24   25 ar  
    39   24   41 1   
    40   25   26 ar  
    41   25   42 1   
    42   26   27 ar  
    43   27   28 ar  
    44   27   43 1   
    45   28   29 ar  
    46   28   44 1   
    47   29   30 1   
    48   30   45 1   
@<TRIPOS>SUBSTRUCTURE
     1 AB4         1 TEMP              0 ****  ****    0 ROOT
