@<TRIPOS>MOLECULE
AB4
   46    49     1     0     0
SMALL
bcc


@<TRIPOS>ATOM
      1 CL22        0.2600    0.0400   -2.1850 cl        1 AB4     -0.039400
      2 C10         1.4660    0.6260   -1.1470 ca        1 AB4      0.125400
      3 C19         1.1490    1.6880   -0.2990 ca        1 AB4     -0.129000
      4 C23         2.1000    2.1780    0.5950 ca        1 AB4     -0.006000
      5 C20         3.3730    1.5900    0.6420 ca        1 AB4     -0.007600
      6 CL24        4.5280    2.1590    1.7330 cl        1 AB4     -0.008400
      7 C7          3.6860    0.5370   -0.2150 ca        1 AB4     -0.007000
      8 C2          2.7480    0.0350   -1.1440 ca        1 AB4     -0.489500
      9 S1          3.2850   -1.1120   -2.1880 sy        1 AB4      1.462200
     10 O8          2.8940   -0.9360   -3.4940 o         1 AB4     -0.554800
     11 O9          4.5610   -1.5390   -1.8640 o         1 AB4     -0.554800
     12 N5          2.1910   -2.5010   -1.5530 n4        1 AB4     -0.556300
     13 C14         2.5210   -3.7500   -2.2240 ca        1 AB4     -0.140400
     14 C12         1.6600   -4.2610   -3.2170 ca        1 AB4     -0.047000
     15 C21         3.6870   -4.4530   -1.8630 ca        1 AB4     -0.048000
     16 C18         3.9970   -5.6360   -2.5140 ca        1 AB4     -0.211000
     17 C11         3.1490   -6.1420   -3.5170 ca        1 AB4      0.211100
     18 O25         3.4180   -7.3040   -4.1740 oh        1 AB4     -0.447100
     19 C3          1.9630   -5.4500   -3.8750 cp        1 AB4     -0.005000
     20 C4          1.0720   -5.9440   -4.9260 cp        1 AB4     -0.115000
     21 C6         -0.0900   -6.7030   -4.5900 ca        1 AB4      0.020000
     22 C27        -0.4240   -7.0110   -3.2420 ca        1 AB4     -0.150000
     23 C29        -1.5460   -7.7440   -2.9440 ca        1 AB4     -0.098000
     24 C30        -2.3950   -8.2070   -3.9770 ca        1 AB4     -0.135000
     25 C28        -2.0980   -7.9270   -5.2880 ca        1 AB4     -0.094000
     26 C15        -0.9410   -7.1730   -5.6230 ca        1 AB4     -0.072000
     27 C17        -0.6220   -6.8880   -6.9800 ca        1 AB4     -0.049000
     28 C16         0.4940   -6.1620   -7.3000 ca        1 AB4     -0.203000
     29 C13         1.3480   -5.6860   -6.2650 ca        1 AB4      0.169100
     30 O26         2.4660   -4.9420   -6.5570 oh        1 AB4     -0.499100
     31 H19         0.1450    2.1460   -0.3350 ha        1 AB4      0.187000
     32 H23         1.8490    3.0230    1.2610 ha        1 AB4      0.187000
     33 H7          4.7020    0.0920   -0.1760 ha        1 AB4      0.191000
     34 H5          2.3120   -2.6350   -0.5490 hn        1 AB4      0.452800
     35 H12         0.7390   -3.7250   -3.5030 ha        1 AB4      0.159000
     36 H21         4.3720   -4.0650   -1.0900 ha        1 AB4      0.161000
     37 H18         4.9170   -6.1810   -2.2460 ha        1 AB4      0.166000
     38 H25         4.2620   -7.6600   -3.8500 ho        1 AB4      0.440000
     39 H27         0.2420   -6.6600   -2.4390 ha        1 AB4      0.123000
     40 H29        -1.7960   -7.9860   -1.8990 ha        1 AB4      0.138000
     41 H30        -3.2890   -8.7940   -3.7150 ha        1 AB4      0.146000
     42 H28        -2.7480   -8.2850   -6.1020 ha        1 AB4      0.143000
     43 H17        -1.2910   -7.2650   -7.7710 ha        1 AB4      0.149000
     44 H16         0.7490   -5.9410   -8.3480 ha        1 AB4      0.148000
     45 H26         2.5530   -4.8940   -7.5220 ho        1 AB4      0.434000
     46 H52         1.2030   -2.2980   -1.7170 hn        1 AB4      0.452800
@<TRIPOS>BOND
     1    1    2 1   
     2    2    3 ar  
     3    2    8 ar  
     4    3    4 ar  
     5    3   31 1   
     6    4    5 ar  
     7    4   32 1   
     8    5    6 1   
     9    5    7 ar  
    10    7    8 ar  
    11    7   33 1   
    12    8    9 1   
    13    9   10 2   
    14    9   11 2   
    15    9   12 1   
    16   12   13 1   
    17   12   34 1   
    18   12   46 1   
    19   13   14 ar  
    20   13   15 ar  
    21   14   19 ar  
    22   14   35 1   
    23   15   16 ar  
    24   15   36 1   
    25   16   17 ar  
    26   16   37 1   
    27   17   18 1   
    28   17   19 ar  
    29   18   38 1   
    30   19   20 1   
    31   20   21 ar  
    32   20   29 ar  
    33   21   22 ar  
    34   21   26 ar  
    35   22   23 ar  
    36   22   39 1   
    37   23   24 ar  
    38   23   40 1   
    39   24   25 ar  
    40   24   41 1   
    41   25   26 ar  
    42   25   42 1   
    43   26   27 ar  
    44   27   28 ar  
    45   27   43 1   
    46   28   29 ar  
    47   28   44 1   
    48   29   30 1   
    49   30   45 1   
@<TRIPOS>SUBSTRUCTURE
     1 AB4         1 TEMP              0 ****  ****    0 ROOT
