@<TRIPOS>MOLECULE
AB7
   15    14     1     0     0
SMALL
bcc


@<TRIPOS>ATOM
      1 N           1.8560   -0.5480   -1.2020 n3        1 AB7     -0.889800
      2 CA          2.2090   -1.2440   -2.4330 c3        1 AB7      0.018500
      3 C           1.7530   -0.5160   -3.7390 c         1 AB7      0.886600
      4 O           0.8640    0.3790   -3.6440 o         1 AB7     -0.847300
      5 CB          1.6940   -2.6850   -2.4820 c3        1 AB7     -0.056400
      6 CG          0.1930   -2.7760   -2.3800 c3        1 AB7     -0.092100
      7 OXT         2.3070   -0.8600   -4.8200 o         1 AB7     -0.847300
      8 HN1         0.8560   -0.5830   -1.0980 hn        1 AB7      0.327800
      9 HN2         2.0860    0.4230   -1.3330 hn        1 AB7      0.327800
     10 HA          3.3380   -1.2890   -2.4630 h1        1 AB7      0.039700
     11 HBC1        2.1660   -3.2920   -1.6670 hc        1 AB7      0.028700
     12 HBC2        2.0280   -3.1100   -3.4670 hc        1 AB7      0.028700
     13 HGC1       -0.1500   -2.6230   -1.3280 hc        1 AB7      0.025033
     14 HGC2       -0.1620   -3.7810   -2.7140 hc        1 AB7      0.025033
     15 HGC3       -0.2790   -1.9920   -3.0250 hc        1 AB7      0.025033
@<TRIPOS>BOND
     1    1    2 1   
     2    1    8 1   
     3    1    9 1   
     4    2    3 1   
     5    2    5 1   
     6    2   10 1   
     7    3    4 1   
     8    3    7 1   
     9    5    6 1   
    10    5   11 1   
    11    5   12 1   
    12    6   13 1   
    13    6   14 1   
    14    6   15 1   
@<TRIPOS>SUBSTRUCTURE
     1 AB7         1 TEMP              0 ****  ****    0 ROOT
