@<TRIPOS>MOLECULE
ABA
   15    14     1     0     0
SMALL
bcc


@<TRIPOS>ATOM
      1 N          -0.7930    1.6260    0.3440 n3        1 ABA     -0.891800
      2 CA         -0.3950    0.2230    0.3490 c3        1 ABA      0.019500
      3 C           1.0790   -0.0310   -0.1090 c         1 ABA      0.886600
      4 O           1.7840    0.9690   -0.4340 o         1 ABA     -0.846800
      5 CB         -1.3150   -0.6720   -0.4830 c3        1 ABA     -0.067400
      6 CG         -2.7140   -0.7480    0.0690 c3        1 ABA     -0.081100
      7 OXT         1.4940   -1.2230   -0.1110 o         1 ABA     -0.846800
      8 H          -0.0060    2.1580    0.6800 hn        1 ABA      0.328800
      9 HN2        -0.9350    1.9120   -0.6090 hn        1 ABA      0.328800
     10 HA         -0.4550   -0.1180    1.4240 h1        1 ABA      0.039700
     11 HB3        -1.3470   -0.3060   -1.5430 hc        1 ABA      0.043700
     12 HB2        -0.8500   -1.6940   -0.4970 hc        1 ABA      0.043700
     13 HG1        -2.6980   -1.1070    1.1270 hc        1 ABA      0.014367
     14 HG3        -3.2070    0.2540    0.0500 hc        1 ABA      0.014367
     15 HG2        -3.3340   -1.4570   -0.5320 hc        1 ABA      0.014367
@<TRIPOS>BOND
     1    1    2 1   
     2    1    8 1   
     3    1    9 1   
     4    2    3 1   
     5    2    5 1   
     6    2   10 1   
     7    3    4 1   
     8    3    7 1   
     9    5    6 1   
    10    5   11 1   
    11    5   12 1   
    12    6   13 1   
    13    6   14 1   
    14    6   15 1   
@<TRIPOS>SUBSTRUCTURE
     1 ABA         1 TEMP              0 ****  ****    0 ROOT
