@<TRIPOS>MOLECULE
ABB
   57    54     1     0     0
SMALL
bcc


@<TRIPOS>ATOM
      1 N1          0.0690   -4.4340    2.0090 n         1 ABB     -0.329000
      2 C54        -1.1910   -4.6490    2.0560 c3        1 ABB     -0.054000
      3 C53         0.3780   -3.7360    0.5780 c3        1 ABB      0.026000
      4 C52        -0.4430   -4.3440   -0.2320 c3        1 ABB     -0.170000
      5 C51        -1.6260   -4.8100    0.6400 c3        1 ABB      0.019000
      6 CP          0.2260   -2.1500    0.5850 c2        1 ABB      0.278000
      7 OP         -0.3070   -1.5900    1.5360 o         1 ABB     -0.344000
      8 N           0.7920   -1.3630   -0.4970 n         1 ABB     -0.373000
      9 CA          0.5020    0.0380   -0.5950 c3        1 ABB     -0.002000
     10 CB          1.5200    0.6900   -1.4330 c3        1 ABB     -0.162000
     11 CG          2.2690    1.7690   -0.6010 c3        1 ABB     -0.159000
     12 CD          3.1140    2.6800   -1.5660 c3        1 ABB     -0.072000
     13 NE          3.6290    3.8330   -0.8270 n3        1 ABB     -0.309000
     14 CZ          4.4660    4.8270   -1.5120 c2        1 ABB      0.128000
     15 NH1         5.7670    4.6990   -1.5090 n1        1 ABB     -0.287000
     16 NH2         3.8600    5.9330   -2.1820 n3        1 ABB     -0.346000
     17 O          -1.1690   -0.3500   -2.2630 o         1 ABB     -0.270000
     18 N5         -2.0820    1.9620    0.5730 n2        1 ABB     -0.074000
     19 C5         -1.9150    1.1230   -0.5520 c1        1 ABB     -0.319000
     20 S5         -3.1070    1.3770   -1.5200 ss        1 ABB      0.521000
     21 C61        -3.4110    2.8060    0.3770 c1        1 ABB     -0.065000
     22 C62        -4.0010    2.4360   -0.8800 c1        1 ABB     -0.327000
     23 C63        -5.2490    2.9610   -1.2490 c1        1 ABB     -0.092000
     24 C64        -5.9220    3.8490   -0.3880 c1        1 ABB     -0.119500
     25 C65        -5.3360    4.2150    0.8580 c1        1 ABB     -0.119500
     26 C66        -4.0810    3.6880    1.2300 c1        1 ABB     -0.068000
     27 O1         -1.9170   -6.1400    0.3780 oh        1 ABB     -0.323000
     28 C1          1.0160   -4.7450    3.0200 c2        1 ABB      0.324000
     29 C2          2.5500   -4.5060    2.7620 c3        1 ABB     -0.242000
     30 O2          0.6470   -5.2720    4.0590 o         1 ABB     -0.363000
     31 C          -0.8850    0.2310   -1.2300 c1        1 ABB      0.274000
     32 H541       -1.3780   -5.4820    2.5680 h1        1 ABB      0.106500
     33 H542       -1.6540   -3.8810    2.4720 h1        1 ABB      0.106500
     34 HC53        1.3120   -3.8470    0.3070 h1        1 ABB      0.111000
     35 H521       -0.7590   -3.7180   -0.9290 hc        1 ABB      0.115500
     36 H522        0.0000   -5.1220   -0.6480 hc        1 ABB      0.115500
     37 HC51       -2.4230   -4.2470    0.4630 h1        1 ABB      0.093000
     38 H           1.3210   -1.7760   -1.1480 hn        1 ABB      0.230000
     39 HCA         0.5120    0.4440    0.3130 h1        1 ABB      0.159000
     40 HCB1        2.1650    0.0140   -1.7500 hc        1 ABB      0.102500
     41 HCB2        1.0930    1.1070   -2.1920 hc        1 ABB      0.102500
     42 HCG1        2.8790    1.3200    0.0540 hc        1 ABB      0.096500
     43 HCG2        1.6090    2.3260   -0.1100 hc        1 ABB      0.096500
     44 HCD1        2.5380    2.9960   -2.3110 h1        1 ABB      0.072500
     45 HCD2        3.8700    2.1610   -1.9310 h1        1 ABB      0.072500
     46 HNE         3.3650    3.9760    0.0300 hn        1 ABB      0.181000
     47 HH1         6.1530    3.9930   -1.0810 DU        1 ABB      0.166000
     48 HH21        4.3050    6.7300   -2.2460 hn        1 ABB      0.187500
     49 HH22        3.0200    5.8570   -2.5100 hn        1 ABB      0.187500
     50 HC63       -5.6490    2.7110   -2.0970 ha        1 ABB      0.143000
     51 HC64       -6.8010    4.2180   -0.6470 ha        1 ABB      0.140000
     52 HC65       -5.8030    4.8310    1.4530 ha        1 ABB      0.140000
     53 HC66       -3.6780    3.9410    2.0910 ha        1 ABB      0.152000
     54 HO1        -2.7600   -6.2100    0.1160 ho        1 ABB      0.208000
     55 HC21        2.8460   -5.0560    1.9900 hc        1 ABB      0.111333
     56 HC22        2.7040   -3.5600    2.5660 hc        1 ABB      0.111333
     57 HC23        3.0520   -4.7570    3.5480 hc        1 ABB      0.111333
@<TRIPOS>BOND
     1    1    2 1   
     2    1    3 1   
     3    1   28 1   
     4    2    5 1   
     5    2   32 1   
     6    2   33 1   
     7    3    4 1   
     8    3    6 1   
     9    3   34 1   
    10    4    5 1   
    11    4   35 1   
    12    4   36 1   
    13    5   27 1   
    14    5   37 1   
    15    6    7 1   
    16    6    8 1   
    17    8    9 1   
    18    8   38 1   
    19    9   10 1   
    20    9   31 1   
    21    9   39 1   
    22   10   11 1   
    23   10   40 1   
    24   10   41 1   
    25   11   12 1   
    26   11   42 1   
    27   11   43 1   
    28   12   13 1   
    29   12   44 1   
    30   12   45 1   
    31   13   14 1   
    32   13   46 1   
    33   14   15 1   
    34   14   16 1   
    35   16   48 1   
    36   16   49 1   
    37   17   31 1   
    38   18   19 1   
    39   18   21 1   
    40   19   20 1   
    41   20   22 1   
    42   21   26 1   
    43   22   23 1   
    44   23   50 1   
    45   24   25 1   
    46   24   51 1   
    47   25   52 1   
    48   26   53 1   
    49   27   54 1   
    50   28   29 1   
    51   28   30 1   
    52   29   55 1   
    53   29   56 1   
    54   29   57 1   
@<TRIPOS>SUBSTRUCTURE
     1 ABB         1 TEMP              0 ****  ****    0 ROOT
