@<TRIPOS>MOLECULE
ABB
   57    59     1     0     0
SMALL
bcc


@<TRIPOS>ATOM
      1 N1         -1.7290   -0.3050    3.6800 n         1 ABB     -0.460800
      2 C54        -2.2720    0.7460    4.5160 c3        1 ABB      0.051000
      3 C53        -2.5410   -0.5140    2.4870 c3        1 ABB      0.034700
      4 C52        -3.8250    0.3250    2.6470 c3        1 ABB     -0.088400
      5 C51        -3.6320    1.1780    3.9070 c3        1 ABB      0.131100
      6 CP         -1.7830   -0.1190    1.1960 c         1 ABB      0.656100
      7 OP         -2.1700    0.8220    0.4740 o         1 ABB     -0.619100
      8 N          -0.6730   -0.8690    0.8850 n         1 ABB     -0.555900
      9 CA          0.0990   -0.6470   -0.3110 c3        1 ABB      0.028700
     10 CB          1.6180   -0.6470   -0.0590 c3        1 ABB     -0.086400
     11 CG          2.0450    0.5760    0.7220 c3        1 ABB     -0.086400
     12 CD          3.5670    0.5710    0.8820 c3        1 ABB      0.180800
     13 NE          4.0390    1.7180    1.6350 nh        1 ABB     -0.795200
     14 CZ          5.4650    1.8700    1.7700 c2        1 ABB      0.742100
     15 NH1         6.2820    0.9300    1.3610 n2        1 ABB     -0.869100
     16 NH2         5.8800    3.1120    2.3650 nh        1 ABB     -0.934800
     17 N5          0.5840   -0.4020   -3.3290 nc        1 ABB     -0.503100
     18 C5         -0.2930   -1.2230   -2.7660 cd        1 ABB      0.271200
     19 S5         -1.6270   -1.6950   -3.7640 ss        1 ABB      0.055900
     20 C61         0.1820   -0.1200   -4.6400 ca        1 ABB      0.076400
     21 C62        -1.0420   -0.7600   -5.0350 ca        1 ABB     -0.100100
     22 C63        -1.5560   -0.5510   -6.3190 ca        1 ABB     -0.092000
     23 C64        -0.8710    0.2700   -7.1970 ca        1 ABB     -0.113000
     24 C65         0.3310    0.8960   -6.8160 ca        1 ABB     -0.132000
     25 C66         0.8650    0.7120   -5.5540 ca        1 ABB     -0.068000
     26 O1         -4.6980    0.8830    4.7900 oh        1 ABB     -0.590800
     27 C1         -0.9050   -1.3060    4.1800 c         1 ABB      0.664100
     28 C2         -0.2800   -1.1160    5.5380 c3        1 ABB     -0.168100
     29 O2         -0.6590   -2.3140    3.4860 o         1 ABB     -0.615100
     30 C          -0.1740   -1.7230   -1.3720 c         1 ABB      0.495800
     31 H541       -2.4190    0.3890    5.5730 h1        1 ABB      0.053700
     32 H542       -1.5550    1.6120    4.5250 h1        1 ABB      0.053700
     33 HC53       -2.8030   -1.6120    2.3950 h1        1 ABB      0.090700
     34 H521       -4.7090   -0.3500    2.7720 hc        1 ABB      0.090200
     35 H522       -3.9960    0.9780    1.7540 hc        1 ABB      0.090200
     36 HC51       -3.6190    2.2730    3.6640 h1        1 ABB      0.056700
     37 H          -0.4300   -1.6560    1.4480 hn        1 ABB      0.350500
     38 HCA        -0.2000    0.3600   -0.7390 h1        1 ABB      0.111700
     39 HCB1        1.9170   -1.5790    0.4890 hc        1 ABB      0.067700
     40 HCB2        2.1360   -0.6570   -1.0550 hc        1 ABB      0.067700
     41 HCG1        1.7140    1.5020    0.1800 hc        1 ABB      0.050700
     42 HCG2        1.5540    0.5820    1.7290 hc        1 ABB      0.050700
     43 HCD1        3.8760   -0.3570    1.4420 h1        1 ABB      0.056700
     44 HCD2        4.0370    0.5180   -0.1440 h1        1 ABB      0.056700
     45 HNE         3.6070    2.5670    1.3200 hn        1 ABB      0.387800
     46 HH1         7.2440    1.0750    1.5750 hn        1 ABB      0.389400
     47 HH21        6.7220    3.0310    2.8930 hn        1 ABB      0.387800
     48 HH22        5.1730    3.5980    2.8710 hn        1 ABB      0.387800
     49 HC63       -2.4950   -1.0380   -6.6220 ha        1 ABB      0.141000
     50 HC64       -1.2670    0.4400   -8.2100 ha        1 ABB      0.137000
     51 HC65        0.8500    1.5420   -7.5400 ha        1 ABB      0.138000
     52 HC66        1.8050    1.2000   -5.2550 ha        1 ABB      0.153000
     53 HO1        -4.6490    1.5180    5.5150 ho        1 ABB      0.402000
     54 HC21        0.5460   -1.8600    5.6570 hc        1 ABB      0.070033
     55 HC22        0.1350   -0.0860    5.6540 hc        1 ABB      0.070033
     56 HC23       -1.0470   -1.2960    6.3310 hc        1 ABB      0.070033
     57 O          -0.2960   -2.9180   -1.1060 o         1 ABB     -0.492100
@<TRIPOS>BOND
     1    1    2 1   
     2    1    3 1   
     3    1   27 1   
     4    2    5 1   
     5    2   31 1   
     6    2   32 1   
     7    3    4 1   
     8    3    6 1   
     9    3   33 1   
    10    4    5 1   
    11    4   34 1   
    12    4   35 1   
    13    5   26 1   
    14    5   36 1   
    15    6    7 2   
    16    6    8 1   
    17    8    9 1   
    18    8   37 1   
    19    9   10 1   
    20    9   30 1   
    21    9   38 1   
    22   10   11 1   
    23   10   39 1   
    24   10   40 1   
    25   11   12 1   
    26   11   41 1   
    27   11   42 1   
    28   12   13 1   
    29   12   43 1   
    30   12   44 1   
    31   13   14 1   
    32   13   45 1   
    33   14   15 2   
    34   14   16 1   
    35   15   46 1   
    36   16   47 1   
    37   16   48 1   
    38   17   18 2   
    39   17   20 1   
    40   18   19 1   
    41   18   30 1   
    42   19   21 1   
    43   20   21 ar  
    44   20   25 ar  
    45   21   22 ar  
    46   22   23 ar  
    47   22   49 1   
    48   23   24 ar  
    49   23   50 1   
    50   24   25 ar  
    51   24   51 1   
    52   25   52 1   
    53   26   53 1   
    54   27   28 1   
    55   27   29 2   
    56   28   54 1   
    57   28   55 1   
    58   28   56 1   
    59   30   57 2   
@<TRIPOS>SUBSTRUCTURE
     1 ABB         1 TEMP              0 ****  ****    0 ROOT
