@<TRIPOS>MOLECULE
ABB
   57    58     1     0     0
SMALL
bcc


@<TRIPOS>ATOM
      1 N1         -1.2420   -0.3720   -0.6450 n         1 ABB     -0.563900
      2 C54         2.2280   -0.4550    0.8600 c2        1 ABB     -0.261000
      3 C53        -1.2960    0.4500    0.5360 c3        1 ABB      0.034700
      4 C52         0.0910    0.8190    1.0940 c3        1 ABB     -0.082200
      5 C51         0.9750   -0.3580    1.3290 c2        1 ABB      0.064900
      6 CP         -2.0380    1.7820    0.2480 c         1 ABB      0.651100
      7 OP         -2.2220    2.1970   -0.9160 o         1 ABB     -0.626100
      8 N          -2.4520    2.5010    1.3460 n         1 ABB     -0.547900
      9 CA         -3.1850    3.7360    1.2240 c3        1 ABB      0.022700
     10 CB         -4.6970    3.5990    1.4950 c3        1 ABB     -0.103400
     11 CG         -5.4080    2.8750    0.3730 c3        1 ABB     -0.116400
     12 CD         -6.4320    1.8570    0.8800 c3        1 ABB      0.168800
     13 NE         -5.9180    0.5950    1.3650 nh        1 ABB     -0.788200
     14 CZ         -5.4700    0.5590    2.7440 c2        1 ABB      0.749100
     15 NH1        -6.4940    0.7610    3.7190 nh        1 ABB     -0.931800
     16 NH2        -4.2020    0.3590    3.0100 n2        1 ABB     -0.897100
     17 N5         -1.7090    6.7870    1.0970 ne        1 ABB     -0.462300
     18 C5         -2.7190    6.1850    1.6820 cf        1 ABB      0.365200
     19 S5         -4.2270    7.0760    1.8790 ss        1 ABB     -0.216300
     20 C61        -2.0520    8.1190    0.8210 ce        1 ABB      0.024300
     21 C62        -3.5920    8.3420    0.7860 c3        1 ABB      0.007800
     22 C63        -4.0400    9.7370    0.7100 c2        1 ABB     -0.117200
     23 C64        -3.1820   10.7580    0.4320 ce        1 ABB     -0.124000
     24 C65        -1.7760   10.5430    0.7150 ce        1 ABB     -0.131100
     25 C66        -1.3790    9.2620    0.7220 c1        1 ABB      0.022200
     26 O1          0.5110   -1.3480    2.1760 oh        1 ABB     -0.527100
     27 C1         -1.5920   -1.7100   -0.6310 c         1 ABB      0.665100
     28 C2         -1.6370   -2.4270   -1.9570 c3        1 ABB     -0.171100
     29 O2         -1.8280   -2.2980    0.4450 o         1 ABB     -0.623100
     30 C          -2.6510    4.7900    2.2020 c         1 ABB      0.498800
     31 H541        2.6810    0.3420    0.2600 ha        1 ABB      0.125000
     32 H542        2.8600   -1.3230    1.0790 ha        1 ABB      0.125000
     33 HC53       -1.1240    0.0990   -1.5120 hn        1 ABB      0.330500
     34 H521       -1.8710   -0.1180    1.3350 h1        1 ABB      0.114700
     35 H522       -0.0600    1.3440    2.0770 hc        1 ABB      0.072200
     36 HC51        0.6000    1.5340    0.3950 hc        1 ABB      0.072200
     37 H          -2.4000    2.0950    2.2520 hn        1 ABB      0.340500
     38 HCA        -5.2030    0.2400    0.7530 hn        1 ABB      0.400800
     39 HCB1       -3.0400    4.1240    0.1680 h1        1 ABB      0.110700
     40 HCB2       -5.1200    4.6360    1.6030 hc        1 ABB      0.063200
     41 HCG1       -4.8570    3.0730    2.4740 hc        1 ABB      0.063200
     42 HCG2       -5.9580    3.6220   -0.2590 hc        1 ABB      0.060200
     43 HCD1       -4.6680    2.3680   -0.3040 hc        1 ABB      0.060200
     44 HCD2       -7.1070    1.5890    0.0140 h1        1 ABB      0.059700
     45 HNE        -7.0690    2.3450    1.6700 h1        1 ABB      0.059700
     46 HH1        -7.4270    0.6580    3.3860 hn        1 ABB      0.397800
     47 HH21       -6.3370    0.2760    4.5750 hn        1 ABB      0.397800
     48 HH22       -3.9710    0.2260    3.9700 hn        1 ABB      0.396400
     49 HC63       -3.8200    7.9390   -0.2600 h1        1 ABB      0.122700
     50 HC64       -5.1200    9.9210    0.8200 ha        1 ABB      0.149000
     51 HC65       -3.5390   11.7720    0.2050 ha        1 ABB      0.147000
     52 HC66       -1.1650   11.3760    1.0860 ha        1 ABB      0.169000
     53 HO1        -0.3960   -1.5710    1.9050 ho        1 ABB      0.437000
     54 HC21       -0.6230   -2.4340   -2.4260 hc        1 ABB      0.069700
     55 HC22       -2.3570   -1.9310   -2.6500 hc        1 ABB      0.069700
     56 HC23       -1.9640   -3.4810   -1.7820 hc        1 ABB      0.069700
     57 O          -2.2280    4.5360    3.3260 o         1 ABB     -0.471100
@<TRIPOS>BOND
     1    1    3 1   
     2    1   27 1   
     3    1   33 1   
     4    2    5 2   
     5    2   31 1   
     6    2   32 1   
     7    3    4 1   
     8    3    6 1   
     9    3   34 1   
    10    4    5 1   
    11    4   35 1   
    12    4   36 1   
    13    5   26 1   
    14    6    7 2   
    15    6    8 1   
    16    8    9 1   
    17    8   37 1   
    18    9   10 1   
    19    9   30 1   
    20    9   39 1   
    21   10   11 1   
    22   10   40 1   
    23   10   41 1   
    24   11   12 1   
    25   11   42 1   
    26   11   43 1   
    27   12   13 1   
    28   12   44 1   
    29   12   45 1   
    30   13   14 1   
    31   13   38 1   
    32   14   15 1   
    33   14   16 2   
    34   15   46 1   
    35   15   47 1   
    36   16   48 1   
    37   17   18 2   
    38   17   20 1   
    39   18   19 1   
    40   18   30 1   
    41   19   21 1   
    42   20   21 1   
    43   20   25 2   
    44   21   22 1   
    45   21   49 1   
    46   22   23 2   
    47   22   50 1   
    48   23   24 1   
    49   23   51 1   
    50   24   25 2   
    51   24   52 1   
    52   26   53 1   
    53   27   28 1   
    54   27   29 2   
    55   28   54 1   
    56   28   55 1   
    57   28   56 1   
    58   30   57 2   
@<TRIPOS>SUBSTRUCTURE
     1 ABB         1 TEMP              0 ****  ****    0 ROOT
