@<TRIPOS>MOLECULE
ABE
   22    22     1     0     0
SMALL
bcc


@<TRIPOS>ATOM
      1 C1          0.8880   -0.7020   -0.8600 c3        1 ABE      0.299900
      2 C2         -0.5760   -0.4680   -1.2800 c3        1 ABE      0.136100
      3 C3         -1.1500    0.7460   -0.5620 c3        1 ABE     -0.149400
      4 C4         -0.9400    0.6170    0.9420 c3        1 ABE      0.116100
      5 C5          0.5510    0.3980    1.2490 c3        1 ABE      0.153100
      6 C6          0.7910    0.1120    2.7170 c3        1 ABE     -0.088100
      7 O1          1.6610    0.3620   -1.3720 oh        1 ABE     -0.641800
      8 O2         -0.6740   -0.3400   -2.6820 oh        1 ABE     -0.588800
      9 O4         -1.6680   -0.4730    1.4880 oh        1 ABE     -0.588800
     10 O5          1.0980   -0.7150    0.5330 os        1 ABE     -0.434600
     11 H1          1.2640   -1.7020   -1.2190 h2        1 ABE      0.082700
     12 H2         -1.1720   -1.3900   -1.0250 h1        1 ABE      0.094700
     13 H31        -0.6340    1.6720   -0.9270 hc        1 ABE      0.063200
     14 H32        -2.2400    0.8380   -0.7990 hc        1 ABE      0.063200
     15 H4         -1.2740    1.5670    1.4510 h1        1 ABE      0.041700
     16 H5          1.1020    1.3260    0.9210 h1        1 ABE      0.046700
     17 H61         1.8750   -0.0780    2.8980 hc        1 ABE      0.051367
     18 H62         0.4610    0.9890    3.3220 hc        1 ABE      0.051367
     19 H63         0.2100   -0.7890    3.0300 hc        1 ABE      0.051367
     20 HO1         2.5710    0.2250   -1.0810 ho        1 ABE      0.423000
     21 HO2        -0.1000    0.3930   -2.9450 ho        1 ABE      0.416000
     22 HO4        -2.5800   -0.3760    1.1900 ho        1 ABE      0.401000
@<TRIPOS>BOND
     1    1    2 1   
     2    1    7 1   
     3    1   10 1   
     4    1   11 1   
     5    2    3 1   
     6    2    8 1   
     7    2   12 1   
     8    3    4 1   
     9    3   13 1   
    10    3   14 1   
    11    4    5 1   
    12    4    9 1   
    13    4   15 1   
    14    5    6 1   
    15    5   10 1   
    16    5   16 1   
    17    6   17 1   
    18    6   18 1   
    19    6   19 1   
    20    7   20 1   
    21    8   21 1   
    22    9   22 1   
@<TRIPOS>SUBSTRUCTURE
     1 ABE         1 TEMP              0 ****  ****    0 ROOT
