@<TRIPOS>MOLECULE
ABF
   23    23     1     0     0
SMALL
bcc


@<TRIPOS>ATOM
      1 C1'         0.7720   -0.6140    3.0950 c3        1 ABF      0.300900
      2 O1'         1.0870   -1.3060    1.9090 os        1 ABF     -0.466600
      3 C2'        -0.7030   -0.1510    3.0180 c3        1 ABF      0.074100
      4 O2'        -0.8780    1.1130    3.6210 oh        1 ABF     -0.604800
      5 C3'        -1.0160   -0.1700    1.5040 c3        1 ABF      0.126100
      6 O3'        -2.2650   -0.7880    1.2990 oh        1 ABF     -0.665800
      7 C4'         0.1230   -0.9950    0.8660 c3        1 ABF      0.056100
      8 C5'         0.8430   -0.2570   -0.2890 c3        1 ABF      0.226400
      9 O5'         0.3040   -0.5930   -1.4990 os        1 ABF     -0.558200
     10 P'         -0.7660    0.6160   -2.1590 p5        1 ABF      1.330900
     11 O1X         0.0930    1.8480   -2.0930 o         1 ABF     -0.932500
     12 O2X        -1.1180    0.0750   -3.5100 o         1 ABF     -0.932500
     13 O3X        -1.8400    0.5560   -1.0900 o         1 ABF     -0.932500
     14 O1          1.6640    0.4830    3.1420 oh        1 ABF     -0.658800
     15 H1'         1.0110   -1.2600    3.9770 h2        1 ABF      0.058700
     16 H2'        -1.3790   -0.8400    3.5850 h1        1 ABF      0.075700
     17 HA         -0.3460    1.7400    3.1130 ho        1 ABF      0.406000
     18 H3'        -1.0400    0.8760    1.0860 h1        1 ABF      0.107700
     19 HB         -2.5190   -0.5410    0.3790 ho        1 ABF      0.497000
     20 H4'        -0.2600   -1.9840    0.5030 h1        1 ABF      0.074700
     21 H5'1        0.7960    0.8560   -0.1140 h1        1 ABF     -0.005300
     22 H5'2        1.9270   -0.5810   -0.2520 h1        1 ABF     -0.005300
     23 H1          1.7730    0.7980    2.2320 ho        1 ABF      0.428000
@<TRIPOS>BOND
     1    1    2 1   
     2    1    3 1   
     3    1   14 1   
     4    1   15 1   
     5    2    7 1   
     6    3    4 1   
     7    3    5 1   
     8    3   16 1   
     9    4   17 1   
    10    5    6 1   
    11    5    7 1   
    12    5   18 1   
    13    6   19 1   
    14    7    8 1   
    15    7   20 1   
    16    8    9 1   
    17    8   21 1   
    18    8   22 1   
    19    9   10 1   
    20   10   11 1   
    21   10   12 1   
    22   10   13 1   
    23   14   23 1   
@<TRIPOS>SUBSTRUCTURE
     1 ABF         1 TEMP              0 ****  ****    0 ROOT
