@<TRIPOS>MOLECULE
ABF
   23    23     1     0     0
SMALL
bcc


@<TRIPOS>ATOM
      1 C1'        -1.3610    0.7660   -1.4870 c3        1 ABF      0.300900
      2 O1'        -0.0450    0.0410   -1.3500 os        1 ABF     -0.466600
      3 C2'        -1.7240    1.2970   -0.0080 c3        1 ABF      0.074100
      4 O2'        -3.1360    0.9420    0.3380 oh        1 ABF     -0.604800
      5 C3'        -0.9420    0.7100    0.7410 c3        1 ABF      0.126100
      6 O3'        -0.5670    1.5890    1.8740 oh        1 ABF     -0.665800
      7 C4'         0.3920    0.3630   -0.1730 c3        1 ABF      0.056100
      8 C5'         1.1390   -0.7770    0.4250 c3        1 ABF      0.226400
      9 O5'         2.2790   -1.0540   -0.3570 os        1 ABF     -0.558200
     10 P'          3.3300   -2.1030    0.1890 p5        1 ABF      1.330900
     11 O1X         3.7040   -1.7500    1.6080 o         1 ABF     -0.932500
     12 O2X         2.7240   -3.4870    0.1570 o         1 ABF     -0.932500
     13 O3X         4.5650   -2.0750   -0.6790 o         1 ABF     -0.932500
     14 O1         -2.2640   -0.0310   -1.9050 oh        1 ABF     -0.658800
     15 H1'        -1.2670    1.5200   -2.1000 h2        1 ABF      0.058700
     16 H2'        -1.5910    2.2650    0.0500 h1        1 ABF      0.075700
     17 HA         -3.6560    1.6550    0.2290 ho        1 ABF      0.406000
     18 H3'        -1.3470   -0.1150    1.0730 h1        1 ABF      0.107700
     19 HB         -0.9690    1.3060    2.6140 ho        1 ABF      0.497000
     20 H4'         0.9710    1.1480   -0.2330 h1        1 ABF      0.074700
     21 H5'1        1.4160   -0.5440    1.3370 h1        1 ABF     -0.005300
     22 H5'2        0.5610   -1.5670    0.4520 h1        1 ABF     -0.005300
     23 H1         -2.2120   -0.1000   -2.7950 ho        1 ABF      0.428000
@<TRIPOS>BOND
     1    1    2 1   
     2    1    3 1   
     3    1   14 1   
     4    1   15 1   
     5    2    7 1   
     6    3    4 1   
     7    3    5 1   
     8    3   16 1   
     9    4   17 1   
    10    5    6 1   
    11    5    7 1   
    12    5   18 1   
    13    6   19 1   
    14    7    8 1   
    15    7   20 1   
    16    8    9 1   
    17    8   21 1   
    18    8   22 1   
    19    9   10 1   
    20   10   11 1   
    21   10   12 1   
    22   10   13 1   
    23   14   23 1   
@<TRIPOS>SUBSTRUCTURE
     1 ABF         1 TEMP              0 ****  ****    0 ROOT
