@<TRIPOS>MOLECULE
ABG
   45    47     1     0     0
SMALL
bcc


@<TRIPOS>ATOM
      1 PG          0.0000    0.0000    0.0000 p5        1 ABG      0.503700
      2 O1G         1.4800    0.0000    0.0000 o         1 ABG     -0.652833
      3 O2G        -0.5360    0.0000    1.5190 o         1 ABG     -0.652833
      4 O3G        -0.5380    1.3140   -0.7580 o         1 ABG     -0.652833
      5 C3B        -0.6080   -1.4890   -0.8590 c3        1 ABG      0.137200
      6 PB          0.0010   -2.9770   -0.0000 p5        1 ABG      0.687600
      7 O1B         1.4810   -2.9760   -0.0010 o         1 ABG     -0.594500
      8 O2B        -0.5350   -2.9770    1.5190 o         1 ABG     -0.594500
      9 O3A        -0.5350   -4.2920   -0.7590 os        1 ABG     -0.499800
     10 PA         -0.3620   -5.8730   -0.5140 p5        1 ABG      0.941800
     11 O1A         1.0300   -6.1590   -0.1000 o         1 ABG     -0.694000
     12 O2A        -1.3750   -6.3520    0.6430 o         1 ABG     -0.694000
     13 O5'        -0.6900   -6.6660   -1.8760 os        1 ABG     -0.491200
     14 C5'        -0.5260   -8.0790   -2.0130 c3        1 ABG      0.305400
     15 C4'        -0.9250   -8.5040   -3.4270 c3        1 ABG      0.136100
     16 O4'        -0.0020   -7.9540   -4.3820 os        1 ABG     -0.352600
     17 C1'         0.1290   -8.9200   -5.4480 c3        1 ABG      0.155800
     18 N9          1.3770   -8.7110   -6.1840 na        1 ABG      0.188000
     19 C4          1.6340   -9.0990   -7.4740 ca        1 ABG      0.284800
     20 N3          0.9430   -9.7260   -8.4210 nb        1 ABG     -0.740000
     21 C2          1.4800   -9.9600   -9.5990 ca        1 ABG      0.452900
     22 N1          2.7120   -9.5940   -9.9030 nb        1 ABG     -0.705000
     23 C6          3.4790   -8.9620   -9.0210 ca        1 ABG      0.396200
     24 N6          4.7690   -8.5830   -9.3480 nv        1 ABG     -0.565500
     25 C5          2.9500   -8.6880   -7.7480 ca        1 ABG     -0.257200
     26 N7          3.4200   -8.0830   -6.6320 nc        1 ABG     -0.534100
     27 C8          2.4970   -8.0900   -5.7140 cd        1 ABG      0.125700
     28 C2'         0.1560  -10.2790   -4.7020 c3        1 ABG      0.113100
     29 O2'        -0.2850  -11.3380   -5.5550 oh        1 ABG     -0.550800
     30 C3'        -0.8530  -10.0390   -3.5530 c3        1 ABG      0.117100
     31 O3'        -2.1340  -10.5730   -3.8930 oh        1 ABG     -0.570800
     32 H3B2       -1.6910   -1.4890   -0.8570 hc        1 ABG     -0.003800
     33 H3B1       -0.2480   -1.4890   -1.8800 hc        1 ABG     -0.003800
     34 H5'2        0.5110   -8.3410   -1.8360 h1        1 ABG     -0.025300
     35 H5'1       -1.1550   -8.5870   -1.2920 h1        1 ABG     -0.025300
     36 H4'        -1.9290   -8.1650   -3.6500 h1        1 ABG      0.030700
     37 H1'        -0.7260   -8.8690   -6.1120 h2        1 ABG      0.044700
     38 H2          0.8890  -10.4740  -10.3480 h5        1 ABG     -0.046900
     39 H62         5.3380   -8.1110   -8.6730 hn        1 ABG      0.242800
     40 H61         5.1320   -8.7780  -10.2600 hn        1 ABG      0.242800
     41 H8          2.6020   -7.6640   -4.7230 h5        1 ABG      0.049800
     42 H2'         1.1440  -10.4800   -4.3070 h1        1 ABG      0.021700
     43 H2O1        0.1670  -12.1330   -5.3290 ho        1 ABG      0.359000
     44 H3'        -0.4860  -10.4760   -2.6320 h1        1 ABG      0.006700
     45 H3O1       -2.4200  -11.1610   -3.2130 ho        1 ABG      0.364000
@<TRIPOS>BOND
     1    1    2 1   
     2    1    3 1   
     3    1    4 1   
     4    1    5 1   
     5    5    6 1   
     6    5   32 1   
     7    5   33 1   
     8    6    7 1   
     9    6    8 1   
    10    6    9 1   
    11    9   10 1   
    12   10   11 1   
    13   10   12 1   
    14   10   13 1   
    15   13   14 1   
    16   14   15 1   
    17   14   34 1   
    18   14   35 1   
    19   15   16 1   
    20   15   30 1   
    21   15   36 1   
    22   16   17 1   
    23   17   18 1   
    24   17   28 1   
    25   17   37 1   
    26   18   19 1   
    27   18   27 1   
    28   19   20 ar  
    29   19   25 ar  
    30   20   21 ar  
    31   21   22 ar  
    32   21   38 1   
    33   22   23 ar  
    34   23   24 1   
    35   23   25 ar  
    36   24   39 1   
    37   24   40 1   
    38   25   26 1   
    39   26   27 2   
    40   27   41 1   
    41   28   29 1   
    42   28   30 1   
    43   28   42 1   
    44   29   43 1   
    45   30   31 1   
    46   30   44 1   
    47   31   45 1   
@<TRIPOS>SUBSTRUCTURE
     1 ABG         1 TEMP              0 ****  ****    0 ROOT
