@<TRIPOS>MOLECULE
ABI
   21    22     1     0     0
SMALL
bcc


@<TRIPOS>ATOM
      1 C1         -1.1350    0.0670   -0.0510 ca        1 ABI     -0.255900
      2 C2         -0.7320    1.3770   -0.3890 ca        1 ABI     -0.116000
      3 C3          0.6080    1.7230   -0.4660 ca        1 ABI     -0.054000
      4 C4          1.5690    0.7420   -0.1880 ca        1 ABI      0.130400
      5 C5          1.1360   -0.6120    0.1640 ca        1 ABI     -0.091200
      6 C6         -0.2140   -0.9490    0.2260 ca        1 ABI     -0.072000
      7 C7         -2.5870   -0.2370    0.0130 ce        1 ABI      0.524400
      8 C8          3.3740   -0.4430    0.1640 cc        1 ABI      0.477700
      9 N1         -3.0470   -1.3470   -0.6100 nh        1 ABI     -0.471600
     10 N2         -3.3960    0.6050    0.6950 nh        1 ABI     -0.455700
     11 N3          2.9710    0.7960   -0.1750 nd        1 ABI     -0.549100
     12 N4          2.3110   -1.3370    0.3810 na        1 ABI     -0.274300
     13 HC2        -1.4900    2.1420   -0.6240 ha        1 ABI      0.147000
     14 HC3         0.9180    2.7450   -0.7400 ha        1 ABI      0.183000
     15 HC6        -0.5330   -1.9630    0.5060 ha        1 ABI      0.149000
     16 HC8         4.4250   -0.7560    0.2680 h5        1 ABI      0.098800
     17 HH11       -4.0050   -1.6210   -0.5990 hn        1 ABI      0.325950
     18 HH12       -2.4020   -1.9080   -1.1260 hn        1 ABI      0.325950
     19 HH21       -2.9880    1.3940    1.1530 hn        1 ABI      0.325950
     20 HH22       -4.3830    0.4830    0.7570 hn        1 ABI      0.325950
     21 HN4         2.3750   -2.2860    0.6440 hn        1 ABI      0.325700
@<TRIPOS>BOND
     1    1    2 ar  
     2    1    6 ar  
     3    1    7 1   
     4    2    3 ar  
     5    2   13 1   
     6    3    4 ar  
     7    3   14 1   
     8    4    5 ar  
     9    4   11 1   
    10    5    6 ar  
    11    5   12 1   
    12    6   15 1   
    13    7    9 2   
    14    7   10 1   
    15    8   11 2   
    16    8   12 1   
    17    8   16 1   
    18    9   17 1   
    19    9   18 1   
    20   10   19 1   
    21   10   20 1   
    22   12   21 1   
@<TRIPOS>SUBSTRUCTURE
     1 ABI         1 TEMP              0 ****  ****    0 ROOT
