@<TRIPOS>MOLECULE
ABI
   21    22     1     0     0
SMALL
bcc


@<TRIPOS>ATOM
      1 C1         -0.0260   -0.0130    0.0010 ca        1 ABI     -0.255900
      2 C2          1.3560   -0.3040   -0.0090 ca        1 ABI     -0.116000
      3 C3          2.0770   -0.4170    1.1690 ca        1 ABI     -0.054000
      4 C4          1.4080   -0.2240    2.3850 ca        1 ABI      0.130400
      5 C5         -0.0240    0.0790    2.3780 ca        1 ABI     -0.091200
      6 C6         -0.7400    0.1780    1.1880 ca        1 ABI     -0.072000
      7 C7         -0.7400    0.0940   -1.2970 ce        1 ABI      0.524400
      8 C8          0.7850   -0.0010    4.4700 cc        1 ABI      0.477700
      9 N1         -1.9140   -0.5630   -1.4500 nh        1 ABI     -0.471600
     10 N2         -0.1920    0.8460   -2.2780 nh        1 ABI     -0.455700
     11 N3          1.8650   -0.2640    3.7110 nd        1 ABI     -0.549100
     12 N4         -0.3860    0.2140    3.7230 na        1 ABI     -0.274300
     13 HC2         1.8760   -0.4710   -0.9660 ha        1 ABI      0.147000
     14 HC3         3.1540   -0.6530    1.1570 ha        1 ABI      0.183000
     15 HC6        -1.8130    0.4220    1.1900 ha        1 ABI      0.149000
     16 HC8         0.7870    0.0460    5.5710 h5        1 ABI      0.098800
     17 HH11       -2.2450   -1.1310   -0.6990 hn        1 ABI      0.325950
     18 HH12       -2.4530   -0.5280   -2.2870 hn        1 ABI      0.325950
     19 HH21        0.6650    1.3250   -2.0910 hn        1 ABI      0.325950
     20 HH22       -0.5980    0.9420   -3.1830 hn        1 ABI      0.325950
     21 HN4        -1.2840    0.4290    4.0700 hn        1 ABI      0.325700
@<TRIPOS>BOND
     1    1    2 ar  
     2    1    6 ar  
     3    1    7 1   
     4    2    3 ar  
     5    2   13 1   
     6    3    4 ar  
     7    3   14 1   
     8    4    5 ar  
     9    4   11 1   
    10    5    6 ar  
    11    5   12 1   
    12    6   15 1   
    13    7    9 2   
    14    7   10 1   
    15    8   11 2   
    16    8   12 1   
    17    8   16 1   
    18    9   17 1   
    19    9   18 1   
    20   10   19 1   
    21   10   20 1   
    22   12   21 1   
@<TRIPOS>SUBSTRUCTURE
     1 ABI         1 TEMP              0 ****  ****    0 ROOT
