@<TRIPOS>MOLECULE
ABI
   21    14     1     0     0
SMALL
bcc


@<TRIPOS>ATOM
      1 C1         -0.0380   -0.0450   -0.8040 c1        1 ABI     -0.172000
      2 C2          1.3470   -0.0080   -0.8100 c1        1 ABI     -0.085000
      3 C3          2.0440    0.0440    0.3870 c1        1 ABI     -0.085000
      4 C4          1.3450    0.0590    1.6090 c1        1 ABI     -0.027500
      5 C5         -0.0190    0.0230    1.6140 c1        1 ABI     -0.027500
      6 C6         -0.7260   -0.0300    0.3980 c1        1 ABI     -0.072000
      7 C7         -0.8330   -0.0300   -2.0910 c2        1 ABI      0.347000
      8 C8          0.6690    0.0990    3.6990 c1        1 ABI      0.022000
      9 N1         -1.1810   -1.2520   -2.7240 n3        1 ABI     -0.315000
     10 N2         -1.2000    1.1090   -2.6200 n2        1 ABI     -0.320000
     11 N3          1.7660    0.1060    2.8970 n1        1 ABI     -0.176500
     12 N4         -0.4330    0.0480    2.9060 n1        1 ABI     -0.176500
     13 HC2         1.8330   -0.0190   -1.6570 ha        1 ABI      0.165000
     14 HC3         3.0200    0.0690    0.3830 ha        1 ABI      0.165000
     15 HC6        -1.7020   -0.0560    0.4020 ha        1 ABI      0.149000
     16 HC8         0.6730    0.1240    4.6750 DU        1 ABI      0.262667
     17 HH11       -1.6500   -1.2420   -3.5090 hn        1 ABI      0.277000
     18 HH12       -0.9580   -2.0480   -2.3350 hn        1 ABI      0.277000
     19 HH21       -0.9760    1.8970   -2.2120 DU        1 ABI      0.262667
     20 HH22       -1.6820    1.1180   -3.4000 hn        1 ABI      0.267000
     21 HN4        -1.2990    0.0330    3.1910 DU        1 ABI      0.262667
@<TRIPOS>BOND
     1    1    6 1   
     2    1    7 1   
     3    2    3 1   
     4    2   13 1   
     5    3   14 1   
     6    4    5 1   
     7    6   15 1   
     8    7    9 1   
     9    7   10 1   
    10    8   11 1   
    11    8   12 1   
    12    9   17 1   
    13    9   18 1   
    14   10   20 1   
@<TRIPOS>SUBSTRUCTURE
     1 ABI         1 TEMP              0 ****  ****    0 ROOT
