@<TRIPOS>MOLECULE
ABJ
   35    37     1     0     0
SMALL
bcc


@<TRIPOS>ATOM
      1 C19        47.1230   16.4140   33.4790 c3        1 ABJ     -0.109600
      2 C14        47.1450   16.0560   31.9940 c3        1 ABJ      0.078000
      3 C20        46.5230   17.1970   31.1910 c3        1 ABJ     -0.109600
      4 N11        46.5040   14.7640   31.7250 na        1 ABJ      0.002200
      5 N15        45.2370   14.4740   32.0740 nc        1 ABJ     -0.501100
      6 C7         47.0630   13.7360   30.9400 ca        1 ABJ      0.473800
      7 N3         48.3080   13.6220   30.3790 nb        1 ABJ     -0.742000
      8 C6         48.4820   12.4500   29.7290 ca        1 ABJ      0.695900
      9 N5         47.6270   11.4040   29.5660 nb        1 ABJ     -0.801000
     10 C2         46.3730   11.5210   30.1200 ca        1 ABJ      0.761200
     11 N1         45.4480   10.5190   29.9570 nh        1 ABJ     -0.959500
     12 C4         46.0360   12.7120   30.8360 ca        1 ABJ     -0.494500
     13 C13        44.9100   13.2530   31.5730 cd        1 ABJ      0.413500
     14 C18        43.6140   12.6180   31.7760 ca        1 ABJ     -0.062900
     15 C28        43.1350   12.4200   33.0760 ca        1 ABJ     -0.188000
     16 C27        42.8430   12.2200   30.6760 ca        1 ABJ     -0.163000
     17 C30        41.6030   11.6130   30.8750 ca        1 ABJ     -0.102000
     18 C26        41.1130   11.3970   32.1590 ca        1 ABJ     -0.151000
     19 C29        41.8870   11.8070   33.2580 ca        1 ABJ      0.122100
     20 O33        41.3550   11.5700   34.5040 oh        1 ABJ     -0.496100
     21 H201       45.4600   17.3640   31.4890 hc        1 ABJ      0.050200
     22 H202       47.1040   18.1290   31.3910 hc        1 ABJ      0.050200
     23 H203       46.5590   16.9830   30.0960 hc        1 ABJ      0.050200
     24 H14        48.2230   15.9330   31.6710 h1        1 ABJ      0.087700
     25 H191       47.5820   15.6050   34.0950 hc        1 ABJ      0.050200
     26 H192       47.7120   17.3520   33.6240 hc        1 ABJ      0.050200
     27 H193       46.0790   16.5870   33.8360 hc        1 ABJ      0.050200
     28 H6         49.4780   12.3110   29.2560 h5        1 ABJ      0.052100
     29 H11N       44.6150   10.5630   30.4920 hn        1 ABJ      0.443300
     30 H12N       45.7210    9.6520   29.5630 hn        1 ABJ      0.443300
     31 H28        43.7270   12.7480   33.9420 ha        1 ABJ      0.148000
     32 H27        43.2100   12.4040   29.6550 ha        1 ABJ      0.148000
     33 H30        41.0010   11.3070   30.0060 ha        1 ABJ      0.139000
     34 H26        40.1380   10.9210   32.3300 ha        1 ABJ      0.153000
     35 H33        41.9640   11.9360   35.1640 ho        1 ABJ      0.422000
@<TRIPOS>BOND
     1    1    2 1   
     2    1   25 1   
     3    1   26 1   
     4    1   27 1   
     5    2    3 1   
     6    2    4 1   
     7    2   24 1   
     8    3   21 1   
     9    3   22 1   
    10    3   23 1   
    11    4    5 1   
    12    4    6 1   
    13    5   13 2   
    14    6    7 ar  
    15    6   12 ar  
    16    7    8 ar  
    17    8    9 ar  
    18    8   28 1   
    19    9   10 ar  
    20   10   11 1   
    21   10   12 ar  
    22   11   29 1   
    23   11   30 1   
    24   12   13 1   
    25   13   14 1   
    26   14   15 ar  
    27   14   16 ar  
    28   15   19 ar  
    29   15   31 1   
    30   16   17 ar  
    31   16   32 1   
    32   17   18 ar  
    33   17   33 1   
    34   18   19 ar  
    35   18   34 1   
    36   19   20 1   
    37   20   35 1   
@<TRIPOS>SUBSTRUCTURE
     1 ABJ         1 TEMP              0 ****  ****    0 ROOT
