@<TRIPOS>MOLECULE
ABJ
   35    37     1     0     0
SMALL
bcc


@<TRIPOS>ATOM
      1 C19         0.0360    0.2830    0.8100 c3        1 ABJ     -0.109600
      2 C14         1.2860    0.0250   -0.0300 c3        1 ABJ      0.078000
      3 C20         2.3540   -0.6320    0.8430 c3        1 ABJ     -0.109600
      4 N11         1.7710    1.2420   -0.6910 na        1 ABJ      0.001200
      5 N15         2.1010    2.3670   -0.0310 nc        1 ABJ     -0.501100
      6 C7          2.0950    1.3410   -2.0580 ca        1 ABJ      0.473800
      7 N3          1.9330    0.4420   -3.0790 nb        1 ABJ     -0.742000
      8 C6          2.3300    0.9310   -4.2740 ca        1 ABJ      0.695900
      9 N5          2.8440    2.1500   -4.5950 nb        1 ABJ     -0.801000
     10 C2          3.0170    3.0510   -3.5690 ca        1 ABJ      0.761200
     11 N1          3.5680    4.2840   -3.8170 nh        1 ABJ     -0.959500
     12 C4          2.6480    2.6750   -2.2400 ca        1 ABJ     -0.494500
     13 C13         2.6230    3.2590   -0.9130 cd        1 ABJ      0.413500
     14 C18         3.0740    4.5950   -0.5400 ca        1 ABJ     -0.062900
     15 C28         2.1930    5.4680    0.1080 ca        1 ABJ     -0.188000
     16 C27         4.3860    4.9990   -0.8150 ca        1 ABJ     -0.163000
     17 C30         4.8130    6.2780   -0.4560 ca        1 ABJ     -0.102000
     18 C26         3.9500    7.1650    0.1790 ca        1 ABJ     -0.151000
     19 C29         2.6370    6.7490    0.4600 ca        1 ABJ      0.122100
     20 O33         1.8260    7.6650    1.0900 oh        1 ABJ     -0.496100
     21 H201        2.6400    0.0300    1.6940 hc        1 ABJ      0.050200
     22 H202        1.9400   -1.5850    1.2520 hc        1 ABJ      0.050200
     23 H203        3.2680   -0.8690    0.2480 hc        1 ABJ      0.050200
     24 H14         1.0150   -0.6870   -0.8670 h1        1 ABJ      0.087700
     25 H191       -0.3340   -0.6960    1.2000 hc        1 ABJ      0.050200
     26 H192        0.2640    0.9500    1.6750 hc        1 ABJ      0.050200
     27 H193       -0.7700    0.7510    0.1980 hc        1 ABJ      0.050200
     28 H6          2.2180    0.2360   -5.1350 h5        1 ABJ      0.052100
     29 H11N        3.5380    4.9620   -3.0940 hn        1 ABJ      0.443300
     30 H12N        3.7140    4.5830   -4.7500 hn        1 ABJ      0.443300
     31 H28         1.1670    5.1480    0.3430 ha        1 ABJ      0.148000
     32 H27         5.0860    4.3000   -1.2980 ha        1 ABJ      0.148000
     33 H30         5.8470    6.5870   -0.6700 ha        1 ABJ      0.139000
     34 H26         4.2740    8.1750    0.4680 ha        1 ABJ      0.153000
     35 H33         0.9730    7.2410    1.2610 ho        1 ABJ      0.422000
@<TRIPOS>BOND
     1    1    2 1   
     2    1   25 1   
     3    1   26 1   
     4    1   27 1   
     5    2    3 1   
     6    2    4 1   
     7    2   24 1   
     8    3   21 1   
     9    3   22 1   
    10    3   23 1   
    11    4    5 1   
    12    4    6 1   
    13    5   13 2   
    14    6    7 ar  
    15    6   12 ar  
    16    7    8 ar  
    17    8    9 ar  
    18    8   28 1   
    19    9   10 ar  
    20   10   11 1   
    21   10   12 ar  
    22   11   29 1   
    23   11   30 1   
    24   12   13 1   
    25   13   14 1   
    26   14   15 ar  
    27   14   16 ar  
    28   15   19 ar  
    29   15   31 1   
    30   16   17 ar  
    31   16   32 1   
    32   17   18 ar  
    33   17   33 1   
    34   18   19 ar  
    35   18   34 1   
    36   19   20 1   
    37   20   35 1   
@<TRIPOS>SUBSTRUCTURE
     1 ABJ         1 TEMP              0 ****  ****    0 ROOT
