@<TRIPOS>MOLECULE
ABJ
   35    37     1     0     0
SMALL
bcc


@<TRIPOS>ATOM
      1 C19         0.0340    0.2800    0.8090 c3        1 ABJ     -0.109600
      2 C14         1.2840    0.0240   -0.0320 c3        1 ABJ      0.078000
      3 C20         2.3520   -0.6340    0.8400 c3        1 ABJ     -0.109600
      4 N11         1.7680    1.2410   -0.6920 na        1 ABJ      0.002200
      5 N15         2.0920    2.3680   -0.0320 nc        1 ABJ     -0.501100
      6 C7          2.1030    1.3380   -2.0570 ca        1 ABJ      0.473800
      7 N3          1.9500    0.4360   -3.0770 nb        1 ABJ     -0.742000
      8 C6          2.3550    0.9230   -4.2700 ca        1 ABJ      0.695900
      9 N5          2.8690    2.1420   -4.5900 nb        1 ABJ     -0.801000
     10 C2          3.0330    3.0460   -3.5650 ca        1 ABJ      0.761200
     11 N1          3.5840    4.2800   -3.8110 nv        1 ABJ     -0.959500
     12 C4          2.6550    2.6720   -2.2380 ca        1 ABJ     -0.494500
     13 C13         2.6190    3.2590   -0.9120 cd        1 ABJ      0.413500
     14 C18         3.0650    4.5960   -0.5380 ca        1 ABJ     -0.062900
     15 C28         2.1770    5.4690    0.1000 ca        1 ABJ     -0.188000
     16 C27         4.3790    5.0020   -0.8050 ca        1 ABJ     -0.163000
     17 C30         4.8000    6.2820   -0.4450 ca        1 ABJ     -0.102000
     18 C26         3.9310    7.1700    0.1810 ca        1 ABJ     -0.151000
     19 C29         2.6170    6.7520    0.4530 ca        1 ABJ      0.122100
     20 O33         1.8000    7.6680    1.0740 oh        1 ABJ     -0.496100
     21 H201        2.6390    0.0280    1.6910 hc        1 ABJ      0.050200
     22 H202        1.9380   -1.5870    1.2500 hc        1 ABJ      0.050200
     23 H203        3.2670   -0.8700    0.2450 hc        1 ABJ      0.050200
     24 H14         1.0130   -0.6880   -0.8690 h1        1 ABJ      0.087700
     25 H191       -0.7720    0.7500    0.1970 hc        1 ABJ      0.050200
     26 H192        0.2610    0.9460    1.6750 hc        1 ABJ      0.050200
     27 H193       -0.3360   -0.7000    1.1960 hc        1 ABJ      0.050200
     28 H6          2.2510    0.2260   -5.1300 h5        1 ABJ      0.052100
     29 H11N        3.5470    4.9590   -3.0900 hn        1 ABJ      0.443300
     30 H12N        3.7360    4.5770   -4.7440 hn        1 ABJ      0.443300
     31 H28         1.1510    5.1480    0.3280 ha        1 ABJ      0.148000
     32 H27         5.0830    4.3030   -1.2800 ha        1 ABJ      0.148000
     33 H30         5.8360    6.5920   -0.6520 ha        1 ABJ      0.139000
     34 H26         4.2510    8.1800    0.4700 ha        1 ABJ      0.153000
     35 H33         0.9450    7.2430    1.2390 ho        1 ABJ      0.422000
@<TRIPOS>BOND
     1    1    2 1   
     2    1   25 1   
     3    1   26 1   
     4    1   27 1   
     5    2    3 1   
     6    2    4 1   
     7    2   24 1   
     8    3   21 1   
     9    3   22 1   
    10    3   23 1   
    11    4    5 1   
    12    4    6 1   
    13    5   13 2   
    14    6    7 ar  
    15    6   12 ar  
    16    7    8 ar  
    17    8    9 ar  
    18    8   28 1   
    19    9   10 ar  
    20   10   11 1   
    21   10   12 ar  
    22   11   29 1   
    23   11   30 1   
    24   12   13 1   
    25   13   14 1   
    26   14   15 ar  
    27   14   16 ar  
    28   15   19 ar  
    29   15   31 1   
    30   16   17 ar  
    31   16   32 1   
    32   17   18 ar  
    33   17   33 1   
    34   18   19 ar  
    35   18   34 1   
    36   19   20 1   
    37   20   35 1   
@<TRIPOS>SUBSTRUCTURE
     1 ABJ         1 TEMP              0 ****  ****    0 ROOT
