@<TRIPOS>MOLECULE
ABJ
   35    30     1     0     0
SMALL
bcc


@<TRIPOS>ATOM
      1 C19        -2.4910   -2.4370    1.7600 c3        1 ABJ     -0.227000
      2 C14        -1.1810   -2.8040    1.0950 c3        1 ABJ      0.058000
      3 C20        -0.1630   -3.1940    2.1600 c3        1 ABJ     -0.227000
      4 N11        -0.6850   -1.6690    0.3440 n3        1 ABJ     -0.134000
      5 N15        -0.3390   -0.4430    0.8600 n2        1 ABJ     -0.033000
      6 C7         -0.4400   -1.6460   -1.0110 c1        1 ABJ      0.083000
      7 N3         -0.6290   -2.5780   -1.9890 n1        1 ABJ     -0.220000
      8 C6         -0.3230   -2.2790   -3.2870 c1        1 ABJ      0.034000
      9 N5          0.1730   -1.0430   -3.6080 n1        1 ABJ     -0.279000
     10 C2          0.3600   -0.1240   -2.6470 c1        1 ABJ      0.248000
     11 N1          0.7440    0.8880   -3.5690 n2        1 ABJ     -0.365000
     12 C4          0.0500   -0.4270   -1.3260 c1        1 ABJ     -0.283000
     13 C13         0.1130    0.3260   -0.1550 c1        1 ABJ     -0.043000
     14 C18         0.4500    1.6430    0.2320 c1        1 ABJ      0.021000
     15 C28         1.7610    1.9590    0.5350 c1        1 ABJ     -0.162000
     16 C27        -0.5410    2.6150    0.3310 c1        1 ABJ     -0.136000
     17 C30        -0.2130    3.9030    0.7360 c1        1 ABJ     -0.150000
     18 C26         1.0980    4.2200    1.0390 c1        1 ABJ     -0.150000
     19 C29         2.0900    3.2480    0.9400 c1        1 ABJ      0.074000
     20 O33         3.4380    3.5870    1.1850 oh        1 ABJ     -0.252000
     21 H201       -0.1140   -2.4880    2.8400 hc        1 ABJ      0.089167
     22 H202       -0.4380   -4.0360    2.5830 hc        1 ABJ      0.089167
     23 H203        0.7170   -3.3080    1.7460 hc        1 ABJ      0.089167
     24 H14        -1.3240   -3.5590    0.4890 h1        1 ABJ      0.127000
     25 H191       -2.3550   -1.6690    2.3450 hc        1 ABJ      0.089167
     26 H192       -2.8110   -3.1940    2.2860 hc        1 ABJ      0.089167
     27 H193       -3.1540   -2.2120    1.0730 hc        1 ABJ      0.089167
     28 H6         -0.4600   -2.9490   -3.9890 ha        1 ABJ      0.188000
     29 H11N        1.5260    0.8070   -4.0380 hn        1 ABJ      0.244000
     30 H12N        0.2090    1.6170   -3.6950 hn        1 ABJ      0.244000
     31 H28         2.4520    1.2810    0.4650 ha        1 ABJ      0.159000
     32 H27        -1.4650    2.3920    0.1170 ha        1 ABJ      0.149000
     33 H30        -0.9080    4.5840    0.8050 ha        1 ABJ      0.137000
     34 H26         1.3290    5.1260    1.3240 ha        1 ABJ      0.137000
     35 H33         3.5250    3.8660    2.0250 ho        1 ABJ      0.220000
@<TRIPOS>BOND
     1    1    2 1   
     2    1   25 1   
     3    1   26 1   
     4    1   27 1   
     5    2    3 1   
     6    2    4 1   
     7    2   24 1   
     8    3   21 1   
     9    3   22 1   
    10    3   23 1   
    11    4    5 1   
    12    4    6 1   
    13    5   13 1   
    14    6   12 1   
    15    7    8 1   
    16    8   28 1   
    17    9   10 1   
    18   10   12 1   
    19   11   29 1   
    20   11   30 1   
    21   13   14 1   
    22   14   16 1   
    23   15   19 1   
    24   15   31 1   
    25   16   32 1   
    26   17   18 1   
    27   17   33 1   
    28   18   34 1   
    29   19   20 1   
    30   20   35 1   
@<TRIPOS>SUBSTRUCTURE
     1 ABJ         1 TEMP              0 ****  ****    0 ROOT
