@<TRIPOS>MOLECULE
ABJ
   36    38     1     0     0
SMALL
bcc


@<TRIPOS>ATOM
      1 C19        -0.0230    0.2530    0.7000 c3        1 ABJ     -0.116100
      2 C14         1.2930   -0.0200   -0.0210 c3        1 ABJ      0.073000
      3 C20         2.3010   -0.6250    0.9510 c3        1 ABJ     -0.116100
      4 N11         1.8230    1.1970   -0.6800 na        1 ABJ      0.038200
      5 N15         2.1350    2.3220   -0.0240 nc        1 ABJ     -0.419100
      6 C7          2.1060    1.3130   -2.0500 ca        1 ABJ      0.458800
      7 N3          1.9520    0.4380   -3.0870 nb        1 ABJ     -0.623000
      8 C6          2.3260    0.9290   -4.2860 ca        1 ABJ      0.682900
      9 N5          2.8240    2.1750   -4.5840 nb        1 ABJ     -0.697000
     10 C2          2.9700    3.0280   -3.5470 ca        1 ABJ      0.557200
     11 N1          3.4860    4.3860   -3.8220 n4        1 ABJ     -0.835300
     12 C4          2.6420    2.6750   -2.2290 ca        1 ABJ     -0.427500
     13 C13         2.6310    3.2410   -0.8950 cd        1 ABJ      0.394500
     14 C18         3.0790    4.5800   -0.5370 ca        1 ABJ     -0.093900
     15 C28         2.1910    5.4740    0.0680 ca        1 ABJ     -0.189000
     16 C27         4.4030    4.9620   -0.7980 ca        1 ABJ     -0.222000
     17 C30         4.8340    6.2480   -0.4610 ca        1 ABJ     -0.088000
     18 C26         3.9650    7.1580    0.1270 ca        1 ABJ     -0.137000
     19 C29         2.6410    6.7620    0.3990 ca        1 ABJ      0.152100
     20 O33         1.8340    7.7030    0.9780 oh        1 ABJ     -0.473100
     21 H201        3.2690   -0.8550    0.4440 hc        1 ABJ      0.064033
     22 H202        1.8720   -1.5780    1.3470 hc        1 ABJ      0.064033
     23 H203        2.4970    0.0610    1.8100 hc        1 ABJ      0.064033
     24 H14         1.1060   -0.7540   -0.8630 h1        1 ABJ      0.095700
     25 H191        0.1230    0.9480    1.5610 hc        1 ABJ      0.064033
     26 H192       -0.4120   -0.7200    1.0900 hc        1 ABJ      0.064033
     27 H193       -0.7840    0.6870    0.0090 hc        1 ABJ      0.064033
     28 H6          2.2190    0.2450   -5.1610 h5        1 ABJ      0.099100
     29 H11N        4.3370    4.3350   -4.3950 hn        1 ABJ      0.478467
     30 H12N        3.6960    4.8510   -2.9200 hn        1 ABJ      0.478467
     31 H28         1.1610    5.1660    0.3030 ha        1 ABJ      0.159000
     32 H27         5.1260    4.2270   -1.1820 ha        1 ABJ      0.139000
     33 H30         5.8820    6.5370   -0.6430 ha        1 ABJ      0.155000
     34 H26         4.2940    8.1720    0.4040 ha        1 ABJ      0.176000
     35 H33         0.9910    7.2870    1.2190 ho        1 ABJ      0.437000
     36 H13         2.7740    4.9250   -4.3310 hn        1 ABJ      0.478467
@<TRIPOS>BOND
     1    1    2 1   
     2    1   25 1   
     3    1   26 1   
     4    1   27 1   
     5    2    3 1   
     6    2    4 1   
     7    2   24 1   
     8    3   21 1   
     9    3   22 1   
    10    3   23 1   
    11    4    5 1   
    12    4    6 1   
    13    5   13 2   
    14    6    7 ar  
    15    6   12 ar  
    16    7    8 ar  
    17    8    9 ar  
    18    8   28 1   
    19    9   10 ar  
    20   10   11 1   
    21   10   12 ar  
    22   11   29 1   
    23   11   30 1   
    24   11   36 1   
    25   12   13 1   
    26   13   14 1   
    27   14   15 ar  
    28   14   16 ar  
    29   15   19 ar  
    30   15   31 1   
    31   16   17 ar  
    32   16   32 1   
    33   17   18 ar  
    34   17   33 1   
    35   18   19 ar  
    36   18   34 1   
    37   19   20 1   
    38   20   35 1   
@<TRIPOS>SUBSTRUCTURE
     1 ABJ         1 TEMP              0 ****  ****    0 ROOT
