@<TRIPOS>MOLECULE
ABK
   18    15     1     0     0
SMALL
bcc


@<TRIPOS>ATOM
      1 N          -0.7370   -0.2310   -0.4020 n3        1 ABK     -0.425000
      2 CA          3.7340   -0.7740    1.0030 c3        1 ABK     -0.302000
      3 CB          3.3450   -2.1430    1.2910 c1        1 ABK     -0.023000
      4 CG         -0.1810    2.1960    1.3100 c1        1 ABK      0.254000
      5 FG1        -0.1890    1.2450    2.2160 f         1 ABK     -0.127000
      6 FG2         0.7890    3.0110    1.6340 f         1 ABK     -0.127000
      7 O21         3.8320   -0.3920   -1.9120 o         1 ABK     -0.310000
      8 O22         1.6480   -0.4200   -2.0380 oh        1 ABK     -0.281000
      9 C1          2.6810   -0.0710    0.1940 c2        1 ABK      0.250000
     10 HN1        -0.4810   -0.4710    0.5340 hn        1 ABK      0.151000
     11 HN2         0.8410   -0.3390   -1.4750 ho        1 ABK      0.285000
     12 HA         -1.0160    0.7300   -0.4240 hn        1 ABK      0.151000
     13 HB1         3.9440   -0.1800    1.9390 hc        1 ABK      0.161000
     14 HB2         4.6930   -0.7960    0.3950 hc        1 ABK      0.161000
     15 HG          4.0060   -2.6790    1.9890 ha        1 ABK      0.054000
     16 O12         1.8230    0.6630    0.6870 o         1 ABK     -0.298000
     17 C2          2.7660   -0.3030   -1.2980 c2        1 ABK      0.275000
     18 HN3        -1.4940   -0.8080   -0.7010 hn        1 ABK      0.151000
@<TRIPOS>BOND
     1    1   10 1   
     2    1   12 1   
     3    1   18 1   
     4    2    3 1   
     5    2    9 1   
     6    2   13 1   
     7    2   14 1   
     8    3   15 1   
     9    4    5 1   
    10    4    6 1   
    11    7   17 1   
    12    8   11 1   
    13    8   17 1   
    14    9   16 1   
    15    9   17 1   
@<TRIPOS>SUBSTRUCTURE
     1 ABK         1 TEMP              0 ****  ****    0 ROOT
