@<TRIPOS>MOLECULE
ABK
   17    15     1     0     0
SMALL
bcc


@<TRIPOS>ATOM
      1 N          -1.8590   -0.0580   -0.1600 n3        1 ABK     -0.906800
      2 CA         -0.4370   -0.0210   -0.1910 c3        1 ABK      0.049500
      3 CB          0.0980   -0.0210    1.2220 c3        1 ABK     -0.115400
      4 CG          0.6350    1.3520    1.5590 c3        1 ABK      0.389900
      5 FG1         0.8450    1.4380    2.8810 f         1 ABK     -0.268300
      6 FG2         1.7900    1.5530    0.9090 f         1 ABK     -0.268300
      7 O12        -0.1400   -2.3470   -0.4970 o         1 ABK     -0.599300
      8 C2          0.8810   -1.0610   -2.2010 c1        1 ABK      0.552500
      9 O21         0.2890   -0.9860   -3.3100 os        1 ABK     -0.559000
     10 O22         2.1370   -0.9920   -2.1530 o         1 ABK     -0.761500
     11 C1          0.0830   -1.2340   -0.9280 c2        1 ABK      0.462300
     12 HN1        -2.1770   -0.2800   -0.9900 hn        1 ABK      0.362300
     13 HN2        -2.1810    0.7650    0.0800 hn        1 ABK      0.362300
     14 HA         -0.1430    0.7910   -0.6510 h1        1 ABK      0.067700
     15 HB1         0.8170   -0.6800    1.2980 hc        1 ABK      0.075700
     16 HB2        -0.6220   -0.2510    1.8430 hc        1 ABK      0.075700
     17 HG         -0.0160    2.0330    1.2870 h2        1 ABK      0.082700
@<TRIPOS>BOND
     1    1    2 1   
     2    1   12 1   
     3    1   13 1   
     4    2    3 1   
     5    2   11 1   
     6    2   14 1   
     7    3    4 1   
     8    3   15 1   
     9    3   16 1   
    10    4    5 1   
    11    4    6 1   
    12    4   17 1   
    13    7   11 1   
    14    8   10 2   
    15    8   11 2   
@<TRIPOS>SUBSTRUCTURE
     1 ABK         1 TEMP              0 ****  ****    0 ROOT
