@<TRIPOS>MOLECULE
ABK
   17    16     1     0     0
SMALL
bcc


@<TRIPOS>ATOM
      1 N           2.0720    0.7150   -0.5640 n3        1 ABK     -0.901800
      2 CA          0.7430    0.3940   -0.0630 c3        1 ABK      0.034500
      3 CB         -0.0500   -0.4960   -1.0230 c3        1 ABK     -0.123400
      4 CG         -0.3090    0.2160   -2.3630 c3        1 ABK      0.393900
      5 FG1        -0.7590   -0.6570   -3.3350 f         1 ABK     -0.265300
      6 FG2        -1.3390    1.1310   -2.3030 f         1 ABK     -0.265300
      7 O21        -0.8290    0.7060    2.8410 o         1 ABK     -0.804800
      8 O22        -1.4930   -1.1170    1.7060 o         1 ABK     -0.804800
      9 C1          0.7110   -0.2880    1.3170 c         1 ABK      0.438100
     10 HN1         2.6220   -0.1240   -0.5960 hn        1 ABK      0.340800
     11 HN2         2.5150    1.3380    0.0870 hn        1 ABK      0.340800
     12 HA          0.1810    1.3700    0.0510 h1        1 ABK      0.087700
     13 HB1         0.5030   -1.4450   -1.2370 hc        1 ABK      0.092700
     14 HB2        -1.0270   -0.7620   -0.5290 hc        1 ABK      0.092700
     15 HG          0.6270    0.7320   -2.7360 h2        1 ABK      0.070700
     16 O12         1.7350   -0.8050    1.7770 o         1 ABK     -0.589100
     17 C2         -0.6520   -0.2350    2.0270 c         1 ABK      0.862600
@<TRIPOS>BOND
     1    1    2 1   
     2    1   10 1   
     3    1   11 1   
     4    2    3 1   
     5    2    9 1   
     6    2   12 1   
     7    3    4 1   
     8    3   13 1   
     9    3   14 1   
    10    4    5 1   
    11    4    6 1   
    12    4   15 1   
    13    7   17 1   
    14    8   17 1   
    15    9   16 2   
    16    9   17 1   
@<TRIPOS>SUBSTRUCTURE
     1 ABK         1 TEMP              0 ****  ****    0 ROOT
