@<TRIPOS>MOLECULE
ABK
   18    17     1     0     0
SMALL
bcc


@<TRIPOS>ATOM
      1 N          -0.0130    0.8150    0.4360 n8        1 ABK     -0.960800
      2 CA          2.7200   -0.2460    0.5390 c3        1 ABK     -0.162400
      3 CB          1.8450   -0.2080    1.7660 c3        1 ABK     -0.101400
      4 CG          0.7550    0.9120    1.6820 c3        1 ABK      0.618800
      5 FG1        -0.0340    0.8750    2.8330 f         1 ABK     -0.250300
      6 FG2         1.3270    2.1710    1.8160 f         1 ABK     -0.250300
      7 O21         3.9180   -0.2750   -2.0960 o         1 ABK     -0.460000
      8 O22         2.3260   -1.4540   -3.0210 oh        1 ABK     -0.560100
      9 C1          2.1240   -1.0080   -0.5980 c         1 ABK      0.511100
     10 HN1        -0.4360   -0.0860    0.3560 hn        1 ABK      0.390300
     11 HN2         2.9460    0.8000    0.1880 hc        1 ABK      0.103700
     12 HA          1.4980   -1.9070   -2.7870 ho        1 ABK      0.448000
     13 HB1         1.3250   -1.1890    1.9190 hc        1 ABK      0.083200
     14 HB2         3.7060   -0.7300    0.7870 hc        1 ABK      0.103700
     15 HG          2.4680    0.0110    2.6710 hc        1 ABK      0.083200
     16 O12         1.1240   -1.7280   -0.5420 o         1 ABK     -0.517100
     17 C2          2.8590   -0.8700   -1.9150 c         1 ABK      0.530100
     18 HN3        -0.6880    1.5470    0.3590 hn        1 ABK      0.390300
@<TRIPOS>BOND
     1    1    4 1   
     2    1   10 1   
     3    1   18 1   
     4    2    3 1   
     5    2    9 1   
     6    2   11 1   
     7    2   14 1   
     8    3    4 1   
     9    3   13 1   
    10    3   15 1   
    11    4    5 1   
    12    4    6 1   
    13    7   17 2   
    14    8   12 1   
    15    8   17 1   
    16    9   16 2   
    17    9   17 1   
@<TRIPOS>SUBSTRUCTURE
     1 ABK         1 TEMP              0 ****  ****    0 ROOT
