@<TRIPOS>MOLECULE
ABK
   18    15     1     0     0
SMALL
bcc


@<TRIPOS>ATOM
      1 N           0.6670    1.2810   -1.0750 n3        1 ABK     -0.430000
      2 CA          3.1840   -0.2760    0.9560 c3        1 ABK     -0.297000
      3 CB          3.9990   -1.3640    1.4640 c1        1 ABK     -0.020000
      4 CG          0.5820    0.6590    2.7230 c1        1 ABK      0.247000
      5 FG1        -0.0510   -0.2390    3.4350 f         1 ABK     -0.129000
      6 FG2        -0.3190    1.2180    1.9470 f         1 ABK     -0.129000
      7 O21         3.0380   -0.9680   -1.8890 o         1 ABK     -0.287000
      8 O22         0.9590   -1.6420   -1.8030 oh        1 ABK     -0.278000
      9 C1          1.9420   -0.7900    0.2930 c2        1 ABK      0.280000
     10 HN1        -0.0400    1.4360   -0.3870 hn        1 ABK      0.145667
     11 HN2         0.2310   -1.7310   -1.1660 ho        1 ABK      0.245000
     12 HA          1.0720    2.1530   -1.3390 hn        1 ABK      0.145667
     13 HB1         2.8750    0.4130    1.8040 hc        1 ABK      0.168000
     14 HB2         3.7630    0.3430    0.2060 hc        1 ABK      0.168000
     15 HG          4.9340   -1.0510    1.9560 ha        1 ABK      0.052000
     16 O12         0.8550   -0.9160    0.8680 o         1 ABK     -0.311000
     17 C2          2.0530   -1.1350   -1.1730 c2        1 ABK      0.285000
     18 HN3         0.2610    0.8480   -1.8790 hn        1 ABK      0.145667
@<TRIPOS>BOND
     1    1   10 1   
     2    1   12 1   
     3    1   18 1   
     4    2    3 1   
     5    2    9 1   
     6    2   13 1   
     7    2   14 1   
     8    3   15 1   
     9    4    5 1   
    10    4    6 1   
    11    7   17 1   
    12    8   11 1   
    13    8   17 1   
    14    9   16 1   
    15    9   17 1   
@<TRIPOS>SUBSTRUCTURE
     1 ABK         1 TEMP              0 ****  ****    0 ROOT
