@<TRIPOS>MOLECULE
ABL
   44    44     1     0     0
SMALL
bcc


@<TRIPOS>ATOM
      1 C1         -2.5660   -1.7840   -3.2310 c1        1 ABL      0.276000
      2 O1         -3.1590   -2.8140   -3.4540 o         1 ABL     -0.377000
      3 C2         -0.9650   -1.7720   -3.2140 c2        1 ABL     -0.018000
      4 O2         -0.4310   -2.8400   -4.0040 oh        1 ABL     -0.328000
      5 C3         -0.4840   -1.8060   -1.8160 c3        1 ABL      0.032000
      6 O3          0.9320   -1.6110   -1.8120 oh        1 ABL     -0.310000
      7 C4         -1.1340   -0.7330   -0.9370 c3        1 ABL      0.035000
      8 O4         -0.6930   -0.9250    0.4470 os        1 ABL     -0.244000
      9 C5         -2.5860   -0.7790   -0.9770 c3        1 ABL     -0.025000
     10 N5         -3.1570   -0.7780   -2.3660 n3        1 ABL     -0.364000
     11 C6         -3.1340    0.4340   -0.2270 c3        1 ABL     -0.045000
     12 O6         -4.5720    0.4720   -0.3610 oh        1 ABL     -0.322000
     13 C1A         0.0360    0.1820    0.8600 c3        1 ABL      0.158000
     14 C2A         0.1600    0.1460    2.3500 c3        1 ABL      0.011000
     15 O2A        -1.1470    0.3450    2.9290 oh        1 ABL     -0.333000
     16 C3A         1.0860    1.2020    2.8700 c3        1 ABL     -0.002000
     17 O3A         1.2890    0.9900    4.2780 oh        1 ABL     -0.334000
     18 C4A         2.4170    1.1800    2.1800 c3        1 ABL     -0.025000
     19 O4A         3.1730    2.3230    2.6000 oh        1 ABL     -0.340000
     20 C5A         2.2850    1.2080    0.6760 c3        1 ABL     -0.033000
     21 O5A         1.3710    0.1700    0.1720 os        1 ABL     -0.265000
     22 C6A         3.6560    0.9980    0.0560 c3        1 ABL     -0.025000
     23 O6A         4.2540    2.2670   -0.2120 oh        1 ABL     -0.332000
     24 H2         -0.5970   -0.9670   -3.6980 h4        1 ABL      0.116000
     25 HO2        -0.4050   -2.5880   -4.8830 ho        1 ABL      0.237000
     26 H3         -0.6860   -2.7020   -1.4300 h1        1 ABL      0.114000
     27 HO3         1.3270   -2.3250   -2.1270 ho        1 ABL      0.219000
     28 H4         -0.8430    0.1330   -1.2390 h1        1 ABL      0.114000
     29 H5         -2.8800   -1.5770   -0.5260 h1        1 ABL      0.102000
     30 HN5        -4.0020   -0.5040   -2.5060 hn        1 ABL      0.254000
     31 H6         -2.7400    1.2680   -0.6100 h1        1 ABL      0.110000
     32 H6A        -2.8960    0.3660    0.7210 h1        1 ABL      0.110000
     33 HO6        -4.8840    1.2570   -0.0460 ho        1 ABL      0.204000
     34 H1A        -0.4560    1.0070    0.5960 h2        1 ABL      0.095000
     35 H2A         0.4980   -0.7370    2.6210 h1        1 ABL      0.123000
     36 HO2A       -1.2360   -0.1720    3.6520 ho        1 ABL      0.229000
     37 H3A         0.6770    2.0750    2.7370 h1        1 ABL      0.101000
     38 HO3A        1.0540    1.7190    4.7240 ho        1 ABL      0.229000
     39 H4A         2.8880    0.3840    2.4350 h1        1 ABL      0.106000
     40 HO4A        3.8170    2.0630    3.1680 ho        1 ABL      0.233000
     41 H5A         1.9450    2.0910    0.4030 h1        1 ABL      0.087000
     42 H6AA        3.5660    0.5030   -0.7710 h1        1 ABL      0.111500
     43 H6AB        4.2340    0.4820    0.6910 h1        1 ABL      0.111500
     44 HO6A        4.9860    2.1520   -0.7190 ho        1 ABL      0.206000
@<TRIPOS>BOND
     1    1    2 1   
     2    1   10 1   
     3    3    4 1   
     4    3    5 1   
     5    3   24 1   
     6    4   25 1   
     7    5    6 1   
     8    5    7 1   
     9    5   26 1   
    10    6   27 1   
    11    7    8 1   
    12    7    9 1   
    13    7   28 1   
    14    8   13 1   
    15    9   10 1   
    16    9   11 1   
    17    9   29 1   
    18   10   30 1   
    19   11   12 1   
    20   11   31 1   
    21   11   32 1   
    22   12   33 1   
    23   13   14 1   
    24   13   21 1   
    25   13   34 1   
    26   14   15 1   
    27   14   16 1   
    28   14   35 1   
    29   15   36 1   
    30   16   17 1   
    31   16   18 1   
    32   16   37 1   
    33   17   38 1   
    34   18   19 1   
    35   18   20 1   
    36   18   39 1   
    37   19   40 1   
    38   20   21 1   
    39   20   22 1   
    40   20   41 1   
    41   22   23 1   
    42   22   42 1   
    43   22   43 1   
    44   23   44 1   
@<TRIPOS>SUBSTRUCTURE
     1 ABL         1 TEMP              0 ****  ****    0 ROOT
