@<TRIPOS>MOLECULE
ABL
   44    45     1     0     0
SMALL
bcc


@<TRIPOS>ATOM
      1 C1         -4.1540    0.1770    0.1540 c         1 ABL      0.666500
      2 O1         -5.3940    0.3270    0.1650 o         1 ABL     -0.646500
      3 C2         -3.2510    1.3810   -0.0860 c3        1 ABL      0.042100
      4 O2         -3.8480    2.2780   -1.0050 oh        1 ABL     -0.599800
      5 C3         -1.8810    1.0100   -0.6780 c3        1 ABL      0.144100
      6 O3         -1.0110    2.1210   -0.5420 oh        1 ABL     -0.588800
      7 C4         -1.2620   -0.1530    0.1110 c3        1 ABL      0.144100
      8 O4         -0.1060   -0.6110   -0.6010 os        1 ABL     -0.410600
      9 C5         -2.2180   -1.3750    0.1480 c3        1 ABL      0.089700
     10 N5         -3.5910   -1.0440    0.4310 n         1 ABL     -0.551900
     11 C6         -1.6510   -2.3870    1.1710 c3        1 ABL      0.115400
     12 O6         -2.3780   -3.5910    1.0020 oh        1 ABL     -0.602800
     13 C1A         1.1140   -0.4840    0.1010 c3        1 ABL      0.308900
     14 C2A         2.1600   -1.3220   -0.6610 c3        1 ABL      0.085100
     15 O2A         1.9450   -2.7020   -0.4240 oh        1 ABL     -0.604800
     16 C3A         3.5540   -0.9860   -0.1120 c3        1 ABL      0.108100
     17 O3A         4.5660   -1.5810   -0.9050 oh        1 ABL     -0.602800
     18 C4A         3.7880    0.5360   -0.1790 c3        1 ABL      0.122100
     19 O4A         4.9910    0.8730    0.4880 oh        1 ABL     -0.592800
     20 C5A         2.6520    1.2760    0.5420 c3        1 ABL      0.105100
     21 O5A         1.3840    0.9020   -0.0020 os        1 ABL     -0.422600
     22 C6A         2.7400    2.7910    0.3200 c3        1 ABL      0.149400
     23 O6A         1.6420    3.4520    0.9060 oh        1 ABL     -0.602800
     24 H2         -3.1070    1.9060    0.9030 h1        1 ABL      0.079700
     25 HO2        -4.7940    2.3190   -0.7990 ho        1 ABL      0.439000
     26 H3         -1.9860    0.7300   -1.7630 h1        1 ABL      0.074700
     27 HO3        -1.3840    2.8230   -1.0940 ho        1 ABL      0.423000
     28 H4         -0.9960    0.1930    1.1450 h1        1 ABL      0.078700
     29 H5         -2.1690   -1.8730   -0.8710 h1        1 ABL      0.074700
     30 HN5        -4.1930   -1.8230    0.5930 hn        1 ABL      0.339500
     31 H6         -0.5640   -2.5550    0.9350 h1        1 ABL      0.038700
     32 H6A        -1.7550   -2.0070    2.2210 h1        1 ABL      0.038700
     33 HO6        -2.0640   -4.2030    1.6790 ho        1 ABL      0.412000
     34 H1A         1.0280   -0.8050    1.1760 h2        1 ABL      0.050700
     35 H2A         2.1050   -1.0960   -1.7610 h1        1 ABL      0.082700
     36 HO2A        1.1080   -2.9260   -0.8510 ho        1 ABL      0.422000
     37 H3A         3.6450   -1.3480    0.9500 h1        1 ABL      0.063700
     38 HO3A        4.3880   -2.5310   -0.9120 ho        1 ABL      0.426000
     39 H4A         3.8440    0.8550   -1.2570 h1        1 ABL      0.065700
     40 HO4A        5.6910    0.3580    0.0650 ho        1 ABL      0.425000
     41 H5A         2.6750    1.0400    1.6410 h1        1 ABL      0.065700
     42 H6AA        3.6520    3.1870    0.8390 h1        1 ABL      0.059700
     43 H6AB        2.7890    3.0120   -0.7790 h1        1 ABL      0.059700
     44 HO6A        0.8390    3.0920    0.5000 ho        1 ABL      0.427000
@<TRIPOS>BOND
     1    1    2 2   
     2    1    3 1   
     3    1   10 1   
     4    3    4 1   
     5    3    5 1   
     6    3   24 1   
     7    4   25 1   
     8    5    6 1   
     9    5    7 1   
    10    5   26 1   
    11    6   27 1   
    12    7    8 1   
    13    7    9 1   
    14    7   28 1   
    15    8   13 1   
    16    9   10 1   
    17    9   11 1   
    18    9   29 1   
    19   10   30 1   
    20   11   12 1   
    21   11   31 1   
    22   11   32 1   
    23   12   33 1   
    24   13   14 1   
    25   13   21 1   
    26   13   34 1   
    27   14   15 1   
    28   14   16 1   
    29   14   35 1   
    30   15   36 1   
    31   16   17 1   
    32   16   18 1   
    33   16   37 1   
    34   17   38 1   
    35   18   19 1   
    36   18   20 1   
    37   18   39 1   
    38   19   40 1   
    39   20   21 1   
    40   20   22 1   
    41   20   41 1   
    42   22   23 1   
    43   22   42 1   
    44   22   43 1   
    45   23   44 1   
@<TRIPOS>SUBSTRUCTURE
     1 ABL         1 TEMP              0 ****  ****    0 ROOT
