@<TRIPOS>MOLECULE
ABM
   38    40     1     0     0
SMALL
bcc


@<TRIPOS>ATOM
      1 P          -0.7210    0.1310   -0.5990 p5        1 ABM      1.353600
      2 CM          0.6330   -0.3080    0.2770 c3        1 ABM     -0.377300
      3 O2P        -1.9300    0.2800    0.2570 o         1 ABM     -0.874500
      4 O3P        -0.8250   -0.5680   -1.9000 o         1 ABM     -0.874500
      5 O5'        -0.3470    1.7220   -0.9780 os        1 ABM     -0.588200
      6 C5'        -0.9520    2.2530   -2.1080 c3        1 ABM      0.178400
      7 C4'        -2.2190    3.0530   -1.7500 c3        1 ABM      0.063100
      8 O4'        -2.6030    3.8580   -2.8790 os        1 ABM     -0.418600
      9 C3'        -3.4120    2.1470   -1.3770 c3        1 ABM      0.094100
     10 O3'        -3.8580    2.4230   -0.0680 oh        1 ABM     -0.637800
     11 C2'        -4.5300    2.4840   -2.3810 c3        1 ABM      0.114100
     12 O2'        -5.6290    3.1750   -1.8360 oh        1 ABM     -0.594800
     13 C1'        -3.8350    3.4030   -3.4420 c3        1 ABM      0.211800
     14 N9         -3.6160    2.7440   -4.7140 na        1 ABM     -0.270000
     15 C8         -3.0300    1.4750   -4.9540 cc        1 ABM      0.434700
     16 N7         -2.8900    1.1820   -6.2560 nd        1 ABM     -0.563100
     17 C5         -3.3790    2.3070   -6.9380 ca        1 ABM     -0.217200
     18 C6         -3.5000    2.6210   -8.3290 ca        1 ABM      0.724200
     19 N6         -3.1720    1.6720   -9.2840 nh        1 ABM     -0.940500
     20 N1         -3.9990    3.8470   -8.6930 nb        1 ABM     -0.799000
     21 C2         -4.3860    4.6860   -7.6920 ca        1 ABM      0.662900
     22 N3         -4.3490    4.5230   -6.3510 nb        1 ABM     -0.719000
     23 C4         -3.8280    3.3140   -5.9790 ca        1 ABM      0.454800
     24 HM1         1.3290    0.5520    0.4100 hc        1 ABM      0.069033
     25 HM2         0.3580   -0.6700    1.2920 hc        1 ABM      0.069033
     26 HM3         1.2010   -1.1190   -0.2330 hc        1 ABM      0.069033
     27 H5'1       -1.2000    1.4320   -2.8380 h1        1 ABM      0.037700
     28 H5'2       -0.2230    2.9640   -2.5890 h1        1 ABM      0.037700
     29 H4'        -1.9950    3.7770   -0.9230 h1        1 ABM      0.085700
     30 H3'        -3.1000    1.0630   -1.4590 h1        1 ABM      0.108700
     31 HO3'       -3.4170    1.7710    0.5100 ho        1 ABM      0.480000
     32 H2'        -4.9630    1.5560   -2.8400 h1        1 ABM      0.085700
     33 HO2'       -5.3320    3.6340   -1.0390 ho        1 ABM      0.428000
     34 H1'        -4.4460    4.3360   -3.6340 h2        1 ABM      0.114700
     35 H8         -2.7290    0.8150   -4.1210 h5        1 ABM      0.109800
     36 HN61       -3.0370    1.9800  -10.2170 hn        1 ABM      0.424300
     37 HN62       -2.6000    0.9230   -8.9710 hn        1 ABM      0.424300
     38 H2         -4.7920    5.6590   -8.0390 h5        1 ABM      0.039100
@<TRIPOS>BOND
     1    1    2 1   
     2    1    3 1   
     3    1    4 1   
     4    1    5 1   
     5    2   24 1   
     6    2   25 1   
     7    2   26 1   
     8    5    6 1   
     9    6    7 1   
    10    6   27 1   
    11    6   28 1   
    12    7    8 1   
    13    7    9 1   
    14    7   29 1   
    15    8   13 1   
    16    9   10 1   
    17    9   11 1   
    18    9   30 1   
    19   10   31 1   
    20   11   12 1   
    21   11   13 1   
    22   11   32 1   
    23   12   33 1   
    24   13   14 1   
    25   13   34 1   
    26   14   15 1   
    27   14   23 1   
    28   15   16 2   
    29   15   35 1   
    30   16   17 1   
    31   17   18 ar  
    32   17   23 ar  
    33   18   19 1   
    34   18   20 ar  
    35   19   36 1   
    36   19   37 1   
    37   20   21 ar  
    38   21   22 ar  
    39   21   38 1   
    40   22   23 ar  
@<TRIPOS>SUBSTRUCTURE
     1 ABM         1 TEMP              0 ****  ****    0 ROOT
