@<TRIPOS>MOLECULE
ABM
   39    41     1     0     0
SMALL
bcc


@<TRIPOS>ATOM
      1 P          -0.0810   -1.7480    0.7120 p5        1 ABM      1.561300
      2 CM          1.2250   -0.8260    0.3580 c3        1 ABM     -0.420300
      3 O2P         0.2650   -3.1930    0.1750 oh        1 ABM     -0.829400
      4 O3P        -0.6260   -1.6990    2.0640 o         1 ABM     -0.858300
      5 O5'        -1.2120   -1.2300   -0.3430 os        1 ABM     -0.592200
      6 C5'        -2.4970   -1.7720   -0.2080 c3        1 ABM      0.165400
      7 C4'        -2.9590   -2.3160   -1.5630 c3        1 ABM      0.074100
      8 O4'        -2.3250   -3.5670   -1.8650 os        1 ABM     -0.379600
      9 C3'        -4.4830   -2.5470   -1.5940 c3        1 ABM      0.078100
     10 O3'        -5.0790   -1.9340   -2.7230 oh        1 ABM     -0.592800
     11 C2'        -4.6740   -4.0740   -1.7430 c3        1 ABM      0.124100
     12 O2'        -5.2510   -4.4550   -2.9650 oh        1 ABM     -0.566800
     13 C1'        -3.2210   -4.6570   -1.6330 c3        1 ABM      0.225800
     14 N9         -2.9360   -5.2990   -0.3680 nh        1 ABM     -0.276200
     15 C8         -1.9020   -4.9840    0.5460 c1        1 ABM      0.159400
     16 N7         -1.8700   -5.8610    1.5950 ne        1 ABM     -0.659800
     17 C5         -2.8750   -6.7670    1.3800 ca        1 ABM     -0.037200
     18 C6         -3.3650   -7.8830    2.0670 ca        1 ABM      0.353200
     19 N6         -2.7070   -8.2480    3.3290 n4        1 ABM     -0.787300
     20 N1         -4.4150   -8.6420    1.6070 nb        1 ABM     -0.696000
     21 C2         -4.9630   -8.2480    0.4460 ca        1 ABM      0.606900
     22 N3         -4.6250   -7.1810   -0.3600 nb        1 ABM     -0.656000
     23 C4         -3.6040   -6.4490    0.0950 ca        1 ABM      0.412800
     24 HM1         2.0800   -1.4320   -0.0320 hc        1 ABM      0.107367
     25 HM2         1.0070   -0.0580   -0.4250 hc        1 ABM      0.107367
     26 HM3         1.6040   -0.2720    1.2510 hc        1 ABM      0.107367
     27 H5'1       -3.1970   -0.9430    0.1000 h1        1 ABM      0.055700
     28 H5'2       -2.4950   -2.5840    0.5720 h1        1 ABM      0.055700
     29 H4'        -2.6200   -1.6250   -2.3840 h1        1 ABM      0.094700
     30 H3'        -4.9750   -2.1770   -0.6550 h1        1 ABM      0.062700
     31 HO3'       -4.9120   -0.9870   -2.6470 ho        1 ABM      0.414000
     32 H2'        -5.3650   -4.4820   -0.9590 h1        1 ABM      0.104700
     33 HO2'       -4.8570   -3.9160   -3.6650 ho        1 ABM      0.420000
     34 H1'        -3.0250   -5.3910   -2.4710 h2        1 ABM      0.099700
     35 H8         -0.4350   -3.8820    0.2310 ho        1 ABM      0.533000
     36 HN61       -2.4240   -7.3800    3.8000 hn        1 ABM      0.455133
     37 HN62       -1.8720   -8.8010    3.1170 hn        1 ABM      0.455133
     38 H2         -5.8090   -8.8630    0.0750 h5        1 ABM      0.062100
     39 H63        -3.3340   -8.7890    3.9290 hn        1 ABM      0.455133
@<TRIPOS>BOND
     1    1    2 1   
     2    1    3 1   
     3    1    4 2   
     4    1    5 1   
     5    2   24 1   
     6    2   25 1   
     7    2   26 1   
     8    3   35 1   
     9    5    6 1   
    10    6    7 1   
    11    6   27 1   
    12    6   28 1   
    13    7    8 1   
    14    7    9 1   
    15    7   29 1   
    16    8   13 1   
    17    9   10 1   
    18    9   11 1   
    19    9   30 1   
    20   10   31 1   
    21   11   12 1   
    22   11   13 1   
    23   11   32 1   
    24   12   33 1   
    25   13   14 1   
    26   13   34 1   
    27   14   15 2   
    28   14   23 1   
    29   15   16 2   
    30   16   17 1   
    31   17   18 ar  
    32   17   23 ar  
    33   18   19 1   
    34   18   20 ar  
    35   19   36 1   
    36   19   37 1   
    37   19   39 1   
    38   20   21 ar  
    39   21   22 ar  
    40   21   38 1   
    41   22   23 ar  
@<TRIPOS>SUBSTRUCTURE
     1 ABM         1 TEMP              0 ****  ****    0 ROOT
