@<TRIPOS>MOLECULE
ABM
   38    40     1     0     0
SMALL
bcc


@<TRIPOS>ATOM
      1 P          -0.6200   -0.0970   -0.1810 p5        1 ABM      1.361600
      2 CM          0.4720   -0.0190    1.0860 c3        1 ABM     -0.378300
      3 O2P        -2.0000    0.2580    0.2490 o         1 ABM     -0.875000
      4 O3P        -0.3680   -1.2470   -1.0740 o         1 ABM     -0.875000
      5 O5'        -0.1690    1.2720   -1.0450 os        1 ABM     -0.584200
      6 C5'        -0.9260    1.5300   -2.1780 c3        1 ABM      0.195400
      7 C4'        -1.9610    2.6360   -1.9010 c3        1 ABM      0.061100
      8 O4'        -2.0490    3.5060   -3.0470 os        1 ABM     -0.420600
      9 C3'        -3.3740    2.1060   -1.5830 c3        1 ABM      0.115100
     10 O3'        -3.7530    2.4450   -0.2690 oh        1 ABM     -0.642800
     11 C2'        -4.3210    2.8250   -2.5670 c3        1 ABM      0.110100
     12 O2'        -5.1390    3.8130   -1.9860 oh        1 ABM     -0.590800
     13 C1'        -3.3630    3.5110   -3.6010 c3        1 ABM      0.212800
     14 N9         -3.3560    2.8680   -4.9020 na        1 ABM     -0.267000
     15 C8         -2.7470    1.6390   -5.2540 cc        1 ABM      0.432700
     16 N7         -2.8440    1.3400   -6.5590 nd        1 ABM     -0.566100
     17 C5         -3.5350    2.4200   -7.1270 ca        1 ABM     -0.219200
     18 C6         -3.9530    2.7100   -8.4660 ca        1 ABM      0.729200
     19 N6         -3.7600    1.7760   -9.4680 nv        1 ABM     -0.944500
     20 N1         -4.5930    3.8970   -8.7210 nb        1 ABM     -0.800000
     21 C2         -4.8230    4.7230   -7.6620 ca        1 ABM      0.665900
     22 N3         -4.5100    4.5790   -6.3570 nb        1 ABM     -0.718000
     23 C4         -3.8530    3.4070   -6.0960 ca        1 ABM      0.452800
     24 HM1         1.1580    0.8520    0.9790 hc        1 ABM      0.067700
     25 HM2         1.1030   -0.9350    1.1320 hc        1 ABM      0.067700
     26 HM3        -0.0490    0.0870    2.0640 hc        1 ABM      0.067700
     27 H5'1       -0.2330    1.8950   -2.9890 h1        1 ABM      0.028200
     28 H5'2       -1.4350    0.5860   -2.5230 h1        1 ABM      0.028200
     29 H4'        -1.5910    3.2880   -1.0620 h1        1 ABM      0.090700
     30 H3'        -3.4350    0.9940   -1.7290 h1        1 ABM      0.087700
     31 HO3'       -3.3450    1.7750    0.3150 ho        1 ABM      0.488000
     32 H2'        -5.0310    2.1070   -3.0560 h1        1 ABM      0.085700
     33 HO2'       -4.7020    4.1330   -1.1840 ho        1 ABM      0.428000
     34 H1'        -3.6440    4.5960   -3.7490 h2        1 ABM      0.112700
     35 H8         -2.2400    1.0270   -4.4910 h5        1 ABM      0.094800
     36 HN61       -3.8530    2.0700  -10.4100 hn        1 ABM      0.427300
     37 HN62       -3.1040    1.0560   -9.2770 hn        1 ABM      0.427300
     38 H2         -5.3510    5.6660   -7.9210 h5        1 ABM      0.041100
@<TRIPOS>BOND
     1    1    2 1   
     2    1    3 1   
     3    1    4 1   
     4    1    5 1   
     5    2   24 1   
     6    2   25 1   
     7    2   26 1   
     8    5    6 1   
     9    6    7 1   
    10    6   27 1   
    11    6   28 1   
    12    7    8 1   
    13    7    9 1   
    14    7   29 1   
    15    8   13 1   
    16    9   10 1   
    17    9   11 1   
    18    9   30 1   
    19   10   31 1   
    20   11   12 1   
    21   11   13 1   
    22   11   32 1   
    23   12   33 1   
    24   13   14 1   
    25   13   34 1   
    26   14   15 1   
    27   14   23 1   
    28   15   16 2   
    29   15   35 1   
    30   16   17 1   
    31   17   18 ar  
    32   17   23 ar  
    33   18   19 1   
    34   18   20 ar  
    35   19   36 1   
    36   19   37 1   
    37   20   21 ar  
    38   21   22 ar  
    39   21   38 1   
    40   22   23 ar  
@<TRIPOS>SUBSTRUCTURE
     1 ABM         1 TEMP              0 ****  ****    0 ROOT
