@<TRIPOS>MOLECULE
ABM
   38    40     1     0     0
SMALL
bcc


@<TRIPOS>ATOM
      1 P          -1.7040    0.1350    3.6430 p5        1 ABM      1.366600
      2 CM         -1.8060   -1.2860    4.5330 c3        1 ABM     -0.375300
      3 O2P        -2.1430    1.3010    4.4360 o         1 ABM     -0.868000
      4 O3P        -2.1560   -0.0750    2.2420 o         1 ABM     -0.868000
      5 O5'        -0.0340    0.2620    3.5110 os        1 ABM     -0.586200
      6 C5'         0.4640    0.8260    2.3510 c3        1 ABM      0.192400
      7 C4'         1.4780   -0.1340    1.7080 c3        1 ABM      0.076100
      8 O4'         0.8180   -1.0820    0.8480 os        1 ABM     -0.390600
      9 C3'         2.5450    0.5930    0.8740 c3        1 ABM      0.082100
     10 O3'         3.8620    0.3240    1.3120 oh        1 ABM     -0.601800
     11 C2'         2.3550    0.0970   -0.5770 c3        1 ABM      0.073100
     12 O2'         3.4500   -0.7110   -0.9730 oh        1 ABM     -0.593800
     13 C1'         1.1140   -0.8480   -0.5260 c3        1 ABM      0.266800
     14 N9         -0.0360   -0.3260   -1.2350 na        1 ABM     -0.296000
     15 C8         -1.3620   -0.1160   -0.7650 cc        1 ABM      0.462700
     16 N7         -2.2090    0.2530   -1.7390 nd        1 ABM     -0.580100
     17 C5         -1.4440    0.2880   -2.9140 ca        1 ABM     -0.204200
     18 C6         -1.7620    0.6000   -4.2730 ca        1 ABM      0.717200
     19 N6         -3.0290    1.0560   -4.5990 nh        1 ABM     -0.942500
     20 N1         -0.7820    0.4960   -5.2290 nb        1 ABM     -0.799000
     21 C2          0.4630    0.1360   -4.8090 ca        1 ABM      0.651900
     22 N3          0.9150   -0.1630   -3.5710 nb        1 ABM     -0.724000
     23 C4         -0.0640   -0.0870   -2.6180 ca        1 ABM      0.424800
     24 HM1        -2.4580   -1.1520    5.4250 hc        1 ABM      0.064367
     25 HM2        -2.2250   -2.1160    3.9220 hc        1 ABM      0.064367
     26 HM3        -0.8060   -1.6110    4.8990 hc        1 ABM      0.064367
     27 H5'1       -0.3630    1.0530    1.6210 h1        1 ABM      0.036200
     28 H5'2        1.0160    1.7750    2.6160 h1        1 ABM      0.036200
     29 H4'         1.9460   -0.7670    2.5140 h1        1 ABM      0.087700
     30 H3'         2.4470    1.7090    0.9450 h1        1 ABM      0.095700
     31 HO3'        3.9580   -0.6370    1.3580 ho        1 ABM      0.410000
     32 H2'         2.2270    0.9480   -1.2940 h1        1 ABM      0.075700
     33 HO2'        4.2290   -0.1390   -0.9520 ho        1 ABM      0.412000
     34 H1'         1.3700   -1.8600   -0.9650 h2        1 ABM      0.099700
     35 H8         -1.6320   -0.2470    0.3160 h5        1 ABM      0.185800
     36 HN61       -3.3050    1.0280   -5.5510 hn        1 ABM      0.424300
     37 HN62       -3.7360    0.8930   -3.9200 hn        1 ABM      0.424300
     38 H2          1.2210    0.0760   -5.6170 h5        1 ABM      0.035100
@<TRIPOS>BOND
     1    1    2 1   
     2    1    3 1   
     3    1    4 1   
     4    1    5 1   
     5    2   24 1   
     6    2   25 1   
     7    2   26 1   
     8    5    6 1   
     9    6    7 1   
    10    6   27 1   
    11    6   28 1   
    12    7    8 1   
    13    7    9 1   
    14    7   29 1   
    15    8   13 1   
    16    9   10 1   
    17    9   11 1   
    18    9   30 1   
    19   10   31 1   
    20   11   12 1   
    21   11   13 1   
    22   11   32 1   
    23   12   33 1   
    24   13   14 1   
    25   13   34 1   
    26   14   15 1   
    27   14   23 1   
    28   15   16 2   
    29   15   35 1   
    30   16   17 1   
    31   17   18 ar  
    32   17   23 ar  
    33   18   19 1   
    34   18   20 ar  
    35   19   36 1   
    36   19   37 1   
    37   20   21 ar  
    38   21   22 ar  
    39   21   38 1   
    40   22   23 ar  
@<TRIPOS>SUBSTRUCTURE
     1 ABM         1 TEMP              0 ****  ****    0 ROOT
