@<TRIPOS>MOLECULE
ABM
   38    35     1     0     0
SMALL
bcc


@<TRIPOS>ATOM
      1 P           1.6300   -2.1170    4.4870 p3        1 ABM      2.642000
      2 CM          2.7430   -1.3670    5.7110 c2        1 ABM     -0.904000
      3 O2P         0.2950   -2.4060    5.1310 o         1 ABM     -1.194500
      4 O3P         2.2340   -3.4050    3.9800 o         1 ABM     -1.194500
      5 O5'         1.4280   -1.1190    3.2790 os        1 ABM     -0.746000
      6 C5'         0.3380   -1.3280    2.4110 c3        1 ABM      0.045000
      7 C4'         0.0370   -0.0290    1.6440 c3        1 ABM     -0.050000
      8 O4'         0.4900   -0.1080    0.4310 os        1 ABM     -0.277000
      9 C3'        -1.4870    0.1630    1.4930 c3        1 ABM      0.004000
     10 O3'        -1.9080    1.1890    2.2570 oh        1 ABM     -0.370000
     11 C2'        -1.7180    0.4790   -0.0050 c3        1 ABM     -0.001000
     12 O2'        -2.5830    1.6840   -0.1510 oh        1 ABM     -0.318000
     13 C1'        -0.5400    0.7130   -0.4840 c3        1 ABM      0.121000
     14 N9         -0.4620    0.2630   -1.8310 n3        1 ABM     -0.184000
     15 C8         -0.3930   -1.0210   -2.2490 c1        1 ABM     -0.023000
     16 N7         -0.1560   -1.0150   -3.5800 n2        1 ABM     -0.139000
     17 C5         -0.0790    0.2800   -3.9880 c1        1 ABM     -0.228000
     18 C6          0.1480    0.8510   -5.2310 c1        1 ABM      0.208000
     19 N6          0.2030    0.1730   -6.4760 n3        1 ABM     -0.342000
     20 N1          0.1790    2.1870   -5.3600 n1        1 ABM     -0.274000
     21 C2         -0.0120    2.9830   -4.2670 c1        1 ABM      0.003000
     22 N3         -0.2350    2.4240   -3.0440 n1        1 ABM     -0.192000
     23 C4         -0.2670    1.0680   -2.9100 c1        1 ABM      0.061000
     24 HM1         2.8090   -1.9530    6.4940 ha        1 ABM      0.107000
     25 HM2         3.6310   -1.2490    5.3150 ha        1 ABM      0.107000
     26 HM3         2.3880   -0.4960    5.9840 ha        1 ABM      0.107000
     27 H5'1       -0.4490   -1.5890    2.9330 h1        1 ABM      0.067500
     28 H5'2        0.5590   -2.0390    1.7750 h1        1 ABM      0.067500
     29 H4'         0.4310    0.7380    2.1040 h1        1 ABM      0.130000
     30 H3'        -1.9570   -0.6590    1.7410 h1        1 ABM      0.127000
     31 HO3'       -2.5570    0.9100    2.7980 ho        1 ABM      0.287000
     32 H2'        -2.1230   -0.2880   -0.4570 h1        1 ABM      0.125000
     33 HO2'       -2.2290    2.3590    0.3070 ho        1 ABM      0.226000
     34 H1'        -0.3430    1.6710   -0.4370 h2        1 ABM      0.152000
     35 H8         -0.4890   -1.8130   -1.6870 DU        1 ABM      0.224000
     36 HN61       -0.2140   -0.6350   -6.5750 hn        1 ABM      0.222500
     37 HN62        0.6490    0.5470   -7.1810 hn        1 ABM      0.222500
     38 H2          0.0110    3.9550   -4.3620 ha        1 ABM      0.178000
@<TRIPOS>BOND
     1    1    3 1   
     2    1    4 1   
     3    1    5 1   
     4    2   24 1   
     5    2   25 1   
     6    2   26 1   
     7    5    6 1   
     8    6    7 1   
     9    6   27 1   
    10    6   28 1   
    11    7    8 1   
    12    7    9 1   
    13    7   29 1   
    14    8   13 1   
    15    9   10 1   
    16    9   11 1   
    17    9   30 1   
    18   10   31 1   
    19   11   12 1   
    20   11   13 1   
    21   11   32 1   
    22   12   33 1   
    23   13   14 1   
    24   13   34 1   
    25   14   15 1   
    26   14   23 1   
    27   15   16 1   
    28   16   17 1   
    29   17   23 1   
    30   18   19 1   
    31   18   20 1   
    32   19   36 1   
    33   19   37 1   
    34   21   22 1   
    35   21   38 1   
@<TRIPOS>SUBSTRUCTURE
     1 ABM         1 TEMP              0 ****  ****    0 ROOT
