@<TRIPOS>MOLECULE
ABN
   18    18     1     0     0
SMALL
bcc


@<TRIPOS>ATOM
      1 N          -0.0210    0.0000   -0.0420 n4        1 ABN     -0.845600
      2 C           1.4810    0.0010    0.0190 c3        1 ABN      0.176100
      3 C1          1.9530    0.0010    1.4290 ca        1 ABN     -0.204300
      4 C2          2.1920   -1.2130    2.0860 ca        1 ABN     -0.096500
      5 C3          2.6730   -1.2110    3.3940 ca        1 ABN     -0.117000
      6 C4          2.9170   -0.0010    4.0470 ca        1 ABN     -0.070000
      7 C5          2.6810    1.2100    3.3920 ca        1 ABN     -0.117000
      8 C6          2.2000    1.2140    2.0840 ca        1 ABN     -0.096500
      9 HN1        -0.3390    0.0000   -1.0150 hn        1 ABN      0.458133
     10 HN2        -0.3870   -0.8300    0.4340 hn        1 ABN      0.458133
     11 H1          1.8410   -0.9170   -0.5300 hx        1 ABN      0.112700
     12 H2A         1.8400    0.9210   -0.5290 hx        1 ABN      0.112700
     13 H2          2.0210   -2.1700    1.5680 ha        1 ABN      0.140000
     14 H3          2.8680   -2.1650    3.9090 ha        1 ABN      0.163000
     15 H4          3.3020   -0.0020    5.0810 ha        1 ABN      0.165000
     16 H5          2.8830    2.1640    3.9060 ha        1 ABN      0.163000
     17 H6          2.0350    2.1710    1.5660 ha        1 ABN      0.140000
     18 HN3        -0.3880    0.8310    0.4340 hn        1 ABN      0.458133
@<TRIPOS>BOND
     1    1    2 1   
     2    1    9 1   
     3    1   10 1   
     4    1   18 1   
     5    2    3 1   
     6    2   11 1   
     7    2   12 1   
     8    3    4 ar  
     9    3    8 ar  
    10    4    5 ar  
    11    4   13 1   
    12    5    6 ar  
    13    5   14 1   
    14    6    7 ar  
    15    6   15 1   
    16    7    8 ar  
    17    7   16 1   
    18    8   17 1   
@<TRIPOS>SUBSTRUCTURE
     1 ABN         1 TEMP              0 ****  ****    0 ROOT
