@<TRIPOS>MOLECULE
ABN
   18    18     1     0     0
SMALL
bcc


@<TRIPOS>ATOM
      1 N          -0.0220    0.0040   -0.0410 n4        1 ABN     -0.845600
      2 C           1.4800    0.0000    0.0190 c3        1 ABN      0.176100
      3 C1          1.9530   -0.0000    1.4290 ca        1 ABN     -0.204300
      4 C2          2.1940   -1.2140    2.0850 ca        1 ABN     -0.097000
      5 C3          2.6750   -1.2110    3.3930 ca        1 ABN     -0.117000
      6 C4          2.9180   -0.0010    4.0470 ca        1 ABN     -0.070000
      7 C5          2.6810    1.2090    3.3920 ca        1 ABN     -0.117000
      8 C6          2.1990    1.2130    2.0840 ca        1 ABN     -0.097000
      9 HN1        -0.3400    0.0040   -1.0140 hn        1 ABN      0.458133
     10 HN2        -0.3860    0.8350    0.4350 hn        1 ABN      0.458133
     11 H1          1.8370   -0.9200   -0.5290 hx        1 ABN      0.112700
     12 H2A         1.8410    0.9180   -0.5300 hx        1 ABN      0.112700
     13 H2          2.0230   -2.1710    1.5680 ha        1 ABN      0.140000
     14 H3          2.8720   -2.1660    3.9080 ha        1 ABN      0.163000
     15 H4          3.3040   -0.0020    5.0800 ha        1 ABN      0.165000
     16 H5          2.8820    2.1630    3.9050 ha        1 ABN      0.163000
     17 H6          2.0330    2.1700    1.5660 ha        1 ABN      0.140000
     18 HN3        -0.3900   -0.8260    0.4360 hn        1 ABN      0.458133
@<TRIPOS>BOND
     1    1    2 1   
     2    1    9 1   
     3    1   10 1   
     4    1   18 1   
     5    2    3 1   
     6    2   11 1   
     7    2   12 1   
     8    3    4 ar  
     9    3    8 ar  
    10    4    5 ar  
    11    4   13 1   
    12    5    6 ar  
    13    5   14 1   
    14    6    7 ar  
    15    6   15 1   
    16    7    8 ar  
    17    7   16 1   
    18    8   17 1   
@<TRIPOS>SUBSTRUCTURE
     1 ABN         1 TEMP              0 ****  ****    0 ROOT
