@<TRIPOS>MOLECULE
ABN
   17    17     1     0     0
SMALL
bcc


@<TRIPOS>ATOM
      1 N           0.4830   -0.4630    2.7650 n3        1 ABN     -0.916800
      2 C          -0.1690    0.5390    1.9520 c3        1 ABN      0.203100
      3 C1         -0.1130    0.2580    0.4790 ca        1 ABN     -0.095300
      4 C2         -1.2710    0.3740   -0.2960 ca        1 ABN     -0.118000
      5 C3         -1.2200    0.1490   -1.6710 ca        1 ABN     -0.133500
      6 C4         -0.0130   -0.1960   -2.2790 ca        1 ABN     -0.128000
      7 C5          1.1440   -0.3140   -1.5090 ca        1 ABN     -0.133500
      8 C6          1.0970   -0.0860   -0.1340 ca        1 ABN     -0.118000
      9 HN1         0.2440   -1.3860    2.4640 hn        1 ABN      0.351800
     10 HN2         0.2230   -0.3500    3.7250 hn        1 ABN      0.351800
     11 H1         -1.2520    0.6910    2.2480 h1        1 ABN      0.033700
     12 H2A         0.3620    1.5180    2.1450 h1        1 ABN      0.033700
     13 H2         -2.2270    0.6450    0.1770 ha        1 ABN      0.138000
     14 H3         -2.1330    0.2440   -2.2760 ha        1 ABN      0.131000
     15 H4          0.0270   -0.3740   -3.3630 ha        1 ABN      0.130000
     16 H5          2.0970   -0.5860   -1.9860 ha        1 ABN      0.131000
     17 H6          2.0110   -0.1760    0.4730 ha        1 ABN      0.138000
@<TRIPOS>BOND
     1    1    2 1   
     2    1    9 1   
     3    1   10 1   
     4    2    3 1   
     5    2   11 1   
     6    2   12 1   
     7    3    4 ar  
     8    3    8 ar  
     9    4    5 ar  
    10    4   13 1   
    11    5    6 ar  
    12    5   14 1   
    13    6    7 ar  
    14    6   15 1   
    15    7    8 ar  
    16    7   16 1   
    17    8   17 1   
@<TRIPOS>SUBSTRUCTURE
     1 ABN         1 TEMP              0 ****  ****    0 ROOT
