@<TRIPOS>MOLECULE
ABN
   18    18     1     0     0
SMALL
bcc


@<TRIPOS>ATOM
      1 N          -0.0220    0.0040   -0.0420 nz        1 ABN     -0.845600
      2 C           1.4800    0.0030    0.0190 c3        1 ABN      0.176100
      3 C1          1.9530    0.0010    1.4290 ca        1 ABN     -0.204300
      4 C2          2.1940   -1.2140    2.0840 ca        1 ABN     -0.096500
      5 C3          2.6750   -1.2130    3.3910 ca        1 ABN     -0.117000
      6 C4          2.9180   -0.0040    4.0470 ca        1 ABN     -0.070000
      7 C5          2.6810    1.2070    3.3940 ca        1 ABN     -0.117000
      8 C6          2.1990    1.2130    2.0860 ca        1 ABN     -0.096500
      9 HN1        -0.3400    0.0050   -1.0140 hn        1 ABN      0.458133
     10 HN2        -0.3870    0.8340    0.4360 hn        1 ABN      0.458133
     11 H1          1.8390   -0.9150   -0.5310 hx        1 ABN      0.112700
     12 H2A         1.8400    0.9230   -0.5280 hx        1 ABN      0.112700
     13 H2          2.0230   -2.1700    1.5650 ha        1 ABN      0.140000
     14 H3          2.8710   -2.1680    3.9050 ha        1 ABN      0.163000
     15 H4          3.3040   -0.0060    5.0800 ha        1 ABN      0.165000
     16 H5          2.8810    2.1600    3.9090 ha        1 ABN      0.163000
     17 H6          2.0340    2.1710    1.5690 ha        1 ABN      0.140000
     18 HN3        -0.3880   -0.8270    0.4340 hn        1 ABN      0.458133
@<TRIPOS>BOND
     1    1    2 1   
     2    1    9 1   
     3    1   10 1   
     4    1   18 1   
     5    2    3 1   
     6    2   11 1   
     7    2   12 1   
     8    3    4 ar  
     9    3    8 ar  
    10    4    5 ar  
    11    4   13 1   
    12    5    6 ar  
    13    5   14 1   
    14    6    7 ar  
    15    6   15 1   
    16    7    8 ar  
    17    7   16 1   
    18    8   17 1   
@<TRIPOS>SUBSTRUCTURE
     1 ABN         1 TEMP              0 ****  ****    0 ROOT
