@<TRIPOS>MOLECULE
ABN
   17    15     1     0     0
SMALL
bcc


@<TRIPOS>ATOM
      1 N          -1.8480    0.0060   -1.7950 n3        1 ABN     -0.349000
      2 C          -0.4220    0.0060   -1.7950 c3        1 ABN     -0.041000
      3 C1          0.0820    0.0060   -0.3690 c2        1 ABN     -0.088000
      4 C2          0.1630    1.1960    0.3370 c2        1 ABN     -0.109000
      5 C3          0.6250    1.1960    1.6440 c1        1 ABN     -0.134000
      6 C4          1.0060    0.0060    2.2450 c1        1 ABN     -0.130500
      7 C5          0.9240   -1.1840    1.5390 c1        1 ABN     -0.130500
      8 C6          0.4620   -1.1840    0.2320 c1        1 ABN     -0.127000
      9 HN1        -2.1520   -0.7840   -2.1340 hn        1 ABN      0.147000
     10 HN2        -2.1520    0.6950   -2.3100 hn        1 ABN      0.147000
     11 H1         -0.0970   -0.7910   -2.2550 h1        1 ABN      0.073000
     12 H2A        -0.0970    0.8030   -2.2550 h1        1 ABN      0.073000
     13 H2         -0.1040    2.0340   -0.0860 ha        1 ABN      0.147000
     14 H3          0.6830    2.0340    2.1410 ha        1 ABN      0.132000
     15 H4          1.3310    0.0070    3.1650 ha        1 ABN      0.130000
     16 H5          1.1920   -2.0220    1.9620 ha        1 ABN      0.130000
     17 H6          0.4050   -2.0220   -0.2650 ha        1 ABN      0.129000
@<TRIPOS>BOND
     1    1    2 1   
     2    1    9 1   
     3    1   10 1   
     4    2    3 1   
     5    2   11 1   
     6    2   12 1   
     7    3    4 1   
     8    3    8 1   
     9    4    5 1   
    10    4   13 1   
    11    5   14 1   
    12    6    7 1   
    13    6   15 1   
    14    7   16 1   
    15    8   17 1   
@<TRIPOS>SUBSTRUCTURE
     1 ABN         1 TEMP              0 ****  ****    0 ROOT
