@<TRIPOS>MOLECULE
ABO
   43    33     1     0     0
SMALL
bcc


@<TRIPOS>ATOM
      1 C18         6.1160   -0.3230   -3.5820 c3        1 ABO     -0.067000
      2 O17         4.9230   -1.0050   -3.8970 os        1 ABO     -0.211000
      3 C12         3.7730   -0.2020   -3.8300 c2        1 ABO      0.056000
      4 C11         2.9770   -0.2260   -2.6960 c2        1 ABO     -0.112000
      5 C13         3.3980    0.5640   -4.9230 c1        1 ABO      0.028000
      6 O16         4.2040    0.5860   -6.0760 o         1 ABO     -0.256000
      7 C14         2.2280    1.3050   -4.8820 c2        1 ABO     -0.184000
      8 C15         1.4320    1.2810   -3.7470 c1        1 ABO     -0.109000
      9 C10         1.8070    0.5160   -2.6540 c1        1 ABO     -0.052000
     10 C8          0.9950    0.4670   -1.5310 c1        1 ABO     -0.039333
     11 C9          1.2110    1.2740   -0.4270 c1        1 ABO     -0.114000
     12 C7         -0.1210   -0.3510   -1.5830 c1        1 ABO     -0.114000
     13 C6         -1.0200   -0.3620   -0.5290 c1        1 ABO     -0.114000
     14 C5         -0.8000    0.4580    0.5940 c1        1 ABO     -0.039333
     15 C4          0.2970    1.2620    0.6440 c1        1 ABO     -0.039333
     16 N3          0.2610    1.9510    1.8270 n1        1 ABO     -0.188000
     17 N1         -0.8690    1.5650    2.5110 n2        1 ABO      0.021000
     18 C2         -1.5230    0.6500    1.7580 c1        1 ABO     -0.068000
     19 C19        -2.5100    0.1480    2.5910 c2        1 ABO      0.086000
     20 N21        -3.8660    0.0630    2.5890 n2        1 ABO     -0.236000
     21 C22        -4.2460   -0.6130    3.7010 c1        1 ABO     -0.023000
     22 C27        -5.5130   -0.9620    4.2060 c1        1 ABO     -0.117250
     23 C26        -5.6160   -1.6450    5.4070 c1        1 ABO     -0.117250
     24 C25        -4.4720   -1.9850    6.1120 c1        1 ABO     -0.117250
     25 C24        -3.2250   -1.6420    5.6150 c1        1 ABO     -0.117250
     26 C23        -3.1200   -0.9470    4.3950 c1        1 ABO     -0.077000
     27 N20        -2.0500   -0.4770    3.7070 n1        1 ABO     -0.105000
     28 H181        6.0170    0.1230   -2.7130 h1        1 ABO      0.087333
     29 H182        6.8580   -0.9630   -3.5380 h1        1 ABO      0.087333
     30 H183        6.3020    0.3480   -4.2740 h1        1 ABO      0.087333
     31 H11         3.2400   -0.7650   -1.9260 ha        1 ABO      0.157000
     32 H16         3.7460    0.2590   -6.7650 ho        1 ABO      0.221000
     33 H14         1.9640    1.8440   -5.6510 ha        1 ABO      0.137000
     34 H15         0.6080    1.8040   -3.7180 ha        1 ABO      0.139000
     35 H9          2.0090    1.8360   -0.3810 ha        1 ABO      0.142667
     36 H7         -0.2860   -0.9020   -2.3710 ha        1 ABO      0.142667
     37 H6         -1.8070   -0.9390   -0.5660 ha        1 ABO      0.142667
     38 H3          0.8790    2.5580    2.1120 DU        1 ABO      0.269500
     39 H21        -4.4240    0.4050    1.9530 DU        1 ABO      0.269500
     40 H27        -6.3190   -0.7230    3.7100 ha        1 ABO      0.137000
     41 H26        -6.4940   -1.8870    5.7570 ha        1 ABO      0.137000
     42 H25        -4.5450   -2.4660    6.9580 ha        1 ABO      0.137000
     43 H24        -2.4190   -1.8810    6.1120 ha        1 ABO      0.137000
@<TRIPOS>BOND
     1    1    2 1   
     2    1   28 1   
     3    1   29 1   
     4    1   30 1   
     5    2    3 1   
     6    3    4 1   
     7    3    5 1   
     8    4    9 1   
     9    4   31 1   
    10    5    7 1   
    11    6   32 1   
    12    7    8 1   
    13    7   33 1   
    14    8   34 1   
    15   10   12 1   
    16   11   15 1   
    17   11   35 1   
    18   12   36 1   
    19   13   14 1   
    20   13   37 1   
    21   16   17 1   
    22   17   18 1   
    23   18   19 1   
    24   19   20 1   
    25   19   27 1   
    26   20   21 1   
    27   21   26 1   
    28   22   23 1   
    29   22   40 1   
    30   23   41 1   
    31   24   25 1   
    32   24   42 1   
    33   25   43 1   
@<TRIPOS>SUBSTRUCTURE
     1 ABO         1 TEMP              0 ****  ****    0 ROOT
