@<TRIPOS>MOLECULE
ABO
   43    47     1     0     0
SMALL
bcc


@<TRIPOS>ATOM
      1 C18        -5.3680    3.0430   -1.2370 c3        1 ABO      0.120700
      2 O17        -6.1150    2.0280   -0.5770 os        1 ABO     -0.348900
      3 C12        -5.3900    0.9420   -0.1150 ca        1 ABO      0.042100
      4 C11        -4.0080    0.8000   -0.2190 ca        1 ABO     -0.147000
      5 C13        -6.1670   -0.0670    0.5020 ca        1 ABO      0.118100
      6 O16        -7.5320    0.0170    0.6360 oh        1 ABO     -0.493100
      7 C14        -5.5410   -1.2120    1.0080 ca        1 ABO     -0.140000
      8 C15        -4.1600   -1.3480    0.8950 ca        1 ABO     -0.112000
      9 C10        -3.3860   -0.3520    0.2870 cp        1 ABO     -0.051000
     10 C8         -1.9350   -0.5060    0.1740 cp        1 ABO      0.005000
     11 C9         -1.3990   -1.7400   -0.1930 ca        1 ABO     -0.137000
     12 C7         -1.0950    0.6020    0.4400 ca        1 ABO     -0.154000
     13 C6          0.2850    0.5160    0.3480 ca        1 ABO     -0.047000
     14 C5          0.8520   -0.7020   -0.0250 ca        1 ABO     -0.172900
     15 C4         -0.0060   -1.8330   -0.2940 ca        1 ABO     -0.056200
     16 N3          0.8500   -2.9030   -0.6110 na        1 ABO     -0.007100
     17 N1          2.1300   -2.5360   -0.6060 nc        1 ABO     -0.512100
     18 C2          2.1970   -1.2250   -0.2420 cd        1 ABO      0.317600
     19 C19         3.4370   -0.4810   -0.0970 cd        1 ABO      0.415500
     20 N21         4.7000   -1.0930   -0.2880 na        1 ABO     -0.265300
     21 C22         5.6560   -0.1010   -0.0720 ca        1 ABO     -0.070200
     22 C27         7.0560   -0.1040   -0.1170 ca        1 ABO     -0.134000
     23 C26         7.7050    1.0890    0.1580 ca        1 ABO     -0.112000
     24 C25         6.9960    2.2650    0.4700 ca        1 ABO     -0.154000
     25 C24         5.6120    2.2940    0.5200 ca        1 ABO     -0.070000
     26 C23         4.9120    1.1080    0.2490 ca        1 ABO      0.065400
     27 N20         3.5340    0.8320    0.2240 nc        1 ABO     -0.561100
     28 H181       -6.1480    3.7890   -1.5320 h1        1 ABO      0.047033
     29 H182       -4.6260    3.5010   -0.5380 h1        1 ABO      0.047033
     30 H183       -4.8540    2.6300   -2.1390 h1        1 ABO      0.047033
     31 H11        -3.3980    1.5770   -0.7020 ha        1 ABO      0.145000
     32 H16        -7.8220    0.8560    0.2470 ho        1 ABO      0.438000
     33 H14        -6.1510   -1.9890    1.4900 ha        1 ABO      0.154000
     34 H15        -3.6710   -2.2480    1.3000 ha        1 ABO      0.139000
     35 H9         -2.0470   -2.6020   -0.4030 ha        1 ABO      0.144000
     36 H7         -1.5590    1.5530    0.7410 ha        1 ABO      0.139000
     37 H6          0.9240    1.3870    0.5650 ha        1 ABO      0.168000
     38 H3          0.5870   -3.7910   -0.9690 hn        1 ABO      0.327700
     39 H21         4.8650   -2.0350   -0.5230 hn        1 ABO      0.316700
     40 H27         7.6150   -1.0180   -0.3590 ha        1 ABO      0.136000
     41 H26         8.8050    1.1230    0.1320 ha        1 ABO      0.132000
     42 H25         7.5640    3.1840    0.6790 ha        1 ABO      0.133000
     43 H24         5.0660    3.2160    0.7650 ha        1 ABO      0.146000
@<TRIPOS>BOND
     1    1    2 1   
     2    1   28 1   
     3    1   29 1   
     4    1   30 1   
     5    2    3 1   
     6    3    4 ar  
     7    3    5 ar  
     8    4    9 ar  
     9    4   31 1   
    10    5    6 1   
    11    5    7 ar  
    12    6   32 1   
    13    7    8 ar  
    14    7   33 1   
    15    8    9 ar  
    16    8   34 1   
    17    9   10 1   
    18   10   11 ar  
    19   10   12 ar  
    20   11   15 ar  
    21   11   35 1   
    22   12   13 ar  
    23   12   36 1   
    24   13   14 ar  
    25   13   37 1   
    26   14   15 ar  
    27   14   18 1   
    28   15   16 1   
    29   16   17 1   
    30   16   38 1   
    31   17   18 2   
    32   18   19 1   
    33   19   20 1   
    34   19   27 2   
    35   20   21 1   
    36   20   39 1   
    37   21   22 ar  
    38   21   26 ar  
    39   22   23 ar  
    40   22   40 1   
    41   23   24 ar  
    42   23   41 1   
    43   24   25 ar  
    44   24   42 1   
    45   25   26 ar  
    46   25   43 1   
    47   26   27 1   
@<TRIPOS>SUBSTRUCTURE
     1 ABO         1 TEMP              0 ****  ****    0 ROOT
