@<TRIPOS>MOLECULE
ABO
   43    47     1     0     0
SMALL
bcc


@<TRIPOS>ATOM
      1 C18         0.2910    0.1930   -0.3800 c3        1 ABO      0.120700
      2 O17         1.6600    0.1410    0.0040 os        1 ABO     -0.348900
      3 C12         1.9080    0.0980    1.3670 ca        1 ABO      0.042100
      4 C11         0.9290    0.0680    2.3580 ca        1 ABO     -0.147000
      5 C13         3.2790    0.0830    1.7160 ca        1 ABO      0.118100
      6 O16         4.2890    0.1090    0.7860 oh        1 ABO     -0.493100
      7 C14         3.6490    0.0390    3.0660 ca        1 ABO     -0.140000
      8 C15         2.6650    0.0150    4.0500 ca        1 ABO     -0.112000
      9 C10         1.3070    0.0280    3.7090 cp        1 ABO     -0.051000
     10 C8          0.2810    0.0020    4.7520 cp        1 ABO      0.005000
     11 C9          0.4360    0.7880    5.8920 ca        1 ABO     -0.137000
     12 C7         -0.8580   -0.8240    4.5880 ca        1 ABO     -0.154000
     13 C6         -1.8630   -0.8890    5.5400 ca        1 ABO     -0.047000
     14 C5         -1.7400   -0.1080    6.6880 ca        1 ABO     -0.172900
     15 C4         -0.5770    0.7320    6.8570 ca        1 ABO     -0.056200
     16 N3         -0.7290    1.3610    8.1060 na        1 ABO     -0.007100
     17 N1         -1.8760    1.0290    8.6950 nc        1 ABO     -0.512100
     18 C2         -2.5210    0.1320    7.8970 cd        1 ABO      0.317600
     19 C19        -3.7970   -0.4820    8.2270 cd        1 ABO      0.415500
     20 N21        -4.4580   -0.2180    9.4510 na        1 ABO     -0.265300
     21 C22        -5.6360   -0.9640    9.4330 ca        1 ABO     -0.070200
     22 C27        -6.6830   -1.1090   10.3520 ca        1 ABO     -0.134000
     23 C26        -7.7250   -1.9530   10.0020 ca        1 ABO     -0.112000
     24 C25        -7.7420   -2.6420    8.7750 ca        1 ABO     -0.154000
     25 C24        -6.7190   -2.5140    7.8490 ca        1 ABO     -0.070000
     26 C23        -5.6420   -1.6700    8.1610 ca        1 ABO      0.065400
     27 N20        -4.4810   -1.3450    7.4370 nc        1 ABO     -0.561100
     28 H181       -0.2460   -0.7270   -0.0440 h1        1 ABO      0.047033
     29 H182       -0.2000    1.1070    0.0350 h1        1 ABO      0.047033
     30 H183        0.3360    0.2390   -1.4970 h1        1 ABO      0.047033
     31 H11        -0.1390    0.0840    2.0940 ha        1 ABO      0.145000
     32 H16         3.8860    0.1350   -0.0960 ho        1 ABO      0.438000
     33 H14         4.7170    0.0230    3.3290 ha        1 ABO      0.154000
     34 H15         2.9610   -0.0260    5.1090 ha        1 ABO      0.139000
     35 H9          1.3170    1.4310    6.0230 ha        1 ABO      0.144000
     36 H7         -0.9340   -1.4400    3.6780 ha        1 ABO      0.139000
     37 H6         -2.7380   -1.5420    5.3980 ha        1 ABO      0.168000
     38 H3         -0.1740    2.0980    8.4740 hn        1 ABO      0.327700
     39 H21        -4.1410    0.3750   10.1710 hn        1 ABO      0.316700
     40 H27        -6.6760   -0.5750   11.3120 ha        1 ABO      0.136000
     41 H26        -8.5640   -2.0910   10.7010 ha        1 ABO      0.132000
     42 H25        -8.5960   -3.2990    8.5500 ha        1 ABO      0.133000
     43 H24        -6.7400   -3.0560    6.8930 ha        1 ABO      0.146000
@<TRIPOS>BOND
     1    1    2 1   
     2    1   28 1   
     3    1   29 1   
     4    1   30 1   
     5    2    3 1   
     6    3    4 ar  
     7    3    5 ar  
     8    4    9 ar  
     9    4   31 1   
    10    5    6 1   
    11    5    7 ar  
    12    6   32 1   
    13    7    8 ar  
    14    7   33 1   
    15    8    9 ar  
    16    8   34 1   
    17    9   10 1   
    18   10   11 ar  
    19   10   12 ar  
    20   11   15 ar  
    21   11   35 1   
    22   12   13 ar  
    23   12   36 1   
    24   13   14 ar  
    25   13   37 1   
    26   14   15 ar  
    27   14   18 1   
    28   15   16 1   
    29   16   17 1   
    30   16   38 1   
    31   17   18 2   
    32   18   19 1   
    33   19   20 1   
    34   19   27 2   
    35   20   21 1   
    36   20   39 1   
    37   21   22 ar  
    38   21   26 ar  
    39   22   23 ar  
    40   22   40 1   
    41   23   24 ar  
    42   23   41 1   
    43   24   25 ar  
    44   24   42 1   
    45   25   26 ar  
    46   25   43 1   
    47   26   27 1   
@<TRIPOS>SUBSTRUCTURE
     1 ABO         1 TEMP              0 ****  ****    0 ROOT
