@<TRIPOS>MOLECULE
ABP
   39    41     1     0     0
SMALL
bcc


@<TRIPOS>ATOM
      1 PB          0.0000    0.0000    0.0000 p5        1 ABP      0.799900
      2 O1B         1.4800    0.0000    0.0000 o         1 ABP     -0.599500
      3 O2B        -0.5360    0.0000    1.5180 o         1 ABP     -0.599500
      4 O3B        -0.5370   -1.3130   -0.7580 o         1 ABP     -0.599500
      5 PA          0.0340    1.2510   -2.2610 p5        1 ABP      0.883800
      6 O1A        -0.4610    0.0250   -2.9240 o         1 ABP     -0.674500
      7 O2A         1.6430    1.2290   -2.2240 o         1 ABP     -0.674500
      8 O3A        -0.5360    1.3150   -0.7580 os        1 ABP     -0.462800
      9 O5'        -0.4650    2.5430   -3.0810 os        1 ABP     -0.466200
     10 C5'         0.0700    2.4280   -4.4000 c3        1 ABP      0.247400
     11 C4'        -0.3710    3.6320   -5.2360 c3        1 ABP      0.147100
     12 O4'         0.1330    4.8560   -4.6590 os        1 ABP     -0.336600
     13 C3'         0.2600    3.5710   -6.6450 c3        1 ABP      0.124100
     14 O3'        -0.6700    3.0300   -7.5860 oh        1 ABP     -0.569800
     15 C2'         0.5760    5.0470   -6.9800 c3        1 ABP      0.117100
     16 O2'        -0.1470    5.4630   -8.1400 oh        1 ABP     -0.553800
     17 C1'         0.1020    5.8230   -5.7320 c3        1 ABP      0.141800
     18 N9          1.0130    6.9320   -5.4450 na        1 ABP      0.207000
     19 C8          0.8960    8.2120   -5.9020 cc        1 ABP      0.225800
     20 Br8        -0.4900    8.8410   -7.0230 br        1 ABP     -0.422300
     21 N7          1.8800    8.9370   -5.4500 nd        1 ABP     -0.592100
     22 C5          2.6840    8.1720   -4.6730 ca        1 ABP     -0.230200
     23 C6          3.8650    8.4010   -3.9490 ca        1 ABP      0.545200
     24 N6          4.4500    9.6560   -3.9260 nv        1 ABP     -0.552500
     25 N1          4.4070    7.3860   -3.2840 nb        1 ABP     -0.767000
     26 C2          3.8570    6.1860   -3.3000 ca        1 ABP      0.624900
     27 N3          2.7530    5.9230   -3.9690 nb        1 ABP     -0.582000
     28 C4          2.1410    6.8760   -4.6650 ca        1 ABP      0.243800
     29 H5'1        1.1520    2.4000   -4.3500 h1        1 ABP      0.011700
     30 H5'2       -0.2940    1.5170   -4.8600 h1        1 ABP      0.011700
     31 H4'        -1.4510    3.6710   -5.3110 h1        1 ABP      0.021700
     32 H3'         1.1720    2.9860   -6.6240 h1        1 ABP      0.020700
     33 HO3'       -0.2580    2.3340   -8.0700 ho        1 ABP      0.366000
     34 H2'         1.6420    5.1800   -7.1230 h1        1 ABP      0.010700
     35 HO2'        0.4440    5.5270   -8.8730 ho        1 ABP      0.364000
     36 H1'        -0.9080    6.1860   -5.8790 h2        1 ABP      0.054700
     37 HN61        4.0310   10.4120   -4.4290 hn        1 ABP      0.257300
     38 HN62        5.2910    9.8060   -3.4050 hn        1 ABP      0.257300
     39 H2          4.3320    5.3870   -2.7430 h5        1 ABP      0.001100
@<TRIPOS>BOND
     1    1    2 1   
     2    1    3 1   
     3    1    4 1   
     4    1    8 1   
     5    5    6 1   
     6    5    7 1   
     7    5    8 1   
     8    5    9 1   
     9    9   10 1   
    10   10   11 1   
    11   10   29 1   
    12   10   30 1   
    13   11   12 1   
    14   11   13 1   
    15   11   31 1   
    16   12   17 1   
    17   13   14 1   
    18   13   15 1   
    19   13   32 1   
    20   14   33 1   
    21   15   16 1   
    22   15   17 1   
    23   15   34 1   
    24   16   35 1   
    25   17   18 1   
    26   17   36 1   
    27   18   19 1   
    28   18   28 1   
    29   19   20 1   
    30   19   21 2   
    31   21   22 1   
    32   22   23 ar  
    33   22   28 ar  
    34   23   24 1   
    35   23   25 ar  
    36   24   37 1   
    37   24   38 1   
    38   25   26 ar  
    39   26   27 ar  
    40   26   39 1   
    41   27   28 ar  
@<TRIPOS>SUBSTRUCTURE
     1 ABP         1 TEMP              0 ****  ****    0 ROOT
