@<TRIPOS>MOLECULE
ABQ
   60    59     1     0     0
SMALL
bcc


@<TRIPOS>ATOM
      1 C1         -1.7630   -1.3350   -0.4300 c1        1 ABQ      0.000000
      2 C2         -1.2480   -3.9580    1.1070 c2        1 ABQ      0.023000
      3 C3         -2.5590   -2.1680   -1.0850 c2        1 ABQ     -0.229000
      4 C4         -1.9550   -4.4060    0.0510 c2        1 ABQ     -0.282000
      5 C5          0.6340    5.8440   -0.7480 c1        1 ABQ      0.198000
      6 C6          0.8550    3.3910   -0.0880 c2        1 ABQ      0.034000
      7 C7          0.5520    6.8150    5.4810 c2        1 ABQ     -0.048000
      8 C8          5.1460    7.8410    4.7470 c1        1 ABQ      0.505000
      9 C9          2.0350    6.1180    3.7990 c3        1 ABQ     -0.109000
     10 C10         0.6310    6.0590    4.3440 c2        1 ABQ     -0.160000
     11 C11        -0.9950   -0.4100    0.0620 c2        1 ABQ     -0.055000
     12 C12        -2.6420   -3.5850   -0.9120 c2        1 ABQ      0.429000
     13 C13        -0.2860    4.5380    2.4980 c2        1 ABQ     -0.059000
     14 C14         2.7270    7.0570    4.8090 c2        1 ABQ      0.427000
     15 C15         0.7730    2.8690    1.1830 c2        1 ABQ     -0.032000
     16 C16         2.2190    6.6630    2.3650 c2        1 ABQ      0.087000
     17 C18        -2.4520   -0.1080    2.0630 c3        1 ABQ     -0.021000
     18 C19         0.1200    0.2910    3.2870 c2        1 ABQ     -0.185000
     19 C20        -1.3000    0.4710    1.2320 c3        1 ABQ     -0.063000
     20 C21        -0.0420    0.7400    2.0300 c2        1 ABQ     -0.072000
     21 C22         1.3020    8.7300    7.8600 c3        1 ABQ     -0.324000
     22 C23         3.8320    6.6400    9.5190 c3        1 ABQ     -0.269000
     23 N25         0.7230    4.7100   -0.4030 n2        1 ABQ     -0.331000
     24 N26         4.0030    7.4350    4.7360 n2        1 ABQ     -0.398000
     25 N27         3.3190    6.5260    1.7020 n2        1 ABQ     -0.237000
     26 N28         0.6200    3.6390    2.3720 n2        1 ABQ     -0.161000
     27 N29         1.8100    7.4400    5.7870 n3        1 ABQ     -0.125000
     28 N30         1.0520    7.2210    1.8140 n3        1 ABQ     -0.333000
     29 N31         0.9790    1.4470    1.3130 n3        1 ABQ     -0.216000
     30 O33        -2.7740    0.6970    3.1690 oh        1 ABQ     -0.296000
     31 F34        -3.4400   -4.2280   -1.7600 f         1 ABQ      0.007000
     32 H1         -0.0090   -0.2230   -0.4300 ha        1 ABQ      0.223000
     33 H2         -0.7510   -4.6680    1.7940 ha        1 ABQ      0.158500
     34 H3         -3.2260   -1.7440   -1.8740 ha        1 ABQ      0.210000
     35 H4         -2.0590   -5.5020   -0.1150 ha        1 ABQ      0.205000
     36 H5         -1.0420    4.8280    1.7330 h4        1 ABQ      0.158000
     37 H6          1.0910    2.7370   -0.9560 h4        1 ABQ      0.180000
     38 H7         -0.3120    6.9790    6.1430 h4        1 ABQ      0.235000
     39 H8          4.0440    5.9870    2.1200 hn        1 ABQ      0.173000
     40 H18        -1.6540    1.4580    0.7990 hc        1 ABQ      0.138000
     41 H18A       -2.1640   -1.1010    2.5060 h1        1 ABQ      0.090500
     42 H19         1.0210    0.5030    3.8810 ha        1 ABQ      0.144000
     43 H19A       -3.2420    1.4780    2.8450 ho        1 ABQ      0.216000
     44 H20        -3.3450   -0.2480    1.3930 h1        1 ABQ      0.090500
     45 H21        -0.6440   -0.3010    3.8100 ha        1 ABQ      0.144000
     46 H22         0.2380    8.3880    7.8410 hc        1 ABQ      0.162000
     47 H22A        1.7720    8.4180    8.8420 hc        1 ABQ      0.162000
     48 H22B        1.3270    9.8600    7.8550 hc        1 ABQ      0.162000
     49 H23         3.5720    6.9940    8.4960 hc        1 ABQ      0.067750
     50 H23A        4.8750    6.9410    9.7600 hc        1 ABQ      0.067750
     51 H23B        3.1380    7.0960   10.2580 hc        1 ABQ      0.067750
     52 H24         3.7470    5.5320    9.5650 hc        1 ABQ      0.067750
     53 HN30        2.5050    5.0890    3.8620 hc        1 ABQ      0.213000
     54 HN3A        0.6110    7.8970    2.3990 hn        1 ABQ      0.221500
     55 HN31        1.8810    1.2780    1.7300 hn        1 ABQ      0.197000
     56 C24         2.1920    8.2800    6.8090 c1        1 ABQ      0.073000
     57 O32        -1.5870    5.2790    4.3310 o         1 ABQ     -0.221000
     58 H303        1.1350    7.5230    0.8580 hn        1 ABQ      0.221500
     59 H312       -1.1320   -2.8920    1.3580 ha        1 ABQ      0.158500
     60 C17        -0.4830    5.2870    3.7810 c2        1 ABQ      0.311000
@<TRIPOS>BOND
     1    1    3 1   
     2    1   11 1   
     3    2    4 1   
     4    2   33 1   
     5    2   59 1   
     6    3   12 1   
     7    3   34 1   
     8    4   12 1   
     9    4   35 1   
    10    5   23 1   
    11    6   15 1   
    12    6   23 1   
    13    6   37 1   
    14    7   10 1   
    15    7   27 1   
    16    7   38 1   
    17    8   24 1   
    18    9   10 1   
    19    9   14 1   
    20    9   16 1   
    21    9   53 1   
    22   10   60 1   
    23   11   19 1   
    24   11   32 1   
    25   12   31 1   
    26   13   26 1   
    27   13   36 1   
    28   13   60 1   
    29   14   24 1   
    30   14   27 1   
    31   15   26 1   
    32   15   29 1   
    33   16   25 1   
    34   16   28 1   
    35   17   19 1   
    36   17   30 1   
    37   17   41 1   
    38   17   44 1   
    39   18   20 1   
    40   18   42 1   
    41   18   45 1   
    42   19   20 1   
    43   19   40 1   
    44   20   29 1   
    45   21   46 1   
    46   21   47 1   
    47   21   48 1   
    48   21   56 1   
    49   22   49 1   
    50   22   50 1   
    51   22   51 1   
    52   22   52 1   
    53   25   39 1   
    54   27   56 1   
    55   28   54 1   
    56   28   58 1   
    57   29   55 1   
    58   30   43 1   
    59   57   60 1   
@<TRIPOS>SUBSTRUCTURE
     1 ABQ         1 TEMP              0 ****  ****    0 ROOT
