@<TRIPOS>MOLECULE
ABQ
   58    62     1     0     0
SMALL
bcc


@<TRIPOS>ATOM
      1 C1          3.9560   -2.4620    0.8700 ca        1 ABQ     -0.098000
      2 C2          3.3020   -1.9020   -1.3890 ca        1 ABQ     -0.098000
      3 C3          3.3250   -3.6970    0.7560 ca        1 ABQ     -0.163500
      4 C4          2.6660   -3.1300   -1.5240 ca        1 ABQ     -0.163500
      5 C5         -0.1940    3.8000    1.3450 ca        1 ABQ      0.277900
      6 C6          1.8910    2.8600    1.5180 ca        1 ABQ      0.277900
      7 C7         -3.3900    1.1320   -1.3460 cc        1 ABQ     -0.049100
      8 C8         -3.5310   -1.9670    1.8910 ca        1 ABQ      0.680900
      9 C9         -2.8780    0.4080    0.7610 ca        1 ABQ     -0.333400
     10 C10        -2.7230    1.4980   -0.1690 cd        1 ABQ     -0.190400
     11 C11         3.9530   -1.5560   -0.1970 ca        1 ABQ     -0.105300
     12 C12         2.6770   -4.0350   -0.4460 ca        1 ABQ      0.132900
     13 C13        -0.6150    2.7280    0.5120 ca        1 ABQ      0.241500
     14 C14        -3.6340   -0.6240    0.0640 ca        1 ABQ      0.473800
     15 C15         1.4880    1.7640    0.6700 ca        1 ABQ      0.497900
     16 C16        -2.5400    0.1340    2.1260 ca        1 ABQ      0.734200
     17 C18         5.5540    0.0500   -1.2660 c3        1 ABQ      0.124400
     18 C19         3.7940    1.5920   -1.4490 c3        1 ABQ      0.089400
     19 C20         4.6460   -0.2430   -0.0650 c3        1 ABQ     -0.042400
     20 C21         3.6940    0.9900   -0.0230 c3        1 ABQ      0.170500
     21 C22        -5.9370   -0.1230   -2.6820 c3        1 ABQ     -0.112100
     22 C23        -3.8080   -1.1340   -3.4930 c3        1 ABQ     -0.112100
     23 N25         1.0570    3.8570    1.8430 nb        1 ABQ     -0.614000
     24 N26        -3.9670   -1.8310    0.6210 nb        1 ABQ     -0.739000
     25 N27        -2.8510   -1.0870    2.6740 nb        1 ABQ     -0.789000
     26 N28         0.2150    1.7200    0.1630 nb        1 ABQ     -0.650000
     27 N29        -3.9340   -0.1450   -1.2230 na        1 ABQ     -0.155100
     28 N30        -1.9700    1.1070    2.9210 nh        1 ABQ     -0.951500
     29 N31         2.3630    0.6770    0.4510 nh        1 ABQ     -0.801900
     30 O33         4.8950    0.9860   -2.1230 os        1 ABQ     -0.417600
     31 F34         2.0620   -5.2360   -0.5670 f         1 ABQ     -0.136900
     32 H1          4.4590   -2.1990    1.8140 ha        1 ABQ      0.144500
     33 H2          3.3050   -1.1880   -2.2310 ha        1 ABQ      0.144500
     34 H3          3.3250   -4.4080    1.5940 ha        1 ABQ      0.152000
     35 H4          2.1560   -3.4010   -2.4590 ha        1 ABQ      0.152000
     36 H5         -0.8800    4.6290    1.5930 h4        1 ABQ      0.055100
     37 H6          2.9080    2.9160    1.9430 h4        1 ABQ      0.040100
     38 H7         -3.5040    1.7040   -2.2710 h4        1 ABQ      0.182000
     39 H8         -3.7640   -2.9390    2.3770 h5        1 ABQ      0.051100
     40 H18         6.5210    0.5120   -0.9350 h1        1 ABQ      0.058700
     41 H18A        5.7560   -0.8570   -1.8900 h1        1 ABQ      0.058700
     42 H19         2.8840    1.3910   -2.0710 h1        1 ABQ      0.057200
     43 H19A        3.9920    2.6930   -1.4120 h1        1 ABQ      0.057200
     44 H20         5.2580   -0.2460    0.8780 hc        1 ABQ      0.075700
     45 H21         4.1430    1.7340    0.6990 h1        1 ABQ      0.070700
     46 H22        -6.6120    0.0500   -1.8090 hc        1 ABQ      0.048867
     47 H22A       -5.6950    0.8620   -3.1480 hc        1 ABQ      0.048867
     48 H22B       -6.4760   -0.7520   -3.4300 hc        1 ABQ      0.048867
     49 H23        -3.4950   -0.1820   -3.9850 hc        1 ABQ      0.048867
     50 H23A       -2.8950   -1.7180   -3.2260 hc        1 ABQ      0.048867
     51 H23B       -4.4140   -1.7300   -4.2170 hc        1 ABQ      0.048867
     52 H24        -4.9690   -1.8550   -1.8100 h1        1 ABQ      0.096700
     53 HN30       -1.5720    1.8940    2.4720 hn        1 ABQ      0.431300
     54 HN3A       -1.6130    0.8530    3.8110 hn        1 ABQ      0.431300
     55 HN31        1.9460   -0.0800   -0.0650 hn        1 ABQ      0.419800
     56 C17        -2.0140    2.7600   -0.0340 c         1 ABQ      0.519800
     57 C24        -4.6640   -0.8570   -2.2540 c3        1 ABQ      0.048000
     58 O32        -2.4940    3.8450   -0.3810 o         1 ABQ     -0.516100
@<TRIPOS>BOND
     1    1    3 ar  
     2    1   11 ar  
     3    1   32 1   
     4    2    4 ar  
     5    2   11 ar  
     6    2   33 1   
     7    3   12 ar  
     8    3   34 1   
     9    4   12 ar  
    10    4   35 1   
    11    5   13 ar  
    12    5   23 ar  
    13    5   36 1   
    14    6   15 ar  
    15    6   23 ar  
    16    6   37 1   
    17    7   10 2   
    18    7   27 1   
    19    7   38 1   
    20    8   24 ar  
    21    8   25 ar  
    22    8   39 1   
    23    9   10 1   
    24    9   14 ar  
    25    9   16 ar  
    26   10   56 1   
    27   11   19 1   
    28   12   31 1   
    29   13   26 ar  
    30   13   56 1   
    31   14   24 ar  
    32   14   27 1   
    33   15   26 ar  
    34   15   29 1   
    35   16   25 ar  
    36   16   28 1   
    37   17   19 1   
    38   17   30 1   
    39   17   40 1   
    40   17   41 1   
    41   18   20 1   
    42   18   30 1   
    43   18   42 1   
    44   18   43 1   
    45   19   20 1   
    46   19   44 1   
    47   20   29 1   
    48   20   45 1   
    49   21   46 1   
    50   21   47 1   
    51   21   48 1   
    52   21   57 1   
    53   22   49 1   
    54   22   50 1   
    55   22   51 1   
    56   22   57 1   
    57   27   57 1   
    58   28   53 1   
    59   28   54 1   
    60   29   55 1   
    61   52   57 1   
    62   56   58 2   
@<TRIPOS>SUBSTRUCTURE
     1 ABQ         1 TEMP              0 ****  ****    0 ROOT
