@<TRIPOS>MOLECULE
ABQ
   58    57     1     0     0
SMALL
bcc


@<TRIPOS>ATOM
      1 C1         -0.1360   -0.4750   -0.0260 ca        1 ABQ     -0.126000
      2 C2         -0.4590   -1.4060    2.0380 ca        1 ABQ     -0.126000
      3 C3          1.1890   -1.1170    0.0570 ca        1 ABQ     -0.184000
      4 C4          0.1450   -2.5470    1.5690 ca        1 ABQ     -0.184000
      5 C5         -3.7960    6.2770    2.8170 c1        1 ABQ      0.167000
      6 C6         -3.0920    3.9470    2.0600 c2        1 ABQ      0.013000
      7 C7          1.7700    5.6490    4.2950 c2        1 ABQ     -0.094000
      8 C8          6.5100    6.0580    4.3360 c1        1 ABQ      0.227000
      9 C9          3.3070    6.2460    2.7000 c2        1 ABQ     -0.119000
     10 C10         1.8910    6.0470    2.9710 c2        1 ABQ     -0.159000
     11 C11        -1.0990   -0.6660    0.9300 ca        1 ABQ     -0.086000
     12 C12         1.4250   -2.1530    0.9340 ca        1 ABQ      0.118000
     13 C13        -0.3870    5.3290    2.2880 c2        1 ABQ     -0.082000
     14 C14         4.0050    5.9630    3.8800 c2        1 ABQ      0.183000
     15 C15        -1.8380    3.5720    1.6280 c2        1 ABQ      0.011000
     16 C16         3.9380    6.6360    1.4150 c2        1 ABQ      0.142000
     17 C18        -3.4180   -0.9320    1.7840 c3        1 ABQ     -0.093000
     18 C19        -4.6440    0.8460    2.7910 c1        1 ABQ     -0.015000
     19 C20        -2.4590   -0.0980    0.9290 c3        1 ABQ     -0.109000
     20 C21        -2.5650    1.3170    1.4020 c1        1 ABQ     -0.156000
     21 C22         2.8890    7.2360   10.0710 c3        1 ABQ     -0.272000
     22 C23         2.4830    4.9040    7.2180 c3        1 ABQ     -0.284000
     23 N25        -3.4260    5.2040    2.4670 n2        1 ABQ     -0.317000
     24 N26         5.3470    6.0110    4.1000 n2        1 ABQ     -0.291000
     25 N27         4.7930    5.8870    0.7800 n2        1 ABQ     -0.292000
     26 N28        -0.7180    4.4240    1.4400 n2        1 ABQ     -0.120000
     27 N29         3.0490    5.5870    4.9070 na        1 ABQ     -0.089000
     28 N30         3.6050    7.9310    0.9750 n8        1 ABQ     -0.319000
     29 N31        -1.6290    2.2130    1.2060 n7        1 ABQ     -0.121000
     30 O33        -4.6350   -0.1660    2.0040 os        1 ABQ     -0.091000
     31 F34         2.5800   -2.8130    1.0600 f         1 ABQ     -0.079000
     32 H1         -0.3110    0.1620   -0.9050 ha        1 ABQ      0.137500
     33 H2          0.0190   -0.7740    2.8050 ha        1 ABQ      0.137500
     34 H3          1.9660   -0.7610   -0.6320 ha        1 ABQ      0.155000
     35 H4         -0.3830   -3.3960    1.1160 ha        1 ABQ      0.155000
     36 H5         -0.8900    5.5530    3.2520 h4        1 ABQ      0.133000
     37 H6         -3.9290    3.2050    2.0820 h4        1 ABQ      0.218000
     38 H7          0.8710    5.4120    4.8700 h4        1 ABQ      0.181000
     39 H8          5.0300    5.0390    1.2450 hn        1 ABQ      0.150000
     40 H18        -2.8660   -0.0910   -0.1300 hc        1 ABQ      0.142000
     41 H18A       -2.9570   -1.2000    2.7670 h1        1 ABQ      0.105000
     42 H19        -5.3160   -0.6420    4.6500 ha        1 ABQ      0.002500
     43 H19A       -4.6730   -0.8560    4.6180 ha        1 ABQ      0.002500
     44 H20        -3.7520   -1.8500    1.2390 h1        1 ABQ      0.105000
     45 H21        -3.7590    1.0770    3.4230 ha        1 ABQ      0.023000
     46 H22         3.0160    7.9180   10.9390 hc        1 ABQ      0.068750
     47 H22A        2.5780    6.2310   10.4330 hc        1 ABQ      0.068750
     48 H22B        3.8520    7.1520    9.5220 hc        1 ABQ      0.068750
     49 H23         2.1080    7.6440    9.3930 hc        1 ABQ      0.068750
     50 H23A        2.6350    5.6410    8.0560 hc        1 ABQ      0.114333
     51 H23B        2.7980    3.8960    7.5980 hc        1 ABQ      0.114333
     52 H24         1.3950    4.8700    6.9650 hc        1 ABQ      0.114333
     53 HN30        3.8820    8.1420    0.0390 hn        1 ABQ      0.204500
     54 HN3A        2.6600    8.1880    1.1730 hn        1 ABQ      0.204500
     55 HN31       -0.7500    2.0310    0.7500 hn        1 ABQ      0.205000
     56 C17         0.7950    6.2220    2.0250 c2        1 ABQ      0.326000
     57 C24         3.4200    5.2730    6.1510 c1        1 ABQ     -0.011000
     58 O32         0.7870    7.0480    1.1110 o         1 ABQ     -0.248000
@<TRIPOS>BOND
     1    1    3 1   
     2    1   11 1   
     3    1   32 1   
     4    2    4 1   
     5    2   11 1   
     6    2   33 1   
     7    3   12 1   
     8    3   34 1   
     9    4   12 1   
    10    4   35 1   
    11    5   23 1   
    12    6   15 1   
    13    6   23 1   
    14    6   37 1   
    15    7   10 1   
    16    7   27 1   
    17    7   38 1   
    18    8   24 1   
    19    9   10 1   
    20    9   14 1   
    21    9   16 1   
    22   10   56 1   
    23   11   19 1   
    24   12   31 1   
    25   13   26 1   
    26   13   36 1   
    27   13   56 1   
    28   14   24 1   
    29   14   27 1   
    30   15   26 1   
    31   15   29 1   
    32   16   25 1   
    33   16   28 1   
    34   17   19 1   
    35   17   30 1   
    36   17   41 1   
    37   17   44 1   
    38   18   30 1   
    39   18   45 1   
    40   19   20 1   
    41   19   40 1   
    42   20   29 1   
    43   21   46 1   
    44   21   47 1   
    45   21   48 1   
    46   21   49 1   
    47   22   50 1   
    48   22   51 1   
    49   22   52 1   
    50   22   57 1   
    51   25   39 1   
    52   27   57 1   
    53   28   53 1   
    54   28   54 1   
    55   29   55 1   
    56   42   43 1   
    57   56   58 1   
@<TRIPOS>SUBSTRUCTURE
     1 ABQ         1 TEMP              0 ****  ****    0 ROOT
