@<TRIPOS>MOLECULE
ABQ
   58    49     1     0     0
SMALL
bcc


@<TRIPOS>ATOM
      1 C1         -0.3320   -5.9620   -1.1900 c1        1 ABQ     -0.128500
      2 C2          1.2130   -5.7150    0.6330 c1        1 ABQ     -0.108000
      3 C3          0.6900   -6.4520   -1.9880 c1        1 ABQ     -0.128500
      4 C4          2.2340   -6.2050   -0.1670 c1        1 ABQ     -0.162000
      5 C5         -1.0360    0.9330   -0.4380 c1        1 ABQ     -0.123000
      6 C6         -1.5860   -1.3240   -0.5630 c1        1 ABQ     -0.054500
      7 C7          0.9550    3.6260   -1.1230 c1        1 ABQ     -0.008000
      8 C8         -1.0800    6.4700    1.7580 c1        1 ABQ     -0.054500
      9 C9          0.1040    4.1910    0.8580 c1        1 ABQ     -0.056500
     10 C10         0.7260    3.1770    0.1550 c1        1 ABQ     -0.205000
     11 C11        -0.0720   -5.5930    0.1220 c1        1 ABQ     -0.094000
     12 C12         1.9720   -6.5730   -1.4770 c1        1 ABQ      0.094000
     13 C13         0.1700    0.6060    0.1660 c1        1 ABQ     -0.088000
     14 C14        -0.0470    5.2480    0.0220 c1        1 ABQ     -0.056500
     15 C15        -0.3800   -1.6510    0.0420 c1        1 ABQ      0.043000
     16 C16        -0.3450    4.2750    2.1640 c1        1 ABQ      0.219000
     17 C17         1.1160    1.7490    0.4920 c1        1 ABQ      0.369000
     18 C18        -0.8110   -5.6270    2.4860 c3        1 ABQ     -0.026000
     19 C19        -1.4710   -3.4120    2.3020 c3        1 ABQ     -0.062000
     20 C20        -1.1720   -5.2570    1.0080 c3        1 ABQ     -0.090000
     21 C21        -1.4100   -3.7510    1.0100 c3        1 ABQ     -0.028000
     22 C22         1.8070    6.4870   -2.4230 c3        1 ABQ     -0.230500
     23 C23         0.0770    5.1420   -3.5610 c3        1 ABQ     -0.230500
     24 C24         0.4470    5.8440   -2.2740 c3        1 ABQ      0.026000
     25 N25        -1.8940   -0.0370   -0.7930 n1        1 ABQ     -0.151000
     26 N26        -0.6380    6.3890    0.4690 n1        1 ABQ     -0.151000
     27 N27        -0.9290    5.4040    2.6030 n1        1 ABQ     -0.270000
     28 N28         0.4780   -0.6810    0.3970 n1        1 ABQ     -0.144000
     29 N29         0.4830    4.8980   -1.2120 n2        1 ABQ     -0.134000
     30 N30        -0.3280    3.7000    3.4610 n3        1 ABQ     -0.347000
     31 N31        -0.2760   -3.0460    0.3440 n3        1 ABQ     -0.246000
     32 O32         2.1960    1.5180    1.0030 o         1 ABQ     -0.305000
     33 O33        -0.6030   -4.4870    3.0840 os        1 ABQ     -0.273000
     34 F34         2.8670   -7.2360   -2.2160 f         1 ABQ     -0.103000
     35 H1         -1.2370   -5.8760   -1.5520 ha        1 ABQ      0.145500
     36 H2          1.3970   -5.4560    1.5530 ha        1 ABQ      0.151000
     37 H3          0.5060   -6.7120   -2.9120 ha        1 ABQ      0.145500
     38 H4          3.1390   -6.2910    0.1940 ha        1 ABQ      0.154000
     39 H5         -1.2610    1.8710   -0.6060 ha        1 ABQ      0.184000
     40 H6         -2.2090   -2.0270   -0.8200 ha        1 ABQ      0.181500
     41 H7          1.4080    3.1320   -1.8310 DU        1 ABQ      0.183000
     42 H8         -1.5040    7.2890    2.0780 ha        1 ABQ      0.181500
     43 H18         0.0010   -6.1770    2.5100 h1        1 ABQ      0.097500
     44 H18A       -1.5580   -6.1030    2.9090 h1        1 ABQ      0.097500
     45 H19        -1.0960   -2.5180    2.4330 h1        1 ABQ      0.098500
     46 H19A       -2.3990   -3.4380    2.6130 h1        1 ABQ      0.098500
     47 H20        -1.9820   -5.7240    0.7330 hc        1 ABQ      0.114000
     48 H21        -2.2540   -3.5390    0.5620 h1        1 ABQ      0.111000
     49 H22         1.7190    7.3270   -2.9250 hc        1 ABQ      0.089000
     50 H22A        2.4050    5.8790   -2.9070 hc        1 ABQ      0.089000
     51 H22B        2.1790    6.6740   -1.5360 hc        1 ABQ      0.089000
     52 H23        -0.2280    5.8040   -4.2190 hc        1 ABQ      0.089000
     53 H23A        0.8610    4.6680   -3.9130 hc        1 ABQ      0.089000
     54 H23B       -0.6440    4.4980   -3.3870 hc        1 ABQ      0.089000
     55 H24        -0.2180    6.5300   -2.0750 h1        1 ABQ      0.139000
     56 HN30       -0.0770    2.8280    3.5710 hn        1 ABQ      0.241000
     57 HN3A       -0.5790    4.1980    4.1850 hn        1 ABQ      0.241000
     58 HN31        0.5020   -3.4870    0.1870 hn        1 ABQ      0.210000
@<TRIPOS>BOND
     1    1    3 1   
     2    1   35 1   
     3    2   11 1   
     4    2   36 1   
     5    3   37 1   
     6    4   12 1   
     7    4   38 1   
     8    5   13 1   
     9    5   39 1   
    10    6   25 1   
    11    6   40 1   
    12    7   10 1   
    13    7   29 1   
    14    8   26 1   
    15    8   42 1   
    16    9   14 1   
    17   11   20 1   
    18   12   34 1   
    19   13   17 1   
    20   15   28 1   
    21   15   31 1   
    22   16   27 1   
    23   16   30 1   
    24   17   32 1   
    25   18   20 1   
    26   18   33 1   
    27   18   43 1   
    28   18   44 1   
    29   19   21 1   
    30   19   33 1   
    31   19   45 1   
    32   19   46 1   
    33   20   21 1   
    34   20   47 1   
    35   21   31 1   
    36   21   48 1   
    37   22   24 1   
    38   22   49 1   
    39   22   50 1   
    40   22   51 1   
    41   23   24 1   
    42   23   52 1   
    43   23   53 1   
    44   23   54 1   
    45   24   29 1   
    46   24   55 1   
    47   30   56 1   
    48   30   57 1   
    49   31   58 1   
@<TRIPOS>SUBSTRUCTURE
     1 ABQ         1 TEMP              0 ****  ****    0 ROOT
