@<TRIPOS>MOLECULE
ABR
   51    54     1     0     0
SMALL
bcc


@<TRIPOS>ATOM
      1 P          -1.3490   -1.0000   -6.3670 p5        1 ABR      1.330900
      2 OP1        -2.2750   -1.6220   -5.3610 o         1 ABR     -0.930167
      3 OP2        -1.8910   -0.6570   -7.7190 o         1 ABR     -0.930167
      4 O5'        -1.0530    0.5590   -5.6320 os        1 ABR     -0.553200
      5 C5'        -0.6130    0.4780   -4.3420 c3        1 ABR      0.227400
      6 C4'         0.9140    0.7190   -4.2690 c3        1 ABR      0.051100
      7 O4'         1.2380    1.4700   -3.0670 os        1 ABR     -0.434600
      8 C1'         2.1140    0.7390   -2.2280 c3        1 ABR      0.252800
      9 N9          1.3990    0.3320   -1.0140 na        1 ABR     -0.257000
     10 C4          1.8700    0.4360    0.2980 ca        1 ABR      0.427800
     11 N3          3.0710    0.8570    0.8050 nb        1 ABR     -0.709000
     12 C2          3.1160    0.8160    2.1510 ca        1 ABR      0.638900
     13 N1          2.1720    0.4240    3.0550 nb        1 ABR     -0.800000
     14 C6          0.9770   -0.0220    2.5590 ca        1 ABR      0.700200
     15 N6         -0.0150   -0.5430    3.4000 nh        1 ABR     -0.839900
     16 CA         -1.2400   -0.7330    5.5470 c3        1 ABR      0.166400
     17 OA         -2.4400   -0.2070    5.0090 oh        1 ABR     -0.588800
     18 CB         -0.0050   -0.1860    4.7950 c3        1 ABR      0.176800
     19 CS6        -1.0990   -0.4590    7.0180 ca        1 ABR     -0.104300
     20 CS1        -2.0100    0.3550    7.6980 ca        1 ABR     -0.119000
     21 CS5        -0.0490   -1.0540    7.7280 ca        1 ABR     -0.119000
     22 CS2        -1.8660    0.5820    9.0660 ca        1 ABR     -0.133500
     23 CS4         0.0930   -0.8250    9.0950 ca        1 ABR     -0.133500
     24 CS3        -0.8130   -0.0040    9.7670 ca        1 ABR     -0.137000
     25 C5          0.7610   -0.0190    1.1460 ca        1 ABR     -0.197200
     26 N7         -0.3350   -0.3630    0.3460 nc        1 ABR     -0.590100
     27 C8          0.0720   -0.1390   -0.9190 cd        1 ABR      0.464700
     28 C2'         2.6830   -0.4430   -3.0400 c3        1 ABR     -0.130400
     29 C3'         1.7500   -0.5760   -4.2540 c3        1 ABR      0.156100
     30 O3'         2.5390   -0.6900   -5.4160 oh        1 ABR     -0.671800
     31 OP3         0.0700   -1.5270   -6.3050 o         1 ABR     -0.930167
     32 H5'        -0.8630   -0.5270   -3.8930 h1        1 ABR     -0.004800
     33 H5''       -1.1010    1.2870   -3.7180 h1        1 ABR     -0.004800
     34 H4'         1.2280    1.3810   -5.1200 h1        1 ABR      0.081700
     35 H1'         2.9200    1.4570   -1.8940 h2        1 ABR      0.072700
     36 H2          4.0690    1.1570    2.6050 h5        1 ABR      0.029100
     37 H6         -0.9230   -0.5920    2.9810 hn        1 ABR      0.440800
     38 HA         -1.3420   -1.8470    5.3880 h1        1 ABR      0.098700
     39 HOA        -2.3340    0.7500    4.9350 ho        1 ABR      0.401000
     40 HB1         0.9240   -0.6150    5.2660 h1        1 ABR      0.050200
     41 HB2         0.0270    0.9340    4.9380 h1        1 ABR      0.050200
     42 HS1        -2.8530    0.8070    7.1520 ha        1 ABR      0.140000
     43 HS5         0.6660   -1.7070    7.2030 ha        1 ABR      0.140000
     44 HS2        -2.5870    1.2250    9.5910 ha        1 ABR      0.125500
     45 HS4         0.9230   -1.2930    9.6440 ha        1 ABR      0.125500
     46 HS3        -0.6980    0.1770   10.8440 ha        1 ABR      0.122000
     47 H8         -0.5350   -0.2860   -1.8360 h5        1 ABR      0.129800
     48 H2'         2.7240   -1.3920   -2.4580 hc        1 ABR      0.054700
     49 H2''        3.7180   -0.1860   -3.3720 hc        1 ABR      0.054700
     50 H3'         1.0840   -1.4790   -4.1640 h1        1 ABR      0.103700
     51 HO3'        1.9170   -0.9940   -6.1180 ho        1 ABR      0.501000
@<TRIPOS>BOND
     1    1    2 1   
     2    1    3 1   
     3    1    4 1   
     4    1   31 1   
     5    4    5 1   
     6    5    6 1   
     7    5   32 1   
     8    5   33 1   
     9    6    7 1   
    10    6   29 1   
    11    6   34 1   
    12    7    8 1   
    13    8    9 1   
    14    8   28 1   
    15    8   35 1   
    16    9   10 1   
    17    9   27 1   
    18   10   11 ar  
    19   10   25 ar  
    20   11   12 ar  
    21   12   13 ar  
    22   12   36 1   
    23   13   14 ar  
    24   14   15 1   
    25   14   25 ar  
    26   15   18 1   
    27   15   37 1   
    28   16   17 1   
    29   16   18 1   
    30   16   19 1   
    31   16   38 1   
    32   17   39 1   
    33   18   40 1   
    34   18   41 1   
    35   19   20 ar  
    36   19   21 ar  
    37   20   22 ar  
    38   20   42 1   
    39   21   23 ar  
    40   21   43 1   
    41   22   24 ar  
    42   22   44 1   
    43   23   24 ar  
    44   23   45 1   
    45   24   46 1   
    46   25   26 1   
    47   26   27 2   
    48   27   47 1   
    49   28   29 1   
    50   28   48 1   
    51   28   49 1   
    52   29   30 1   
    53   29   50 1   
    54   30   51 1   
@<TRIPOS>SUBSTRUCTURE
     1 ABR         1 TEMP              0 ****  ****    0 ROOT
