@<TRIPOS>MOLECULE
ABR
   51    46     1     0     0
SMALL
bcc


@<TRIPOS>ATOM
      1 P          -2.6960   -7.9330    2.3580 p3        1 ABR      2.523000
      2 OP1        -1.3320   -8.3440    2.9380 o         1 ABR     -1.261000
      3 OP2        -3.7590   -7.9200    3.4890 os        1 ABR     -1.227000
      4 O5'        -2.5800   -6.4920    1.7220 os        1 ABR     -0.715000
      5 C5'        -1.5360   -6.2530    0.7640 c3        1 ABR      0.077000
      6 C4'        -1.9820   -5.1610   -0.2190 c3        1 ABR     -0.059000
      7 O4'        -1.7030   -3.9900    0.2580 os        1 ABR     -0.292000
      8 C1'        -1.3400   -3.0940   -0.9730 c3        1 ABR      0.162000
      9 N9         -0.5030   -1.9880   -0.5580 n3        1 ABR     -0.174000
     10 C4         -0.7900   -0.6820   -0.8400 c1        1 ABR      0.035000
     11 N3         -1.8590   -0.0820   -1.4700 n1        1 ABR     -0.185000
     12 C2         -1.9030    1.2760   -1.5920 c1        1 ABR     -0.023000
     13 N1         -0.8760    2.0510   -1.0850 n1        1 ABR     -0.276000
     14 C6          0.1630    1.4730   -0.4730 c1        1 ABR      0.182000
     15 N6          1.2340    2.3320    0.0240 n2        1 ABR     -0.281000
     16 CA          2.3200    4.4210    0.7040 c3        1 ABR      0.049000
     17 OA          2.4670    4.0440    2.0200 oh        1 ABR     -0.321000
     18 CB          1.0360    3.7500    0.1070 c3        1 ABR     -0.024000
     19 CS6         2.1880    5.9350    0.6240 c2        1 ABR     -0.107000
     20 CS1         1.5340    6.6160    1.6110 c2        1 ABR     -0.116000
     21 CS5         2.7100    6.6250   -0.4710 c1        1 ABR     -0.118000
     22 CS2         1.3870    7.9880    1.5260 c1        1 ABR     -0.136000
     23 CS4         2.5650    7.9940   -0.5570 c1        1 ABR     -0.135000
     24 CS3         1.9070    8.6770    0.4350 c1        1 ABR     -0.135000
     25 C5          0.2140    0.0800   -0.3440 c1        1 ABR     -0.205000
     26 N7          1.1180   -0.7440    0.2410 n1        1 ABR     -0.162000
     27 C8          0.6720   -2.0230    0.1070 c1        1 ABR      0.007000
     28 C2'        -0.6750   -3.8790   -1.8280 c3        1 ABR     -0.209000
     29 C3'        -1.1700   -5.2630   -1.5510 c3        1 ABR      0.045000
     30 O3'        -1.9740   -5.6780   -2.5550 oh        1 ABR     -0.399000
     31 OP3        -3.1060   -8.9160    1.3010 o         1 ABR     -1.261000
     32 H5'        -1.3410   -7.1170    0.2490 h1        1 ABR      0.034500
     33 H5''       -0.7150   -5.9570    1.2370 h1        1 ABR      0.034500
     34 H4'        -2.9580   -5.2380   -0.4030 h1        1 ABR      0.121000
     35 H1'        -2.2020   -2.7370   -1.4170 h2        1 ABR      0.111000
     36 H2         -2.6600    1.7000   -2.0340 ha        1 ABR      0.165000
     37 H6          2.0010    1.9620    0.3430 hn        1 ABR      0.234000
     38 HA          3.1220    4.1290    0.1830 h1        1 ABR      0.098000
     39 HOA         3.3070    3.8850    2.1840 ho        1 ABR      0.199000
     40 HB1         0.8650    4.1080   -0.7830 h1        1 ABR      0.096000
     41 HB2         0.2430    3.9440    0.7070 h1        1 ABR      0.096000
     42 HS1         1.1730    6.1380    2.3680 ha        1 ABR      0.147000
     43 HS5         3.1700    6.1460   -1.1650 ha        1 ABR      0.141000
     44 HS2         0.9170    8.4770    2.2360 ha        1 ABR      0.125000
     45 HS4         2.9420    8.4930   -1.3490 ha        1 ABR      0.124500
     46 HS3         1.8020    9.6630    0.3730 ha        1 ABR      0.124500
     47 H8          1.0980   -2.8200    0.4770 DU        1 ABR      0.258000
     48 H2'        -0.8780   -3.6260   -2.7460 hc        1 ABR      0.094000
     49 H2''        0.3280   -3.8220   -1.6560 hc        1 ABR      0.094000
     50 H3'        -0.4190   -5.8770   -1.4440 h1        1 ABR      0.143000
     51 HO3'       -1.5280   -6.2700   -3.0730 ho        1 ABR      0.300000
@<TRIPOS>BOND
     1    1    2 1   
     2    1    4 1   
     3    1   31 1   
     4    4    5 1   
     5    5    6 1   
     6    5   32 1   
     7    5   33 1   
     8    6    7 1   
     9    6   29 1   
    10    6   34 1   
    11    7    8 1   
    12    8    9 1   
    13    8   28 1   
    14    8   35 1   
    15    9   10 1   
    16    9   27 1   
    17   10   25 1   
    18   11   12 1   
    19   12   36 1   
    20   13   14 1   
    21   14   25 1   
    22   15   18 1   
    23   15   37 1   
    24   16   17 1   
    25   16   18 1   
    26   16   19 1   
    27   16   38 1   
    28   17   39 1   
    29   18   40 1   
    30   18   41 1   
    31   19   20 1   
    32   19   21 1   
    33   20   22 1   
    34   20   42 1   
    35   21   43 1   
    36   22   44 1   
    37   23   24 1   
    38   23   45 1   
    39   24   46 1   
    40   26   27 1   
    41   28   29 1   
    42   28   48 1   
    43   28   49 1   
    44   29   30 1   
    45   29   50 1   
    46   30   51 1   
@<TRIPOS>SUBSTRUCTURE
     1 ABR         1 TEMP              0 ****  ****    0 ROOT
