@<TRIPOS>MOLECULE
ABS
   51    46     1     0     0
SMALL
bcc


@<TRIPOS>ATOM
      1 P          -2.8110   -7.6320    2.2160 p3        1 ABS      2.538000
      2 OP1        -1.4820   -7.9800    2.8370 o         1 ABS     -1.257500
      3 OP2        -3.8450   -7.5230    3.2890 os        1 ABS     -1.217000
      4 O5'        -2.6910   -6.2400    1.4460 os        1 ABS     -0.730000
      5 C5'        -1.7340   -6.1250    0.4180 c3        1 ABS      0.073000
      6 C4'        -2.1570   -5.0060   -0.5550 c3        1 ABS     -0.049000
      7 O4'        -1.8410   -3.8650   -0.0770 os        1 ABS     -0.295000
      8 C1'        -1.4570   -2.9640   -1.3110 c3        1 ABS      0.163000
      9 N9         -0.5790   -1.8910   -0.8920 n3        1 ABS     -0.192000
     10 C4         -0.7960   -0.5570   -1.1280 c1        1 ABS      0.024000
     11 N3         -1.8710    0.1080   -1.6130 n1        1 ABS     -0.187000
     12 C2         -1.8680    1.4750   -1.6660 c1        1 ABS     -0.041000
     13 N1         -0.7720    2.1770   -1.2280 n1        1 ABS     -0.277000
     14 C6          0.3010    1.5180   -0.7450 c1        1 ABS      0.144000
     15 N6          1.4290    2.3300   -0.2570 n2        1 ABS     -0.260000
     16 CA          2.5430    4.3280    0.4280 c3        1 ABS      0.019000
     17 OA          3.4360    4.5540   -0.6590 oh        1 ABS     -0.325000
     18 CB          1.2700    3.7370   -0.0850 c3        1 ABS     -0.032000
     19 CS6         2.2440    5.6530    1.1260 c2        1 ABS     -0.096000
     20 CS1         2.1730    5.7050    2.5150 c2        1 ABS     -0.117000
     21 CS5         2.1110    6.8310    0.3720 c1        1 ABS     -0.121000
     22 CS2         1.9680    6.9360    3.1630 c1        1 ABS     -0.137000
     23 CS4         1.9070    8.0560    1.0160 c1        1 ABS     -0.142000
     24 CS3         1.8350    8.1080    2.4100 c1        1 ABS     -0.142000
     25 C5          0.2930    0.1310   -0.6930 c1        1 ABS     -0.187000
     26 N7          1.1830   -0.7700   -0.1870 n1        1 ABS     -0.179000
     27 C8          0.6370   -2.0220   -0.3130 c1        1 ABS      0.022000
     28 C2'        -0.8220   -3.7590   -2.1750 c3        1 ABS     -0.197000
     29 C3'        -1.3520   -5.1220   -1.9100 c3        1 ABS     -0.003000
     30 O3'        -2.1760   -5.5060   -2.9100 oh        1 ABS     -0.385000
     31 OP3        -3.2120   -8.7210    1.2310 o         1 ABS     -1.257500
     32 H5'        -0.8550   -5.9060    0.8110 h1        1 ABS      0.036500
     33 H5''       -1.6710   -6.9750   -0.0690 h1        1 ABS      0.036500
     34 H4'        -3.1310   -5.0500   -0.7300 h1        1 ABS      0.088000
     35 H1'        -2.2970   -2.5830   -1.7390 h2        1 ABS      0.112000
     36 H2         -2.6000    1.9440   -2.1180 ha        1 ABS      0.157000
     37 H6          2.2270    1.9370   -0.0740 hn        1 ABS      0.229000
     38 HA          2.9670    3.6920    1.0840 h1        1 ABS      0.107000
     39 HOA         4.3120    4.4050   -0.3770 ho        1 ABS      0.200000
     40 HB1         0.5320    3.9110    0.5750 h1        1 ABS      0.105500
     41 HB2         1.0450    4.1420   -0.9360 h1        1 ABS      0.105500
     42 HS1         2.2650    4.8900    3.0380 ha        1 ABS      0.159000
     43 HS5         2.1650    6.7950   -0.6330 ha        1 ABS      0.143000
     44 HS2         1.9180    6.9740    4.1350 ha        1 ABS      0.124000
     45 HS4         1.8140    8.8740    0.4910 ha        1 ABS      0.118000
     46 HS3         1.6910    8.9760    2.8650 ha        1 ABS      0.118000
     47 H8          1.0650   -2.8380   -0.1000 DU        1 ABS      0.351000
     48 H2'         0.1450   -3.7340   -2.0110 hc        1 ABS      0.090500
     49 H2''       -1.0210   -3.4860   -3.1040 hc        1 ABS      0.090500
     50 H3'        -0.6250   -5.7510   -1.8170 h1        1 ABS      0.192000
     51 HO3'       -1.8110   -6.1780   -3.3530 ho        1 ABS      0.281000
@<TRIPOS>BOND
     1    1    2 1   
     2    1    4 1   
     3    1   31 1   
     4    4    5 1   
     5    5    6 1   
     6    5   32 1   
     7    5   33 1   
     8    6    7 1   
     9    6   29 1   
    10    6   34 1   
    11    7    8 1   
    12    8    9 1   
    13    8   28 1   
    14    8   35 1   
    15    9   10 1   
    16    9   27 1   
    17   10   25 1   
    18   11   12 1   
    19   12   36 1   
    20   13   14 1   
    21   14   25 1   
    22   15   18 1   
    23   15   37 1   
    24   16   17 1   
    25   16   18 1   
    26   16   19 1   
    27   16   38 1   
    28   17   39 1   
    29   18   40 1   
    30   18   41 1   
    31   19   20 1   
    32   19   21 1   
    33   20   22 1   
    34   20   42 1   
    35   21   43 1   
    36   22   44 1   
    37   23   24 1   
    38   23   45 1   
    39   24   46 1   
    40   26   27 1   
    41   28   29 1   
    42   28   48 1   
    43   28   49 1   
    44   29   30 1   
    45   29   50 1   
    46   30   51 1   
@<TRIPOS>SUBSTRUCTURE
     1 ABS         1 TEMP              0 ****  ****    0 ROOT
