@<TRIPOS>MOLECULE
ABS
   51    54     1     0     0
SMALL
bcc


@<TRIPOS>ATOM
      1 P          -1.0530   -1.8780   -6.1740 p5        1 ABS      1.330900
      2 OP1        -1.9700   -2.4030   -5.1080 o         1 ABS     -0.930167
      3 OP2        -1.5340   -1.8720   -7.5910 o         1 ABS     -0.930167
      4 O5'        -0.9830   -0.1810   -5.7540 os        1 ABS     -0.552200
      5 C5'        -0.6300    0.0440   -4.4540 c3        1 ABS      0.226400
      6 C4'         0.8510    0.4830   -4.3590 c3        1 ABS      0.052100
      7 O4'         1.0030    1.4800   -3.3110 os        1 ABS     -0.435600
      8 C1'         1.8940    1.0330   -2.3060 c3        1 ABS      0.254800
      9 N9          1.1440    0.7730   -1.0730 na        1 ABS     -0.257000
     10 C4          1.5850    1.0230    0.2300 ca        1 ABS      0.426800
     11 N3          2.7760    1.4930    0.7140 nb        1 ABS     -0.708000
     12 C2          2.8070    1.5550    2.0600 ca        1 ABS      0.638900
     13 N1          1.8540    1.2300    2.9820 nb        1 ABS     -0.799000
     14 C6          0.6510    0.7840    2.5070 ca        1 ABS      0.698200
     15 N6         -0.4240    0.5250    3.3700 nh        1 ABS     -0.837900
     16 CA         -1.4270   -0.1500    5.5340 c3        1 ABS      0.167400
     17 OA         -2.0440   -1.2990    4.9810 oh        1 ABS     -0.588800
     18 CB         -0.1490    0.2300    4.7530 c3        1 ABS      0.174800
     19 CS6        -1.0990   -0.3180    6.9900 ca        1 ABS     -0.104300
     20 CS1        -0.6380    0.7850    7.7210 ca        1 ABS     -0.118500
     21 CS5        -1.2700   -1.5450    7.6390 ca        1 ABS     -0.118500
     22 CS2        -0.3400    0.6550    9.0760 ca        1 ABS     -0.133000
     23 CS4        -0.9710   -1.6720    8.9950 ca        1 ABS     -0.133000
     24 CS3        -0.5030   -0.5730    9.7160 ca        1 ABS     -0.137000
     25 C5          0.4630    0.6440    1.0980 ca        1 ABS     -0.196200
     26 N7         -0.6070    0.1920    0.3170 nc        1 ABS     -0.591100
     27 C8         -0.1730    0.2820   -0.9560 cd        1 ABS      0.465700
     28 C2'         2.6510   -0.1980   -2.8470 c3        1 ABS     -0.129400
     29 C3'         1.8250   -0.6730   -4.0520 c3        1 ABS      0.156100
     30 O3'         2.6990   -0.9050   -5.1330 oh        1 ABS     -0.671800
     31 OP3         0.4090   -2.2050   -5.9430 o         1 ABS     -0.930167
     32 H5'        -0.7980   -0.8770   -3.8240 h1        1 ABS     -0.004800
     33 H5''       -1.2490    0.8930   -4.0320 h1        1 ABS     -0.004800
     34 H4'         1.1470    1.0080   -5.3060 h1        1 ABS      0.081700
     35 H1'         2.5870    1.8950   -2.0750 h2        1 ABS      0.070700
     36 H2          3.7580    1.9240    2.4970 h5        1 ABS      0.029100
     37 H6         -1.1500   -0.0290    2.9590 hn        1 ABS      0.439800
     38 HA         -2.2140    0.6530    5.4240 h1        1 ABS      0.096700
     39 HOA        -1.3610   -1.9710    4.8610 ho        1 ABS      0.402000
     40 HB1         0.5930   -0.6150    4.8590 h1        1 ABS      0.050700
     41 HB2         0.3050    1.1430    5.2290 h1        1 ABS      0.050700
     42 HS1        -0.5120    1.7570    7.2210 ha        1 ABS      0.140000
     43 HS5        -1.6550   -2.4110    7.0780 ha        1 ABS      0.140000
     44 HS2         0.0260    1.5250    9.6400 ha        1 ABS      0.126000
     45 HS4        -1.1070   -2.6410    9.4960 ha        1 ABS      0.126000
     46 HS3        -0.2660   -0.6750   10.7840 ha        1 ABS      0.122000
     47 H8         -0.7490    0.0100   -1.8640 h5        1 ABS      0.128800
     48 H2'         2.7640   -1.0080   -2.0910 hc        1 ABS      0.054200
     49 H2''        3.6700    0.1220   -3.1760 hc        1 ABS      0.054200
     50 H3'         1.2600   -1.6180   -3.8170 h1        1 ABS      0.105700
     51 HO3'        2.1660   -1.4150   -5.7870 ho        1 ABS      0.501000
@<TRIPOS>BOND
     1    1    2 1   
     2    1    3 1   
     3    1    4 1   
     4    1   31 1   
     5    4    5 1   
     6    5    6 1   
     7    5   32 1   
     8    5   33 1   
     9    6    7 1   
    10    6   29 1   
    11    6   34 1   
    12    7    8 1   
    13    8    9 1   
    14    8   28 1   
    15    8   35 1   
    16    9   10 1   
    17    9   27 1   
    18   10   11 ar  
    19   10   25 ar  
    20   11   12 ar  
    21   12   13 ar  
    22   12   36 1   
    23   13   14 ar  
    24   14   15 1   
    25   14   25 ar  
    26   15   18 1   
    27   15   37 1   
    28   16   17 1   
    29   16   18 1   
    30   16   19 1   
    31   16   38 1   
    32   17   39 1   
    33   18   40 1   
    34   18   41 1   
    35   19   20 ar  
    36   19   21 ar  
    37   20   22 ar  
    38   20   42 1   
    39   21   23 ar  
    40   21   43 1   
    41   22   24 ar  
    42   22   44 1   
    43   23   24 ar  
    44   23   45 1   
    45   24   46 1   
    46   25   26 1   
    47   26   27 2   
    48   27   47 1   
    49   28   29 1   
    50   28   48 1   
    51   28   49 1   
    52   29   30 1   
    53   29   50 1   
    54   30   51 1   
@<TRIPOS>SUBSTRUCTURE
     1 ABS         1 TEMP              0 ****  ****    0 ROOT
