@<TRIPOS>MOLECULE
ABU
   15    14     1     0     0
SMALL
bcc


@<TRIPOS>ATOM
      1 N          -2.1800   -0.0000   -1.1020 n3        1 ABU     -0.922800
      2 CA         -0.7540   -0.0000   -1.1020 c3        1 ABU      0.155800
      3 CB         -0.2500   -0.0000    0.3250 c3        1 ABU     -0.056400
      4 CG          1.2630    0.0000    0.3250 c3        1 ABU     -0.198400
      5 CD          1.7670    0.0000    1.7510 c         1 ABU      0.909600
      6 OE1         1.9770   -1.0900    2.3440 o         1 ABU     -0.852300
      7 OE2         1.9770    1.0900    2.3450 o         1 ABU     -0.852300
      8 H          -2.4840    0.7450   -1.5310 hn        1 ABU      0.331800
      9 HN2        -2.4840   -0.7450   -1.5310 hn        1 ABU      0.331800
     10 HA1        -0.4290    0.7970   -1.5620 h1        1 ABU      0.011700
     11 HA2        -0.4290   -0.7970   -1.5620 h1        1 ABU      0.011700
     12 HB1        -0.5750   -0.7970    0.7850 hc        1 ABU      0.048700
     13 HB2        -0.5760    0.7970    0.7850 hc        1 ABU      0.048700
     14 HG1         1.5880    0.7970   -0.1350 hc        1 ABU      0.016700
     15 HG2         1.5890   -0.7970   -0.1360 hc        1 ABU      0.016700
@<TRIPOS>BOND
     1    1    2 1   
     2    1    8 1   
     3    1    9 1   
     4    2    3 1   
     5    2   10 1   
     6    2   11 1   
     7    3    4 1   
     8    3   12 1   
     9    3   13 1   
    10    4    5 1   
    11    4   14 1   
    12    4   15 1   
    13    5    6 1   
    14    5    7 1   
@<TRIPOS>SUBSTRUCTURE
     1 ABU         1 TEMP              0 ****  ****    0 ROOT
