@<TRIPOS>MOLECULE
ABU
   15    14     1     0     0
SMALL
bcc


@<TRIPOS>ATOM
      1 N           3.4440    0.1270    0.0430 n3        1 ABU     -0.908800
      2 CA          2.2180   -0.6390   -0.0250 c3        1 ABU      0.134800
      3 CB          0.9180    0.1610    0.0160 c3        1 ABU     -0.101400
      4 CG         -0.2880   -0.7420   -0.0460 c3        1 ABU     -0.192400
      5 CD         -1.5880    0.0480    0.1980 c         1 ABU      0.908600
      6 OE1        -1.6010    0.9220    1.1130 o         1 ABU     -0.852300
      7 OE2        -2.5880   -0.2330   -0.5230 o         1 ABU     -0.852300
      8 H           3.4740    0.7860   -0.7130 hn        1 ABU      0.329300
      9 HN2         3.4700    0.6500    0.8980 hn        1 ABU      0.329300
     10 HA1         2.2460   -1.2430   -0.9760 h1        1 ABU      0.037700
     11 HA2         2.2250   -1.3680    0.8350 h1        1 ABU      0.037700
     12 HB1         0.8600    0.7680    0.9590 hc        1 ABU      0.044200
     13 HB2         0.8880    0.8800   -0.8430 hc        1 ABU      0.044200
     14 HG1        -0.3450   -1.2510   -1.0400 hc        1 ABU      0.020700
     15 HG2        -0.2170   -1.5330    0.7430 hc        1 ABU      0.020700
@<TRIPOS>BOND
     1    1    2 1   
     2    1    8 1   
     3    1    9 1   
     4    2    3 1   
     5    2   10 1   
     6    2   11 1   
     7    3    4 1   
     8    3   12 1   
     9    3   13 1   
    10    4    5 1   
    11    4   14 1   
    12    4   15 1   
    13    5    6 1   
    14    5    7 1   
@<TRIPOS>SUBSTRUCTURE
     1 ABU         1 TEMP              0 ****  ****    0 ROOT
