@<TRIPOS>MOLECULE
ABV
   17    17     1     0     0
SMALL
bcc


@<TRIPOS>ATOM
      1 C1          0.3010    0.0810    0.0700 c3        1 ABV     -0.095000
      2 N1         -1.2160   -0.4380    3.4340 n2        1 ABV     -0.298000
      3 S1         -2.3670    0.0820    0.4370 s         1 ABV      0.222000
      4 C2          1.4690   -0.0530    1.0440 c2        1 ABV     -0.017000
      5 C3          2.7160   -0.0420    0.6720 c1        1 ABV      0.132000
      6 C4          0.9410   -0.1950    2.3690 c2        1 ABV     -0.248000
      7 C5         -0.4600   -0.1970    2.3480 c2        1 ABV      0.175000
      8 C6         -0.9410   -0.0080    0.9300 c2        1 ABV     -0.256000
      9 C7         -2.5010   -0.0790    3.5560 c2        1 ABV      0.191000
     10 H1          0.3270   -0.7480   -0.6860 hc        1 ABV      0.161000
     11 H2          0.3520    1.0680   -0.4640 hc        1 ABV      0.161000
     12 HN2        -2.9820    0.6920    2.8950 h5        1 ABV      0.167000
     13 HN2A       -2.9790   -1.2750    5.1620 hn        1 ABV      0.262500
     14 H3          1.5630   -0.3050    3.2600 ha        1 ABV      0.198000
     15 H4          3.7390   -0.0250    0.3490 ha        1 ABV      0.281000
     16 N2         -3.2900   -0.5720    4.5270 n3        1 ABV     -0.298000
     17 H23        -4.1940   -0.1820    4.6680 hn        1 ABV      0.262500
@<TRIPOS>BOND
     1    1    4 1   
     2    1    8 1   
     3    1   10 1   
     4    1   11 1   
     5    2    7 1   
     6    2    9 1   
     7    3    8 1   
     8    4    5 1   
     9    4    6 1   
    10    5   15 1   
    11    6    7 1   
    12    6   14 1   
    13    7    8 1   
    14    9   12 1   
    15    9   16 1   
    16   13   16 1   
    17   16   17 1   
@<TRIPOS>SUBSTRUCTURE
     1 ABV         1 TEMP              0 ****  ****    0 ROOT
