@<TRIPOS>MOLECULE
ABV
   16    16     1     0     0
SMALL
bcc


@<TRIPOS>ATOM
      1 C1         -0.1540   -0.1700    0.1680 c2        1 ABV     -0.146000
      2 N1         -1.0750   -0.2140    3.7450 n2        1 ABV     -0.145000
      3 S1         -2.5250    0.0510    1.5520 ss        1 ABV      0.279000
      4 C2          1.2850   -0.3810    0.1840 c2        1 ABV     -0.134000
      5 C3          2.1670    0.4690    0.7270 c2        1 ABV     -0.173000
      6 C4          1.1700   -0.1940    2.7610 c1        1 ABV      0.243000
      7 C5         -0.1760   -0.1780    2.6480 c2        1 ABV     -0.322000
      8 C6         -0.8380   -0.0880    1.3200 c2        1 ABV     -0.214000
      9 C7         -2.3260   -0.1190    3.3220 c2        1 ABV     -0.059000
     10 H1         -0.6430   -0.1290   -0.8170 ha        1 ABV      0.155000
     11 H2          1.6140   -1.3280   -0.2810 ha        1 ABV      0.142000
     12 HN2        -3.3240   -0.2390    5.0880 hn        1 ABV      0.206000
     13 HN2A       -4.2080    0.3810    3.8120 hn        1 ABV      0.206000
     14 H3          1.8880    1.4540    1.1300 ha        1 ABV      0.131500
     15 H4          3.2430    0.2460    0.7530 ha        1 ABV      0.131500
     16 N2         -3.4700   -0.2250    4.1000 nv        1 ABV     -0.303000
@<TRIPOS>BOND
     1    1    4 1   
     2    1    8 1   
     3    1   10 1   
     4    2    7 1   
     5    2    9 1   
     6    3    8 1   
     7    3    9 1   
     8    4    5 1   
     9    4   11 1   
    10    5   14 1   
    11    5   15 1   
    12    6    7 1   
    13    7    8 1   
    14    9   16 1   
    15   12   16 1   
    16   13   16 1   
@<TRIPOS>SUBSTRUCTURE
     1 ABV         1 TEMP              0 ****  ****    0 ROOT
