@<TRIPOS>MOLECULE
ABV
   16    17     1     0     0
SMALL
bcc


@<TRIPOS>ATOM
      1 C1         -1.6070   -1.3140    0.0230 ca        1 ABV     -0.083000
      2 N1          0.9070    1.3800    0.0060 nc        1 ABV     -0.595100
      3 S1          1.1870   -1.2330    0.0800 ss        1 ABV     -0.077100
      4 C2         -2.7920   -0.5920   -0.0080 ca        1 ABV     -0.133000
      5 C3         -2.7770    0.8110   -0.0270 ca        1 ABV     -0.123000
      6 C4         -1.5850    1.5180   -0.0180 ca        1 ABV     -0.089000
      7 C5         -0.3700    0.8050    0.0110 ca        1 ABV      0.116400
      8 C6         -0.3920   -0.6290    0.0350 ca        1 ABV     -0.095100
      9 C7          1.8340    0.4160    0.0510 cd        1 ABV      0.566100
     10 H1         -1.6230   -2.4130    0.0400 ha        1 ABV      0.138000
     11 H2         -3.7550   -1.1230   -0.0160 ha        1 ABV      0.135000
     12 HN2         3.5140    1.5500    0.1090 hn        1 ABV      0.407300
     13 HN2A        3.7430   -0.0290   -0.3770 hn        1 ABV      0.407300
     14 H3         -3.7320    1.3580   -0.0500 ha        1 ABV      0.135000
     15 H4         -1.5770    2.6170   -0.0320 ha        1 ABV      0.150000
     16 N2          3.2050    0.6020    0.1770 nh        1 ABV     -0.859800
@<TRIPOS>BOND
     1    1    4 ar  
     2    1    8 ar  
     3    1   10 1   
     4    2    7 1   
     5    2    9 2   
     6    3    8 1   
     7    3    9 1   
     8    4    5 ar  
     9    4   11 1   
    10    5    6 ar  
    11    5   14 1   
    12    6    7 ar  
    13    6   15 1   
    14    7    8 ar  
    15    9   16 1   
    16   12   16 1   
    17   13   16 1   
@<TRIPOS>SUBSTRUCTURE
     1 ABV         1 TEMP              0 ****  ****    0 ROOT
