@<TRIPOS>MOLECULE
ABV
   16    14     1     0     0
SMALL
bcc


@<TRIPOS>ATOM
      1 C1          0.4040    0.0020   -1.8800 c1        1 ABV     -0.025500
      2 N1         -0.6290    0.0020    1.7410 ne        1 ABV     -0.507700
      3 S1         -1.7970    0.0020   -0.3520 ss        1 ABV     -0.075300
      4 C2          1.8020    0.0020   -1.8800 c1        1 ABV     -0.070500
      5 N2         -3.1650   -0.0070    1.8930 nh        1 ABV     -0.859800
      6 C3          2.5080    0.0020   -0.6600 c1        1 ABV     -0.070500
      7 C4          1.8100    0.0020    0.5520 c1        1 ABV     -0.031500
      8 C5          0.4230    0.0020    0.5550 cg        1 ABV      0.029000
      9 C6         -0.2900    0.0020   -0.6780 c1        1 ABV     -0.096900
     10 C7         -1.9380    0.0020    1.1810 c2        1 ABV      0.566100
     11 H1         -0.0840    0.0020   -2.7260 ha        1 ABV      0.080500
     12 H2          2.2890    0.0020   -2.7260 ha        1 ABV      0.077500
     13 HN2        -3.1620   -0.0080    2.8050 hn        1 ABV      0.407300
     14 HN2A       -3.9560   -0.0090    1.4400 hn        1 ABV      0.407300
     15 H3          3.4840    0.0020   -0.6610 ha        1 ABV      0.077500
     16 H4          2.3000    0.0020    1.3970 ha        1 ABV      0.092500
@<TRIPOS>BOND
     1    1    9 3   
     2    1   11 1   
     3    2    8 1   
     4    2   10 2   
     5    3    9 1   
     6    3   10 1   
     7    4    6 3   
     8    4   12 1   
     9    5   10 1   
    10    5   13 1   
    11    5   14 1   
    12    6   15 1   
    13    7    8 3   
    14    7   16 1   
@<TRIPOS>SUBSTRUCTURE
     1 ABV         1 TEMP              0 ****  ****    0 ROOT
