@<TRIPOS>MOLECULE
ABV
   16    17     1     0     0
SMALL
bcc


@<TRIPOS>ATOM
      1 C1          0.0550   -0.0150    0.0120 c3        1 ABV     -0.169000
      2 N1         -0.9250    0.1600    3.6170 n2        1 ABV     -0.053000
      3 S1         -2.3400   -0.1940    1.4600 ss        1 ABV      0.552000
      4 C2          1.4950    0.1650    0.1170 c1        1 ABV     -0.057000
      5 C3          2.1290    0.3220    1.4150 c3        1 ABV     -0.295000
      6 C4          1.3520    0.3090    2.6580 c1        1 ABV      0.006000
      7 C5         -0.0630    0.1550    2.5240 c2        1 ABV     -0.167000
      8 C6         -0.7120   -0.0150    1.2730 c2        1 ABV     -0.382000
      9 C7         -2.1860   -0.0170    3.2040 c2        1 ABV     -0.219000
     10 H1         -0.3220    0.8000   -0.6770 hc        1 ABV      0.159000
     11 H2         -0.1050   -0.9880   -0.5460 hc        1 ABV      0.159000
     12 HN2        -3.8040    0.7420    4.0930 hn        1 ABV      0.181500
     13 HN2A       -3.1600   -0.5500    4.8810 hn        1 ABV      0.181500
     14 H3          2.7210    1.2920    1.3950 hc        1 ABV      0.190000
     15 H4          2.9280   -0.4810    1.5060 hc        1 ABV      0.190000
     16 N2         -3.3500   -0.1470    3.9810 nh        1 ABV     -0.276000
@<TRIPOS>BOND
     1    1    4 1   
     2    1    8 1   
     3    1   10 1   
     4    1   11 1   
     5    2    7 1   
     6    2    9 1   
     7    3    8 1   
     8    3    9 1   
     9    4    5 1   
    10    5    6 1   
    11    5   14 1   
    12    5   15 1   
    13    6    7 1   
    14    7    8 1   
    15    9   16 1   
    16   12   16 1   
    17   13   16 1   
@<TRIPOS>SUBSTRUCTURE
     1 ABV         1 TEMP              0 ****  ****    0 ROOT
