@<TRIPOS>MOLECULE
ABW
   43    43     1     0     0
SMALL
bcc


@<TRIPOS>ATOM
      1 C1          0.0450    1.3360   -0.5330 c3        1 ABW     -0.134700
      2 C13        -0.2120    0.0700    0.3210 c3        1 ABW      0.136100
      3 O6         -1.5330   -0.3590   -0.0150 os        1 ABW     -0.411600
      4 C3         -2.3220    0.8170   -0.2910 c3        1 ABW      0.005100
      5 C4         -1.3570    1.8560   -0.8710 c3        1 ABW     -0.080400
      6 C5         -3.0000    1.3500    1.0010 c         1 ABW      0.908600
      7 O1         -4.2290    1.6220    0.9220 o         1 ABW     -0.831800
      8 O2         -2.2840    1.5030    2.0280 o         1 ABW     -0.831800
      9 N2          2.1230   -0.7070    0.2040 n         1 ABW     -0.563900
     10 C6          3.1380   -1.0600   -0.6500 c         1 ABW      0.654100
     11 C7          4.5130   -0.5050   -0.3480 c3        1 ABW     -0.174100
     12 O4          2.9590   -1.8200   -1.6280 o         1 ABW     -0.643100
     13 C8          0.7460   -1.1050    0.0000 c3        1 ABW      0.098700
     14 C2          0.3440   -2.3250    0.8570 c3        1 ABW     -0.075400
     15 C9         -0.4800   -3.3200    0.0510 c3        1 ABW     -0.069700
     16 C10         0.3990   -4.1310   -0.8790 c3        1 ABW     -0.091600
     17 C15        -1.2470   -4.2360    0.9820 c3        1 ABW     -0.091600
     18 C14         0.9070    2.3230    0.1890 c         1 ABW      0.666100
     19 O3          1.8320    2.1110    0.9840 o         1 ABW     -0.589000
     20 O5          0.6670    3.6310   -0.1440 os        1 ABW     -0.429900
     21 C16         1.3880    4.6210    0.5850 c3        1 ABW      0.129700
     22 H1          0.5940    1.0650   -1.4760 hc        1 ABW      0.074700
     23 H13        -0.1950    0.3370    1.4160 h1        1 ABW      0.099700
     24 H3         -3.0920    0.4780   -1.0300 h1        1 ABW      0.063700
     25 H41        -1.5470    2.8560   -0.4080 hc        1 ABW      0.055700
     26 H42        -1.4760    1.9510   -1.9760 hc        1 ABW      0.055700
     27 HN2         2.2960   -0.0270    0.9120 hn        1 ABW      0.333500
     28 H71         4.4820    0.6080   -0.2630 hc        1 ABW      0.058033
     29 H72         4.8940   -0.9310    0.6110 hc        1 ABW      0.058033
     30 H73         5.2060   -0.7910   -1.1750 hc        1 ABW      0.058033
     31 H8          0.6220   -1.3740   -1.0930 h1        1 ABW      0.079700
     32 H21         1.2480   -2.8460    1.2640 hc        1 ABW      0.049200
     33 H22        -0.2640   -1.9680    1.7300 hc        1 ABW      0.049200
     34 H9         -1.2260   -2.7350   -0.5620 hc        1 ABW      0.076700
     35 H101        1.0700   -3.4610   -1.4720 hc        1 ABW      0.029700
     36 H102        1.0390   -4.8370   -0.2960 hc        1 ABW      0.029700
     37 H103       -0.2300   -4.7270   -1.5830 hc        1 ABW      0.029700
     38 H151       -1.9640   -3.6450    1.6020 hc        1 ABW      0.029700
     39 H152       -1.8210   -4.9910    0.3940 hc        1 ABW      0.029700
     40 H153       -0.5490   -4.7770    1.6650 hc        1 ABW      0.029700
     41 H161        1.2070    4.5000    1.6800 h1        1 ABW      0.043700
     42 H162        2.4800    4.5350    0.3650 h1        1 ABW      0.043700
     43 H163        0.9700    5.5860    0.2070 h1        1 ABW      0.043700
@<TRIPOS>BOND
     1    1    2 1   
     2    1    5 1   
     3    1   18 1   
     4    1   22 1   
     5    2    3 1   
     6    2   13 1   
     7    2   23 1   
     8    3    4 1   
     9    4    5 1   
    10    4    6 1   
    11    4   24 1   
    12    5   25 1   
    13    5   26 1   
    14    6    7 1   
    15    6    8 1   
    16    9   10 1   
    17    9   13 1   
    18    9   27 1   
    19   10   11 1   
    20   10   12 2   
    21   11   28 1   
    22   11   29 1   
    23   11   30 1   
    24   13   14 1   
    25   13   31 1   
    26   14   15 1   
    27   14   32 1   
    28   14   33 1   
    29   15   16 1   
    30   15   17 1   
    31   15   34 1   
    32   16   35 1   
    33   16   36 1   
    34   16   37 1   
    35   17   38 1   
    36   17   39 1   
    37   17   40 1   
    38   18   19 2   
    39   18   20 1   
    40   20   21 1   
    41   21   41 1   
    42   21   42 1   
    43   21   43 1   
@<TRIPOS>SUBSTRUCTURE
     1 ABW         1 TEMP              0 ****  ****    0 ROOT
