@<TRIPOS>MOLECULE
ABW
   44    44     1     0     0
SMALL
bcc


@<TRIPOS>ATOM
      1 C1         -0.2470   -0.1240    0.4240 c3        1 ABW     -0.146700
      2 C13         1.2500    0.0030    0.0330 c3        1 ABW      0.103100
      3 O6          1.9400    0.1810    1.2700 os        1 ABW     -0.405600
      4 C3          1.1070    1.0680    2.0590 c3        1 ABW     -0.004900
      5 C4         -0.3340    0.6320    1.7600 c3        1 ABW     -0.081400
      6 C5          1.3400    2.5460    1.6180 c         1 ABW      0.913600
      7 O1          1.4030    3.4040    2.5280 o         1 ABW     -0.813800
      8 O2          1.4300    2.7660    0.3750 o         1 ABW     -0.813800
      9 N2          1.4170   -1.1990   -2.1150 n4        1 ABW     -0.688800
     10 C6          1.8580   -2.4020   -2.8870 c         1 ABW      0.553100
     11 C7          2.7290   -2.1400   -4.0710 c3        1 ABW     -0.191100
     12 O4          1.4580   -3.4930   -2.4990 o         1 ABW     -0.433100
     13 C8          1.8520   -1.2340   -0.6660 c3        1 ABW      0.135500
     14 C2          3.3810   -1.2380   -0.5320 c3        1 ABW     -0.088400
     15 C9          3.8230   -2.1030    0.6420 c3        1 ABW     -0.067700
     16 C10         3.7650   -3.5760    0.2990 c3        1 ABW     -0.096100
     17 C15         5.2290   -1.7150    1.0570 c3        1 ABW     -0.096100
     18 C14        -1.1310    0.4150   -0.6590 c         1 ABW      0.674100
     19 O3         -1.0050    0.1950   -1.8800 o         1 ABW     -0.650000
     20 O5         -2.1870    1.1540   -0.2540 os        1 ABW     -0.384900
     21 C16        -2.9920    1.7600   -1.2740 c3        1 ABW      0.123700
     22 H1         -0.5340   -1.2000    0.5710 hc        1 ABW      0.071700
     23 H13         1.4070    0.9480   -0.5780 h1        1 ABW      0.141700
     24 H3          1.4220    0.8970    3.1160 h1        1 ABW      0.089700
     25 H41        -0.7310   -0.0430    2.5550 hc        1 ABW      0.072700
     26 H42        -0.9970    1.5300    1.6900 hc        1 ABW      0.072700
     27 HN2         0.3770   -1.1370   -2.1310 hn        1 ABW      0.477800
     28 H71         2.2100   -1.4700   -4.8030 hc        1 ABW      0.104700
     29 H72         2.9600   -3.1150   -4.5720 hc        1 ABW      0.104700
     30 H73         3.6890   -1.6600   -3.7530 hc        1 ABW      0.104700
     31 H8          1.4210   -2.1840   -0.2310 hx        1 ABW      0.105700
     32 H21         3.7290   -0.1820   -0.3590 hc        1 ABW      0.065200
     33 H22         3.8720   -1.6170   -1.4670 hc        1 ABW      0.065200
     34 H9          3.1320   -1.8930    1.5100 hc        1 ABW      0.087700
     35 H101        4.5360   -3.8340   -0.4680 hc        1 ABW      0.039700
     36 H102        2.7620   -3.8580   -0.1030 hc        1 ABW      0.039700
     37 H103        3.9630   -4.1880    1.2120 hc        1 ABW      0.039700
     38 H151        5.5700   -2.3660    1.8970 hc        1 ABW      0.039700
     39 H152        5.9400   -1.8340    0.2040 hc        1 ABW      0.039700
     40 H153        5.2530   -0.6520    1.3990 hc        1 ABW      0.039700
     41 H161       -3.7470    2.3410   -0.6880 h1        1 ABW      0.060367
     42 H162       -2.3600    2.4270   -1.9070 h1        1 ABW      0.060367
     43 H163       -3.4710    0.9670   -1.8960 h1        1 ABW      0.060367
     44 H221        1.7840   -0.3430   -2.5450 hn        1 ABW      0.477800
@<TRIPOS>BOND
     1    1    2 1   
     2    1    5 1   
     3    1   18 1   
     4    1   22 1   
     5    2    3 1   
     6    2   13 1   
     7    2   23 1   
     8    3    4 1   
     9    4    5 1   
    10    4    6 1   
    11    4   24 1   
    12    5   25 1   
    13    5   26 1   
    14    6    7 1   
    15    6    8 1   
    16    9   10 1   
    17    9   13 1   
    18    9   27 1   
    19    9   44 1   
    20   10   11 1   
    21   10   12 2   
    22   11   28 1   
    23   11   29 1   
    24   11   30 1   
    25   13   14 1   
    26   13   31 1   
    27   14   15 1   
    28   14   32 1   
    29   14   33 1   
    30   15   16 1   
    31   15   17 1   
    32   15   34 1   
    33   16   35 1   
    34   16   36 1   
    35   16   37 1   
    36   17   38 1   
    37   17   39 1   
    38   17   40 1   
    39   18   19 2   
    40   18   20 1   
    41   20   21 1   
    42   21   41 1   
    43   21   42 1   
    44   21   43 1   
@<TRIPOS>SUBSTRUCTURE
     1 ABW         1 TEMP              0 ****  ****    0 ROOT
