@<TRIPOS>MOLECULE
ABW
   44    44     1     0     0
SMALL
bcc


@<TRIPOS>ATOM
      1 C1         -0.2520   -0.1340    0.4230 c3        1 ABW     -0.146700
      2 C13         1.2450    0.0010    0.0370 c3        1 ABW      0.103100
      3 O6          1.9320    0.1740    1.2760 os        1 ABW     -0.405600
      4 C3          1.0930    1.0530    2.0690 c3        1 ABW     -0.004900
      5 C4         -0.3450    0.6140    1.7630 c3        1 ABW     -0.081400
      6 C5          1.3220    2.5340    1.6390 c         1 ABW      0.913600
      7 O1          1.3800    3.3860    2.5540 o         1 ABW     -0.813800
      8 O2          1.4140    2.7640    0.3970 o         1 ABW     -0.813800
      9 N2          1.4230   -1.1850   -2.1200 n4        1 ABW     -0.688800
     10 C6          1.8710   -2.3810   -2.8980 c         1 ABW      0.553100
     11 C7          2.7450   -2.1080   -4.0770 c3        1 ABW     -0.191100
     12 O4          1.4730   -3.4760   -2.5190 o         1 ABW     -0.433100
     13 C8          1.8540   -1.2280   -0.6690 c3        1 ABW      0.135500
     14 C2          3.3830   -1.2280   -0.5300 c3        1 ABW     -0.088400
     15 C9          3.8240   -2.0990    0.6400 c3        1 ABW     -0.067700
     16 C10         3.7730   -3.5700    0.2860 c3        1 ABW     -0.096100
     17 C15         5.2270   -1.7090    1.0610 c3        1 ABW     -0.096100
     18 C14        -1.1350    0.4080   -0.6590 c         1 ABW      0.674100
     19 O3         -1.0050    0.1980   -1.8810 o         1 ABW     -0.650000
     20 O5         -2.1960    1.1390   -0.2520 os        1 ABW     -0.384900
     21 C16        -3.0020    1.7480   -1.2690 c3        1 ABW      0.123700
     22 H1         -0.5350   -1.2120    0.5630 hc        1 ABW      0.071700
     23 H13         1.4000    0.9510   -0.5680 h1        1 ABW      0.141700
     24 H3          1.4060    0.8760    3.1260 h1        1 ABW      0.089700
     25 H41        -0.7420   -0.0680    2.5530 hc        1 ABW      0.072700
     26 H42        -1.0120    1.5090    1.6970 hc        1 ABW      0.072700
     27 HN2         0.3840   -1.1250   -2.1390 hn        1 ABW      0.477800
     28 H71         2.2270   -1.4360   -4.8070 hc        1 ABW      0.104700
     29 H72         3.7030   -1.6270   -3.7530 hc        1 ABW      0.104700
     30 H73         2.9810   -3.0790   -4.5840 hc        1 ABW      0.104700
     31 H8          1.4260   -2.1830   -0.2430 hx        1 ABW      0.105700
     32 H21         3.7260   -0.1720   -0.3490 hc        1 ABW      0.065200
     33 H22         3.8780   -1.5990   -1.4670 hc        1 ABW      0.065200
     34 H9          3.1290   -1.8980    1.5060 hc        1 ABW      0.087700
     35 H101        4.5470   -3.8200   -0.4800 hc        1 ABW      0.039700
     36 H102        2.7720   -3.8530   -0.1210 hc        1 ABW      0.039700
     37 H103        3.9700   -4.1880    1.1950 hc        1 ABW      0.039700
     38 H151        5.2460   -0.6480    1.4100 hc        1 ABW      0.039700
     39 H152        5.9410   -1.8200    0.2100 hc        1 ABW      0.039700
     40 H153        5.5680   -2.3650    1.8980 hc        1 ABW      0.039700
     41 H161       -2.3720    2.4230   -1.8960 h1        1 ABW      0.060367
     42 H162       -3.4750    0.9570   -1.8990 h1        1 ABW      0.060367
     43 H163       -3.7610    2.3210   -0.6820 h1        1 ABW      0.060367
     44 H221        1.7890   -0.3250   -2.5430 hn        1 ABW      0.477800
@<TRIPOS>BOND
     1    1    2 1   
     2    1    5 1   
     3    1   18 1   
     4    1   22 1   
     5    2    3 1   
     6    2   13 1   
     7    2   23 1   
     8    3    4 1   
     9    4    5 1   
    10    4    6 1   
    11    4   24 1   
    12    5   25 1   
    13    5   26 1   
    14    6    7 1   
    15    6    8 1   
    16    9   10 1   
    17    9   13 1   
    18    9   27 1   
    19    9   44 1   
    20   10   11 1   
    21   10   12 2   
    22   11   28 1   
    23   11   29 1   
    24   11   30 1   
    25   13   14 1   
    26   13   31 1   
    27   14   15 1   
    28   14   32 1   
    29   14   33 1   
    30   15   16 1   
    31   15   17 1   
    32   15   34 1   
    33   16   35 1   
    34   16   36 1   
    35   16   37 1   
    36   17   38 1   
    37   17   39 1   
    38   17   40 1   
    39   18   19 2   
    40   18   20 1   
    41   20   21 1   
    42   21   41 1   
    43   21   42 1   
    44   21   43 1   
@<TRIPOS>SUBSTRUCTURE
     1 ABW         1 TEMP              0 ****  ****    0 ROOT
