@<TRIPOS>MOLECULE
ABW
   43    43     1     0     0
SMALL
bcc


@<TRIPOS>ATOM
      1 C1         -1.5910    0.7690    0.3540 c3        1 ABW     -0.132700
      2 C13        -0.0210    0.6480    0.6030 c3        1 ABW      0.135100
      3 O6          0.1790    0.4950    2.0530 os        1 ABW     -0.412600
      4 C3         -0.9390    0.7880    2.6060 c3        1 ABW      0.006100
      5 C4         -2.0560    0.4210    1.4510 c3        1 ABW     -0.080400
      6 C5         -1.0140    2.2650    3.1120 c         1 ABW      0.908600
      7 O1         -2.0810    2.6980    3.6420 o         1 ABW     -0.831300
      8 O2          0.0350    2.9910    3.1100 o         1 ABW     -0.831300
      9 N2          0.7960   -0.1360   -1.4470 n         1 ABW     -0.563900
     10 C6          0.1340   -0.8340   -2.5410 c         1 ABW      0.654100
     11 C7          0.5380   -0.5500   -3.9870 c3        1 ABW     -0.174100
     12 O4         -0.7500   -1.6300   -2.3050 o         1 ABW     -0.643100
     13 C8          0.4980   -0.4900   -0.0830 c3        1 ABW      0.099700
     14 C2          1.8190   -0.9820    0.6360 c3        1 ABW     -0.086400
     15 C9          2.1600   -2.4370    0.1630 c3        1 ABW     -0.071700
     16 C10         1.9670   -3.4120    1.3170 c3        1 ABW     -0.085100
     17 C15         3.5750   -2.4890   -0.2950 c3        1 ABW     -0.085100
     18 C14        -2.0910    2.2930   -0.1470 c         1 ABW      0.666100
     19 O3         -1.3710    3.2560    0.0320 o         1 ABW     -0.589000
     20 O5         -3.2960    2.4370   -0.8800 os        1 ABW     -0.429900
     21 C16        -3.7280    3.8050   -1.0270 c3        1 ABW      0.129700
     22 H1         -1.8930    0.2090   -0.3740 hc        1 ABW      0.074700
     23 H13         0.4370    1.4750    0.2830 h1        1 ABW      0.098700
     24 H3         -1.0870    0.2800    3.4410 h1        1 ABW      0.063700
     25 H41        -2.2260   -0.5520    1.4480 hc        1 ABW      0.055700
     26 H42        -2.8850    0.9020    1.6280 hc        1 ABW      0.055700
     27 HN2         1.3800    0.5340   -1.6240 hn        1 ABW      0.332500
     28 H71        -0.0410   -1.0490   -4.5880 hc        1 ABW      0.058033
     29 H72         1.4730   -0.8250   -4.1270 hc        1 ABW      0.058033
     30 H73         0.4490    0.4120   -4.1700 hc        1 ABW      0.058033
     31 H8         -0.1670   -1.2100   -0.0700 h1        1 ABW      0.081700
     32 H21         1.6840   -0.9760    1.6130 hc        1 ABW      0.062700
     33 H22         2.5590   -0.3830    0.4040 hc        1 ABW      0.062700
     34 H9          1.5870   -2.6780   -0.5530 hc        1 ABW      0.059700
     35 H101        1.0220   -3.4310    1.5750 hc        1 ABW      0.027533
     36 H102        2.5150   -3.1220    2.0910 hc        1 ABW      0.027533
     37 H103        2.2520   -4.3270    1.0310 hc        1 ABW      0.027533
     38 H151        3.7850   -3.4000   -0.6180 hc        1 ABW      0.027533
     39 H152        3.7040   -1.8500   -1.0180 hc        1 ABW      0.027533
     40 H153        4.1660   -2.2630    0.4490 hc        1 ABW      0.027533
     41 H161       -3.8270    4.2110   -0.1450 h1        1 ABW      0.043700
     42 H162       -3.0560    4.3080   -1.5480 h1        1 ABW      0.043700
     43 H163       -4.5920    3.8280   -1.4970 h1        1 ABW      0.043700
@<TRIPOS>BOND
     1    1    2 1   
     2    1    5 1   
     3    1   18 1   
     4    1   22 1   
     5    2    3 1   
     6    2   13 1   
     7    2   23 1   
     8    3    4 1   
     9    4    5 1   
    10    4    6 1   
    11    4   24 1   
    12    5   25 1   
    13    5   26 1   
    14    6    7 1   
    15    6    8 1   
    16    9   10 1   
    17    9   13 1   
    18    9   27 1   
    19   10   11 1   
    20   10   12 2   
    21   11   28 1   
    22   11   29 1   
    23   11   30 1   
    24   13   14 1   
    25   13   31 1   
    26   14   15 1   
    27   14   32 1   
    28   14   33 1   
    29   15   16 1   
    30   15   17 1   
    31   15   34 1   
    32   16   35 1   
    33   16   36 1   
    34   16   37 1   
    35   17   38 1   
    36   17   39 1   
    37   17   40 1   
    38   18   19 2   
    39   18   20 1   
    40   20   21 1   
    41   21   41 1   
    42   21   42 1   
    43   21   43 1   
@<TRIPOS>SUBSTRUCTURE
     1 ABW         1 TEMP              0 ****  ****    0 ROOT
