@<TRIPOS>MOLECULE
ABW
   44    44     1     0     0
SMALL
bcc


@<TRIPOS>ATOM
      1 C1         -0.2600   -0.1680    0.4200 c3        1 ABW     -0.146700
      2 C13         1.2370   -0.0090    0.0410 c3        1 ABW      0.103100
      3 O6          1.9160    0.1590    1.2850 os        1 ABW     -0.405600
      4 C3          1.0630    1.0190    2.0850 c3        1 ABW     -0.004900
      5 C4         -0.3680    0.5640    1.7680 c3        1 ABW     -0.081400
      6 C5          1.2740    2.5070    1.6710 c         1 ABW      0.913600
      7 O1          1.3180    3.3500    2.5960 o         1 ABW     -0.813800
      8 O2          1.3680    2.7510    0.4320 o         1 ABW     -0.813800
      9 N2          1.4410   -1.1670   -2.1280 ny        1 ABW     -0.688800
     10 C6          1.9070   -2.3480   -2.9170 c         1 ABW      0.553100
     11 C7          2.7840   -2.0510   -4.0890 c3        1 ABW     -0.191100
     12 O4          1.5210   -3.4520   -2.5540 o         1 ABW     -0.433100
     13 C8          1.8650   -1.2220   -0.6750 c3        1 ABW      0.135500
     14 C2          3.3920   -1.2050   -0.5290 c3        1 ABW     -0.088400
     15 C9          3.8390   -2.0840    0.6330 c3        1 ABW     -0.067700
     16 C10         3.8070   -3.5510    0.2630 c3        1 ABW     -0.096100
     17 C15         5.2340   -1.6810    1.0670 c3        1 ABW     -0.096100
     18 C14        -1.1460    0.3740   -0.6600 c         1 ABW      0.674100
     19 O3         -1.0080    0.1790   -1.8840 o         1 ABW     -0.650000
     20 O5         -2.2190    1.0850   -0.2490 os        1 ABW     -0.384900
     21 C16        -3.0290    1.6940   -1.2630 c3        1 ABW      0.123700
     22 H1         -0.5290   -1.2510    0.5470 hc        1 ABW      0.071700
     23 H13         1.3810    0.9500   -0.5520 h1        1 ABW      0.141700
     24 H3          1.3740    0.8350    3.1410 h1        1 ABW      0.089700
     25 H41        -1.0460    1.4520    1.7090 hc        1 ABW      0.072700
     26 H42        -0.7590   -0.1310    2.5490 hc        1 ABW      0.072700
     27 HN2         1.7980   -0.2980   -2.5380 hn        1 ABW      0.477800
     28 H71         3.0350   -3.0130   -4.6060 hc        1 ABW      0.104700
     29 H72         3.7340   -1.5610   -3.7540 hc        1 ABW      0.104700
     30 H73         2.2600   -1.3770   -4.8130 hc        1 ABW      0.104700
     31 H8          1.4460   -2.1870   -0.2630 hx        1 ABW      0.105700
     32 H21         3.7220   -0.1460   -0.3340 hc        1 ABW      0.065200
     33 H22         3.8970   -1.5590   -1.4670 hc        1 ABW      0.065200
     34 H9          3.1370   -1.9010    1.4980 hc        1 ABW      0.087700
     35 H101        4.0080   -4.1760    1.1670 hc        1 ABW      0.039700
     36 H102        2.8120   -3.8420   -0.1520 hc        1 ABW      0.039700
     37 H103        4.5880   -3.7830   -0.5020 hc        1 ABW      0.039700
     38 H151        5.5800   -2.3420    1.8980 hc        1 ABW      0.039700
     39 H152        5.2380   -0.6240    1.4280 hc        1 ABW      0.039700
     40 H153        5.9540   -1.7740    0.2180 hc        1 ABW      0.039700
     41 H161       -3.4880    0.9040   -1.9030 h1        1 ABW      0.060367
     42 H162       -3.7990    2.2510   -0.6720 h1        1 ABW      0.060367
     43 H163       -2.4050    2.3850   -1.8800 h1        1 ABW      0.060367
     44 H221        0.4000   -1.1210   -2.1510 hn        1 ABW      0.477800
@<TRIPOS>BOND
     1    1    2 1   
     2    1    5 1   
     3    1   18 1   
     4    1   22 1   
     5    2    3 1   
     6    2   13 1   
     7    2   23 1   
     8    3    4 1   
     9    4    5 1   
    10    4    6 1   
    11    4   24 1   
    12    5   25 1   
    13    5   26 1   
    14    6    7 1   
    15    6    8 1   
    16    9   10 1   
    17    9   13 1   
    18    9   27 1   
    19    9   44 1   
    20   10   11 1   
    21   10   12 2   
    22   11   28 1   
    23   11   29 1   
    24   11   30 1   
    25   13   14 1   
    26   13   31 1   
    27   14   15 1   
    28   14   32 1   
    29   14   33 1   
    30   15   16 1   
    31   15   17 1   
    32   15   34 1   
    33   16   35 1   
    34   16   36 1   
    35   16   37 1   
    36   17   38 1   
    37   17   39 1   
    38   17   40 1   
    39   18   19 2   
    40   18   20 1   
    41   20   21 1   
    42   21   41 1   
    43   21   42 1   
    44   21   43 1   
@<TRIPOS>SUBSTRUCTURE
     1 ABW         1 TEMP              0 ****  ****    0 ROOT
