@<TRIPOS>MOLECULE
ABX
   44    44     1     0     0
SMALL
bcc


@<TRIPOS>ATOM
      1 C1         -1.4480    0.5900    0.9250 c3        1 ABX     -0.134700
      2 C2         -0.1420    0.6990    0.6410 c3        1 ABX      0.153500
      3 N1          0.6540    0.8470    2.0370 n3        1 ABX     -0.749200
      4 C3         -0.0640    1.6370    2.8290 c3        1 ABX      0.022500
      5 C4         -1.5620    1.3860    2.3050 c3        1 ABX     -0.084400
      6 C5          0.3720    3.1210    2.8020 c         1 ABX      0.937600
      7 O1          1.5090    3.4320    2.3770 o         1 ABX     -0.829800
      8 O2         -0.3990    4.0040    3.2200 o         1 ABX     -0.829800
      9 N2         -0.1270   -0.4870   -1.4200 n         1 ABX     -0.567900
     10 C6         -0.8220   -1.5910   -1.9650 c         1 ABX      0.654100
     11 C7         -0.9760   -1.7240   -3.4750 c3        1 ABX     -0.173100
     12 O3         -1.3240   -2.4170   -1.2270 o         1 ABX     -0.641100
     13 C8          0.3290   -0.5300   -0.0900 c3        1 ABX      0.094700
     14 C9          1.8650   -0.5770   -0.0780 c3        1 ABX     -0.091400
     15 C10         2.3390   -2.0310   -0.2940 c3        1 ABX     -0.073700
     16 C11         2.9860   -2.5470    0.9810 c3        1 ABX     -0.086100
     17 C12         3.3610   -2.0720   -1.4380 c3        1 ABX     -0.086100
     18 C13        -2.4330    1.1490   -0.2440 c         1 ABX      0.664100
     19 O4         -3.0780    0.3720   -0.9150 o         1 ABX     -0.591000
     20 O5         -2.6240    2.5570   -0.4020 os        1 ABX     -0.429900
     21 C14        -3.9110    2.9160   -0.9530 c3        1 ABX      0.128700
     22 H1         -1.7350   -0.3370    1.0070 hc        1 ABX      0.069700
     23 H2          0.0110    1.4940    0.0860 h1        1 ABX      0.088700
     24 HN1         0.7430    0.0220    2.4270 hn        1 ABX      0.324800
     25 H3          0.0430    1.4090    3.7830 h1        1 ABX      0.033700
     26 H41        -2.0150    2.2470    2.1590 hc        1 ABX      0.064700
     27 H42        -2.0620    0.8510    2.9590 hc        1 ABX      0.064700
     28 HN2         0.0650    0.2390   -1.9480 hn        1 ABX      0.333500
     29 H71        -1.8210   -2.1840   -3.6780 hc        1 ABX      0.058700
     30 H72        -0.9830   -0.8350   -3.8820 hc        1 ABX      0.058700
     31 H73        -0.2260   -2.2440   -3.8360 hc        1 ABX      0.058700
     32 H8         -0.0240   -1.3230    0.3480 h1        1 ABX      0.073700
     33 H91         2.2170   -0.0070   -0.8000 hc        1 ABX      0.059700
     34 H92         2.1980   -0.2490    0.7920 hc        1 ABX      0.059700
     35 H10         1.5770   -2.5900   -0.5210 hc        1 ABX      0.061700
     36 H111        3.4830   -3.3700    0.7860 hc        1 ABX      0.028700
     37 H112        2.2900   -2.7350    1.6480 hc        1 ABX      0.028700
     38 H113        3.6000   -1.8700    1.3330 hc        1 ABX      0.028700
     39 H121        4.1380   -1.5130   -1.2040 hc        1 ABX      0.028700
     40 H122        3.6560   -2.9990   -1.5810 hc        1 ABX      0.028700
     41 H123        2.9480   -1.7300   -2.2580 hc        1 ABX      0.028700
     42 H141       -4.0090    3.8940   -0.9460 h1        1 ABX      0.042700
     43 H142       -4.6230    2.5130   -0.4100 h1        1 ABX      0.042700
     44 H143       -3.9760    2.5860   -1.8800 h1        1 ABX      0.042700
@<TRIPOS>BOND
     1    1    2 1   
     2    1    5 1   
     3    1   18 1   
     4    1   22 1   
     5    2    3 1   
     6    2   13 1   
     7    2   23 1   
     8    3    4 1   
     9    3   24 1   
    10    4    5 1   
    11    4    6 1   
    12    4   25 1   
    13    5   26 1   
    14    5   27 1   
    15    6    7 1   
    16    6    8 1   
    17    9   10 1   
    18    9   13 1   
    19    9   28 1   
    20   10   11 1   
    21   10   12 2   
    22   11   29 1   
    23   11   30 1   
    24   11   31 1   
    25   13   14 1   
    26   13   32 1   
    27   14   15 1   
    28   14   33 1   
    29   14   34 1   
    30   15   16 1   
    31   15   17 1   
    32   15   35 1   
    33   16   36 1   
    34   16   37 1   
    35   16   38 1   
    36   17   39 1   
    37   17   40 1   
    38   17   41 1   
    39   18   19 2   
    40   18   20 1   
    41   20   21 1   
    42   21   42 1   
    43   21   43 1   
    44   21   44 1   
@<TRIPOS>SUBSTRUCTURE
     1 ABX         1 TEMP              0 ****  ****    0 ROOT
