@<TRIPOS>MOLECULE
ABX
   45    45     1     0     0
SMALL
bcc


@<TRIPOS>ATOM
      1 C1         -0.2940   -0.1720    0.4330 c3        1 ABX     -0.125700
      2 C2          1.2430   -0.0560    0.1870 c3        1 ABX      0.137500
      3 N1          1.8530    0.1110    1.5180 n7        1 ABX     -0.772200
      4 C3          0.8790    0.9240    2.2720 c3        1 ABX     -0.004500
      5 C4         -0.5150    0.4630    1.8170 c3        1 ABX     -0.055400
      6 C5          1.0150    2.4630    1.9700 c         1 ABX      0.901600
      7 O1          0.4770    3.2520    2.7790 o         1 ABX     -0.817300
      8 O2          1.6410    2.7760    0.9140 o         1 ABX     -0.817300
      9 N2          1.2080   -1.4040   -1.9040 ny        1 ABX     -0.680800
     10 C6          1.6890   -2.5780   -2.6970 c         1 ABX      0.553100
     11 C7          2.3380   -2.2650   -4.0050 c3        1 ABX     -0.190100
     12 O3          1.4920   -3.6910   -2.2240 o         1 ABX     -0.433100
     13 C8          1.8470   -1.2920   -0.5370 c3        1 ABX      0.136500
     14 C9          3.3740   -1.1690   -0.6440 c3        1 ABX     -0.090400
     15 C10         4.0770   -2.0030    0.4220 c3        1 ABX     -0.072700
     16 C11         4.1460   -3.4600    0.0140 c3        1 ABX     -0.097100
     17 C12         5.4700   -1.4550    0.6580 c3        1 ABX     -0.097100
     18 C13        -1.0620    0.4860   -0.6780 c         1 ABX      0.660100
     19 O4         -0.8820    0.2940   -1.8970 o         1 ABX     -0.662000
     20 O5         -2.0700    1.3040   -0.3080 os        1 ABX     -0.376900
     21 C14        -2.7500    2.0210   -1.3470 c3        1 ABX      0.123700
     22 H1         -0.6140   -1.2480    0.4530 hc        1 ABX      0.063700
     23 H2          1.4310    0.8680   -0.4480 h1        1 ABX      0.098700
     24 HN1         2.7010    0.6490    1.4150 hn        1 ABX      0.377800
     25 H3          1.0400    0.7410    3.3650 h1        1 ABX      0.085700
     26 H41        -0.9390   -0.2990    2.5160 hc        1 ABX      0.072700
     27 H42        -1.2100    1.3390    1.7840 hc        1 ABX      0.072700
     28 HN2         0.1830   -1.4790   -1.7690 hn        1 ABX      0.473300
     29 H71         1.6280   -1.7160   -4.6740 hc        1 ABX      0.105033
     30 H72         2.6340   -3.2260   -4.5000 hc        1 ABX      0.105033
     31 H73         3.2540   -1.6400   -3.8520 hc        1 ABX      0.105033
     32 H8          1.5730   -2.2410    0.0140 hx        1 ABX      0.113700
     33 H91         3.6690   -0.0900   -0.5350 hc        1 ABX      0.058200
     34 H92         3.7410   -1.5040   -1.6520 hc        1 ABX      0.058200
     35 H10         3.5010   -1.9270    1.3890 hc        1 ABX      0.092700
     36 H111        4.5370   -4.0740    0.8610 hc        1 ABX      0.040367
     37 H112        3.1350   -3.8450   -0.2650 hc        1 ABX      0.040367
     38 H113        4.8290   -3.5950   -0.8590 hc        1 ABX      0.040367
     39 H121        6.0610   -1.4540   -0.2890 hc        1 ABX      0.040367
     40 H122        6.0040   -2.0860    1.4090 hc        1 ABX      0.040367
     41 H123        5.4160   -0.4090    1.0480 hc        1 ABX      0.040367
     42 H141       -2.0190    2.6410   -1.9190 h1        1 ABX      0.061033
     43 H142       -3.2680    1.3010   -2.0230 h1        1 ABX      0.061033
     44 H143       -3.4740    2.6580   -0.7800 h1        1 ABX      0.061033
     45 H22         1.3690   -0.5280   -2.4180 hn        1 ABX      0.473300
@<TRIPOS>BOND
     1    1    2 1   
     2    1    5 1   
     3    1   18 1   
     4    1   22 1   
     5    2    3 1   
     6    2   13 1   
     7    2   23 1   
     8    3    4 1   
     9    3   24 1   
    10    4    5 1   
    11    4    6 1   
    12    4   25 1   
    13    5   26 1   
    14    5   27 1   
    15    6    7 1   
    16    6    8 1   
    17    9   10 1   
    18    9   13 1   
    19    9   28 1   
    20    9   45 1   
    21   10   11 1   
    22   10   12 2   
    23   11   29 1   
    24   11   30 1   
    25   11   31 1   
    26   13   14 1   
    27   13   32 1   
    28   14   15 1   
    29   14   33 1   
    30   14   34 1   
    31   15   16 1   
    32   15   17 1   
    33   15   35 1   
    34   16   36 1   
    35   16   37 1   
    36   16   38 1   
    37   17   39 1   
    38   17   40 1   
    39   17   41 1   
    40   18   19 2   
    41   18   20 1   
    42   20   21 1   
    43   21   42 1   
    44   21   43 1   
    45   21   44 1   
@<TRIPOS>SUBSTRUCTURE
     1 ABX         1 TEMP              0 ****  ****    0 ROOT
