@<TRIPOS>MOLECULE
ABX
   44    44     1     0     0
SMALL
bcc


@<TRIPOS>ATOM
      1 C1         -0.0450    1.3550   -0.3590 c3        1 ABX     -0.133700
      2 C2         -0.2250    0.0990    0.5430 c3        1 ABX      0.160500
      3 N1         -1.6440   -0.2530    0.5580 n3        1 ABX     -0.768200
      4 C3         -2.3830    0.6700   -0.3120 c3        1 ABX      0.031500
      5 C4         -1.4660    1.8620   -0.6200 c3        1 ABX     -0.074400
      6 C5         -3.7380    1.1180    0.3390 c         1 ABX      0.938600
      7 O1         -4.6970    0.3080    0.2310 o         1 ABX     -0.829800
      8 O2         -3.7950    2.2560    0.8760 o         1 ABX     -0.829800
      9 N2          2.1160   -0.5900    0.1410 n         1 ABX     -0.563900
     10 C6          3.0210   -0.8330   -0.8650 c         1 ABX      0.653100
     11 C7          4.3880   -0.2020   -0.7250 c3        1 ABX     -0.174100
     12 O3          2.7530   -1.5620   -1.8460 o         1 ABX     -0.639100
     13 C8          0.7420   -1.0470    0.1030 c3        1 ABX      0.079700
     14 C9          0.5170   -2.2880    0.9950 c3        1 ABX     -0.089400
     15 C10        -0.1310   -3.4340    0.2300 c3        1 ABX     -0.066700
     16 C11         0.8780   -4.1400   -0.6520 c3        1 ABX     -0.095600
     17 C12        -0.7600   -4.4130    1.2010 c3        1 ABX     -0.095600
     18 C13         0.8470    2.3700    0.2810 c         1 ABX      0.657100
     19 O4          1.7700    2.1980    1.0880 o         1 ABX     -0.597000
     20 O5          0.6290    3.6520   -0.1440 os        1 ABX     -0.422900
     21 C14         1.4060    4.6770    0.4710 c3        1 ABX      0.127700
     22 H1          0.4430    1.0710   -1.3320 hc        1 ABX      0.073700
     23 H2          0.0340    0.3790    1.6080 h1        1 ABX      0.069700
     24 HN1        -1.7910   -1.1990    0.2610 hn        1 ABX      0.351800
     25 H3         -2.6560    0.1620   -1.2830 h1        1 ABX      0.014700
     26 H41        -1.7300    2.7170    0.0570 hc        1 ABX      0.071700
     27 H42        -1.5820    2.2010   -1.6760 hc        1 ABX      0.071700
     28 HN2         2.3420    0.0830    0.8410 hn        1 ABX      0.331500
     29 H71         4.9210   -0.6350    0.1550 hc        1 ABX      0.059367
     30 H72         4.9780   -0.4130   -1.6490 hc        1 ABX      0.059367
     31 H73         4.3030    0.9030   -0.5890 hc        1 ABX      0.059367
     32 H8          0.5060   -1.3250   -0.9700 h1        1 ABX      0.076700
     33 H91         1.4890   -2.6530    1.4210 hc        1 ABX      0.052200
     34 H92        -0.1290   -2.0100    1.8690 hc        1 ABX      0.052200
     35 H10        -0.9480   -3.0230   -0.4280 hc        1 ABX      0.054700
     36 H111        1.6420   -4.6670   -0.0300 hc        1 ABX      0.033867
     37 H112        0.3670   -4.8950   -1.2960 hc        1 ABX      0.033867
     38 H113        1.4050   -3.4030   -1.3080 hc        1 ABX      0.033867
     39 H121       -1.5710   -3.9150    1.7850 hc        1 ABX      0.033867
     40 H122       -1.2010   -5.2770    0.6460 hc        1 ABX      0.033867
     41 H123        0.0040   -4.8040    1.9150 hc        1 ABX      0.033867
     42 H141        1.2570    4.6600    1.5770 h1        1 ABX      0.043033
     43 H142        2.4860    4.5330    0.2290 h1        1 ABX      0.043033
     44 H143        1.0070    5.6190    0.0200 h1        1 ABX      0.043033
@<TRIPOS>BOND
     1    1    2 1   
     2    1    5 1   
     3    1   18 1   
     4    1   22 1   
     5    2    3 1   
     6    2   13 1   
     7    2   23 1   
     8    3    4 1   
     9    3   24 1   
    10    4    5 1   
    11    4    6 1   
    12    4   25 1   
    13    5   26 1   
    14    5   27 1   
    15    6    7 1   
    16    6    8 1   
    17    9   10 1   
    18    9   13 1   
    19    9   28 1   
    20   10   11 1   
    21   10   12 2   
    22   11   29 1   
    23   11   30 1   
    24   11   31 1   
    25   13   14 1   
    26   13   32 1   
    27   14   15 1   
    28   14   33 1   
    29   14   34 1   
    30   15   16 1   
    31   15   17 1   
    32   15   35 1   
    33   16   36 1   
    34   16   37 1   
    35   16   38 1   
    36   17   39 1   
    37   17   40 1   
    38   17   41 1   
    39   18   19 2   
    40   18   20 1   
    41   20   21 1   
    42   21   42 1   
    43   21   43 1   
    44   21   44 1   
@<TRIPOS>SUBSTRUCTURE
     1 ABX         1 TEMP              0 ****  ****    0 ROOT
