@<TRIPOS>MOLECULE
ABX
   45    45     1     0     0
SMALL
bcc


@<TRIPOS>ATOM
      1 C1         -0.2690   -0.2830    0.4490 c3        1 ABX     -0.146700
      2 C2          1.2600   -0.0710    0.1380 c3        1 ABX      0.104500
      3 N1          1.9160    0.3720    1.3740 n3        1 ABX     -0.726200
      4 C3          0.8550    1.1410    2.0510 c3        1 ABX     -0.001500
      5 C4         -0.4520    0.3400    1.8410 c3        1 ABX     -0.088400
      6 C5          0.6530    2.5470    1.3660 c         1 ABX      0.939600
      7 O1          0.8560    3.5580    2.0710 o         1 ABX     -0.818300
      8 O2          0.2660    2.5430    0.1560 o         1 ABX     -0.818300
      9 N2          1.3520   -1.3200   -1.9780 n4        1 ABX     -0.685800
     10 C6          1.7630   -2.5270   -2.7550 c         1 ABX      0.552100
     11 C7          2.4590   -2.2660   -4.0510 c3        1 ABX     -0.191100
     12 O3          1.4840   -3.6230   -2.2840 o         1 ABX     -0.438100
     13 C8          1.8960   -1.2920   -0.5630 c3        1 ABX      0.140500
     14 C9          3.4290   -1.2280   -0.5570 c3        1 ABX     -0.098400
     15 C10         4.0220   -2.1490    0.5030 c3        1 ABX     -0.063700
     16 C11         4.0530   -3.5870    0.0280 c3        1 ABX     -0.099600
     17 C12         5.4200   -1.6820    0.8580 c3        1 ABX     -0.099600
     18 C13        -1.0650    0.4190   -0.6180 c         1 ABX      0.709100
     19 O4         -0.8580    0.2950   -1.8440 o         1 ABX     -0.668000
     20 O5         -2.1290    1.1430   -0.2110 os        1 ABX     -0.389900
     21 C14        -2.5670    2.1870   -1.0950 c3        1 ABX      0.126700
     22 H1         -0.5500   -1.3660    0.4460 hc        1 ABX      0.053700
     23 H2          1.3430    0.8470   -0.5380 h1        1 ABX      0.151700
     24 HN1         2.1540   -0.4280    1.9380 hn        1 ABX      0.316800
     25 H3          1.1070    1.2860    3.1310 h1        1 ABX      0.084700
     26 H41        -0.5720   -0.4620    2.6080 hc        1 ABX      0.066200
     27 H42        -1.3350    1.0220    1.8890 hc        1 ABX      0.066200
     28 HN2         1.6480   -0.4610   -2.4580 hn        1 ABX      0.481300
     29 H71         3.4300   -1.7370   -3.8720 hc        1 ABX      0.104367
     30 H72         1.8200   -1.6410   -4.7250 hc        1 ABX      0.104367
     31 H73         2.6670   -3.2460   -4.5530 hc        1 ABX      0.104367
     32 H8          1.5480   -2.2540   -0.0810 hx        1 ABX      0.099700
     33 H91         3.7570   -0.1700   -0.3650 hc        1 ABX      0.069700
     34 H92         3.8510   -1.5250   -1.5560 hc        1 ABX      0.069700
     35 H10         3.3890   -2.0940    1.4340 hc        1 ABX      0.061700
     36 H111        3.0440   -3.9120   -0.3280 hc        1 ABX      0.042200
     37 H112        4.7800   -3.7100   -0.8100 hc        1 ABX      0.042200
     38 H113        4.3660   -4.2590    0.8630 hc        1 ABX      0.042200
     39 H121        6.0720   -1.6670   -0.0480 hc        1 ABX      0.042200
     40 H122        5.8730   -2.3720    1.6100 hc        1 ABX      0.042200
     41 H123        5.3880   -0.6530    1.2930 hc        1 ABX      0.042200
     42 H141       -1.7440    2.9410   -1.1800 h1        1 ABX      0.064033
     43 H142       -2.8380    1.7600   -2.0890 h1        1 ABX      0.064033
     44 H143       -3.4590    2.6060   -0.5680 h1        1 ABX      0.064033
     45 H22         0.3100   -1.2770   -1.9190 hn        1 ABX      0.481300
@<TRIPOS>BOND
     1    1    2 1   
     2    1    5 1   
     3    1   18 1   
     4    1   22 1   
     5    2    3 1   
     6    2   13 1   
     7    2   23 1   
     8    3    4 1   
     9    3   24 1   
    10    4    5 1   
    11    4    6 1   
    12    4   25 1   
    13    5   26 1   
    14    5   27 1   
    15    6    7 1   
    16    6    8 1   
    17    9   10 1   
    18    9   13 1   
    19    9   28 1   
    20    9   45 1   
    21   10   11 1   
    22   10   12 2   
    23   11   29 1   
    24   11   30 1   
    25   11   31 1   
    26   13   14 1   
    27   13   32 1   
    28   14   15 1   
    29   14   33 1   
    30   14   34 1   
    31   15   16 1   
    32   15   17 1   
    33   15   35 1   
    34   16   36 1   
    35   16   37 1   
    36   16   38 1   
    37   17   39 1   
    38   17   40 1   
    39   17   41 1   
    40   18   19 2   
    41   18   20 1   
    42   20   21 1   
    43   21   42 1   
    44   21   43 1   
    45   21   44 1   
@<TRIPOS>SUBSTRUCTURE
     1 ABX         1 TEMP              0 ****  ****    0 ROOT
