@<TRIPOS>MOLECULE
ABX
   45    45     1     0     0
SMALL
bcc


@<TRIPOS>ATOM
      1 C1         -0.3040   -0.1650    0.4090 c3        1 ABX     -0.125700
      2 C2          1.2350   -0.0500    0.1790 c3        1 ABX      0.137500
      3 N1          1.8300    0.1300    1.5150 n3        1 ABX     -0.772200
      4 C3          0.8470    0.9480    2.2510 c3        1 ABX     -0.004500
      5 C4         -0.5420    0.4810    1.7840 c3        1 ABX     -0.055400
      6 C5          0.9850    2.4850    1.9370 c         1 ABX      0.901600
      7 O1          0.4370    3.2800    2.7320 o         1 ABX     -0.817300
      8 O2          1.6220    2.7890    0.8850 o         1 ABX     -0.817300
      9 N2          1.2250   -1.4160   -1.9010 n4        1 ABX     -0.680800
     10 C6          1.7170   -2.5960   -2.6780 c         1 ABX      0.553100
     11 C7          2.3810   -2.2940   -3.9810 c3        1 ABX     -0.190100
     12 O3          1.5150   -3.7050   -2.1980 o         1 ABX     -0.433100
     13 C8          1.8490   -1.2910   -0.5270 c3        1 ABX      0.136500
     14 C9          3.3760   -1.1680   -0.6180 c3        1 ABX     -0.090400
     15 C10         4.0680   -1.9920    0.4640 c3        1 ABX     -0.072700
     16 C11         4.1430   -3.4520    0.0700 c3        1 ABX     -0.097100
     17 C12         5.4580   -1.4400    0.7110 c3        1 ABX     -0.097100
     18 C13        -1.0600    0.4820   -0.7170 c         1 ABX      0.660100
     19 O4         -0.8660    0.2800   -1.9330 o         1 ABX     -0.662000
     20 O5         -2.0730    1.3020   -0.3660 os        1 ABX     -0.376900
     21 C14        -2.7420    2.0100   -1.4180 c3        1 ABX      0.123700
     22 H1         -0.6230   -1.2420    0.4340 hc        1 ABX      0.063700
     23 H2          1.4300    0.8690   -0.4620 h1        1 ABX      0.098700
     24 HN1         2.6790    0.6670    1.4170 hn        1 ABX      0.377800
     25 H3          0.9960    0.7750    3.3470 h1        1 ABX      0.085700
     26 H41        -1.2370    1.3560    1.7350 hc        1 ABX      0.072700
     27 H42        -0.9730   -0.2740    2.4840 hc        1 ABX      0.072700
     28 HN2         0.1990   -1.4900   -1.7770 hn        1 ABX      0.473300
     29 H71         2.6830   -3.2590   -4.4640 hc        1 ABX      0.105033
     30 H72         1.6780   -1.7510   -4.6630 hc        1 ABX      0.105033
     31 H73         3.2950   -1.6660   -3.8230 hc        1 ABX      0.105033
     32 H8          1.5690   -2.2350    0.0290 hx        1 ABX      0.113700
     33 H91         3.6690   -0.0880   -0.5150 hc        1 ABX      0.058200
     34 H92         3.7560   -1.5120   -1.6180 hc        1 ABX      0.058200
     35 H10         3.4810   -1.9080    1.4230 hc        1 ABX      0.092700
     36 H111        4.8360   -3.5950   -0.7950 hc        1 ABX      0.040367
     37 H112        3.1350   -3.8410   -0.2170 hc        1 ABX      0.040367
     38 H113        4.5240   -4.0590    0.9260 hc        1 ABX      0.040367
     39 H121        5.3990   -0.3920    1.0910 hc        1 ABX      0.040367
     40 H122        5.9840   -2.0640    1.4740 hc        1 ABX      0.040367
     41 H123        6.0600   -1.4470   -0.2290 hc        1 ABX      0.040367
     42 H141       -2.0050    2.6250   -1.9880 h1        1 ABX      0.061033
     43 H142       -3.2520    1.2830   -2.0940 h1        1 ABX      0.061033
     44 H143       -3.4740    2.6500   -0.8660 h1        1 ABX      0.061033
     45 H22         1.3910   -0.5440   -2.4200 hn        1 ABX      0.473300
@<TRIPOS>BOND
     1    1    2 1   
     2    1    5 1   
     3    1   18 1   
     4    1   22 1   
     5    2    3 1   
     6    2   13 1   
     7    2   23 1   
     8    3    4 1   
     9    3   24 1   
    10    4    5 1   
    11    4    6 1   
    12    4   25 1   
    13    5   26 1   
    14    5   27 1   
    15    6    7 1   
    16    6    8 1   
    17    9   10 1   
    18    9   13 1   
    19    9   28 1   
    20    9   45 1   
    21   10   11 1   
    22   10   12 2   
    23   11   29 1   
    24   11   30 1   
    25   11   31 1   
    26   13   14 1   
    27   13   32 1   
    28   14   15 1   
    29   14   33 1   
    30   14   34 1   
    31   15   16 1   
    32   15   17 1   
    33   15   35 1   
    34   16   36 1   
    35   16   37 1   
    36   16   38 1   
    37   17   39 1   
    38   17   40 1   
    39   17   41 1   
    40   18   19 2   
    41   18   20 1   
    42   20   21 1   
    43   21   42 1   
    44   21   43 1   
    45   21   44 1   
@<TRIPOS>SUBSTRUCTURE
     1 ABX         1 TEMP              0 ****  ****    0 ROOT
