@<TRIPOS>MOLECULE
ABY
   50    50     1     0     0
SMALL
bcc


@<TRIPOS>ATOM
      1 C7'         0.3930   -0.8250    8.6210 c3        1 ABY      0.115700
      2 O4'         0.1800    0.4050    7.9400 os        1 ABY     -0.332900
      3 C4'        -0.3050    0.3060    6.6470 ca        1 ABY      0.117100
      4 C5'        -0.3860    1.5250    5.9500 ca        1 ABY     -0.181000
      5 C6'        -0.8740    1.5310    4.6490 ca        1 ABY     -0.082500
      6 C1'        -1.2830    0.3420    4.0300 ca        1 ABY     -0.093300
      7 C2'        -1.1940   -0.8630    4.7370 ca        1 ABY     -0.082500
      8 C3'        -0.7080   -0.8900    6.0430 ca        1 ABY     -0.181000
      9 C'         -1.8130    0.3600    2.6500 c3        1 ABY      0.026000
     10 SG2        -0.5010   -0.0740    1.5360 ss        1 ABY     -0.265200
     11 CB2        -1.3790   -0.0560   -0.0000 c3        1 ABY     -0.021300
     12 CA2        -0.5290   -0.7230   -1.0830 c3        1 ABY      0.018700
     13 N2          0.4960    0.1400   -1.6190 n         1 ABY     -0.549900
     14 CD1         1.7800   -0.3380   -1.8630 c         1 ABY      0.664100
     15 OE1         2.2320   -1.3490   -1.2850 o         1 ABY     -0.628100
     16 CG1         2.6100    0.4920   -2.8250 c3        1 ABY     -0.166400
     17 CB1         3.9390   -0.1690   -3.1090 c3        1 ABY     -0.072400
     18 CA1         4.7470    0.6890   -4.0800 c3        1 ABY      0.150800
     19 N1          6.0730    0.1780   -4.3430 n3        1 ABY     -0.912800
     20 C2         -1.4940   -1.2010   -2.2110 c         1 ABY      0.612100
     21 O2         -1.6130   -2.4190   -2.4290 o         1 ABY     -0.588100
     22 N3         -2.2310   -0.2260   -2.8870 n         1 ABY     -0.493900
     23 CA3        -2.2380   -0.2590   -4.3370 c3        1 ABY     -0.079000
     24 C3         -1.1570    0.6470   -4.9920 c         1 ABY      0.897600
     25 O31        -0.2940    1.2060   -4.2450 o         1 ABY     -0.844300
     26 O32        -1.2050    0.7800   -6.2410 o         1 ABY     -0.844300
     27 H7'1        0.8400   -0.5100    9.5970 h1        1 ABY      0.041033
     28 H7'2       -0.5770   -1.3550    8.7860 h1        1 ABY      0.041033
     29 H7'3        1.1010   -1.4770    8.0540 h1        1 ABY      0.041033
     30 H5'        -0.0600    2.4520    6.4410 ha        1 ABY      0.139000
     31 H6'        -0.9310    2.4810    4.0960 ha        1 ABY      0.140500
     32 H2'        -1.5030   -1.8020    4.2530 ha        1 ABY      0.140500
     33 H3'        -0.6410   -1.8470    6.5770 ha        1 ABY      0.139000
     34 H'1        -2.6560   -0.3680    2.5420 h1        1 ABY      0.060700
     35 H'2        -2.2110    1.3730    2.3890 h1        1 ABY      0.060700
     36 HB21       -2.3330   -0.6300    0.1070 h1        1 ABY      0.065700
     37 HB22       -1.6430    0.9940   -0.2770 h1        1 ABY      0.065700
     38 HA2        -0.0390   -1.6490   -0.6480 h1        1 ABY      0.119700
     39 HN2         0.1730    0.8430   -2.2660 hn        1 ABY      0.349500
     40 HG11        2.0230    0.6350   -3.7800 hc        1 ABY      0.091200
     41 HG12        2.7700    1.5090   -2.3780 hc        1 ABY      0.091200
     42 HB11        4.4980   -0.3130   -2.1470 hc        1 ABY      0.054700
     43 HB12        3.7680   -1.1880   -3.5440 hc        1 ABY      0.054700
     44 HA11        4.2020    0.7300   -5.0670 h1        1 ABY      0.029700
     45 HA12        4.7740    1.7460   -3.6740 h1        1 ABY      0.029700
     46 HN11        6.6350    0.8870   -4.7710 hn        1 ABY      0.338300
     47 HN12        6.5170   -0.1190   -3.4970 hn        1 ABY      0.338300
     48 HN3        -2.0140    0.7050   -2.5730 hn        1 ABY      0.274500
     49 HA31       -2.0900   -1.3110   -4.6990 h1        1 ABY      0.056700
     50 HA32       -3.2490    0.0960   -4.6760 h1        1 ABY      0.056700
@<TRIPOS>BOND
     1    1    2 1   
     2    1   27 1   
     3    1   28 1   
     4    1   29 1   
     5    2    3 1   
     6    3    4 ar  
     7    3    8 ar  
     8    4    5 ar  
     9    4   30 1   
    10    5    6 ar  
    11    5   31 1   
    12    6    7 ar  
    13    6    9 1   
    14    7    8 ar  
    15    7   32 1   
    16    8   33 1   
    17    9   10 1   
    18    9   34 1   
    19    9   35 1   
    20   10   11 1   
    21   11   12 1   
    22   11   36 1   
    23   11   37 1   
    24   12   13 1   
    25   12   20 1   
    26   12   38 1   
    27   13   14 1   
    28   13   39 1   
    29   14   15 2   
    30   14   16 1   
    31   16   17 1   
    32   16   40 1   
    33   16   41 1   
    34   17   18 1   
    35   17   42 1   
    36   17   43 1   
    37   18   19 1   
    38   18   44 1   
    39   18   45 1   
    40   19   46 1   
    41   19   47 1   
    42   20   21 2   
    43   20   22 1   
    44   22   23 1   
    45   22   48 1   
    46   23   24 1   
    47   23   49 1   
    48   23   50 1   
    49   24   25 1   
    50   24   26 1   
@<TRIPOS>SUBSTRUCTURE
     1 ABY         1 TEMP              0 ****  ****    0 ROOT
