@<TRIPOS>MOLECULE
ABY
   53    53     1     0     0
SMALL
bcc


@<TRIPOS>ATOM
      1 C7'         0.1150    0.0720   -0.2390 c3        1 ABY      0.106700
      2 O4'         1.4630    0.2650    0.1900 os        1 ABY     -0.311900
      3 C4'         1.7090    0.1320    1.5320 ca        1 ABY      0.175100
      4 C5'         3.0700    0.2330    1.8980 ca        1 ABY     -0.185000
      5 C6'         3.4230    0.1240    3.2320 ca        1 ABY     -0.062000
      6 C1'         2.4450   -0.0830    4.2210 ca        1 ABY     -0.181300
      7 C2'         1.0990   -0.1900    3.8440 ca        1 ABY     -0.062000
      8 C3'         0.7250   -0.0820    2.5080 ca        1 ABY     -0.185000
      9 C'          2.8340   -0.2250    5.6330 c3        1 ABY      0.103000
     10 SG2         2.5640    1.4090    6.3360 ss        1 ABY     -0.319200
     11 CB2         3.3400    1.3640    7.9290 c3        1 ABY     -0.077300
     12 CA2         3.8200    2.7770    8.2260 c3        1 ABY      0.071500
     13 N2          4.6460    3.3230    7.0810 n4        1 ABY     -0.695800
     14 CD1         4.5940    4.8240    6.9980 c         1 ABY      0.558100
     15 OE1         3.5560    5.3190    6.5840 o         1 ABY     -0.406100
     16 CG1         5.8310    5.5550    7.4390 c3        1 ABY     -0.157400
     17 CB1         5.6950    7.0370    7.1400 c3        1 ABY     -0.109400
     18 CA1         6.8880    7.7810    7.7300 c3        1 ABY      0.102800
     19 N1          6.8220    9.2530    7.4940 n4        1 ABY     -0.837600
     20 C2          4.6620    2.9420    9.5120 c         1 ABY      0.654100
     21 O2          4.7520    4.0890    9.9890 o         1 ABY     -0.569100
     22 N3          5.3500    1.8670   10.0290 n         1 ABY     -0.533900
     23 CA3         6.6230    2.1070   10.6510 c3        1 ABY     -0.004000
     24 C3          7.5860    2.8220    9.7080 c         1 ABY      0.635100
     25 O31         8.8780    3.0030   10.0460 oh        1 ABY     -0.532100
     26 O32         7.2720    3.3230    8.6140 o         1 ABY     -0.610000
     27 H7'1       -0.2430   -0.9490    0.0370 h1        1 ABY      0.059367
     28 H7'2       -0.5480    0.8580    0.1960 h1        1 ABY      0.059367
     29 H7'3        0.1860    0.1820   -1.3520 h1        1 ABY      0.059367
     30 H5'         3.8270    0.3820    1.1140 ha        1 ABY      0.161500
     31 H6'         4.4850    0.1780    3.5160 ha        1 ABY      0.134500
     32 H2'         0.3270   -0.3670    4.6090 ha        1 ABY      0.134500
     33 H3'        -0.3360   -0.1730    2.2300 ha        1 ABY      0.161500
     34 H'1         3.9010   -0.5270    5.7530 h1        1 ABY      0.081700
     35 H'2         2.1860   -0.9580    6.1730 h1        1 ABY      0.081700
     36 HB21        2.6080    1.0710    8.7250 h1        1 ABY      0.105200
     37 HB22        4.1630    0.6100    7.9210 h1        1 ABY      0.105200
     38 HA2         2.9070    3.4470    8.3330 hx        1 ABY      0.156700
     39 HN2         5.6250    3.0190    7.1860 hn        1 ABY      0.488300
     40 HG11        6.7430    5.1250    6.9370 hc        1 ABY      0.131700
     41 HG12        5.9570    5.3760    8.5500 hc        1 ABY      0.131700
     42 HB11        5.6390    7.1930    6.0290 hc        1 ABY      0.092200
     43 HB12        4.7320    7.4180    7.5820 hc        1 ABY      0.092200
     44 HA11        6.9340    7.6160    8.8470 hx        1 ABY      0.122700
     45 HA12        7.8480    7.4020    7.2710 hx        1 ABY      0.122700
     46 HN11        7.6450    9.7080    7.9090 hn        1 ABY      0.472133
     47 HN12        5.9750    9.6470    7.9200 hn        1 ABY      0.472133
     48 HN3         9.0770    2.5760   10.8980 ho        1 ABY      0.462000
     49 HA31        6.4840    2.7710   11.5570 h1        1 ABY      0.121200
     50 HA32        7.0690    1.1250   10.9820 h1        1 ABY      0.121200
     51 H22         4.2240    2.9020    6.2050 hn        1 ABY      0.488300
     52 H13         6.8040    9.4550    6.4870 hn        1 ABY      0.472133
     53 H32         5.1500    0.9440    9.7190 hn        1 ABY      0.342500
@<TRIPOS>BOND
     1    1    2 1   
     2    1   27 1   
     3    1   28 1   
     4    1   29 1   
     5    2    3 1   
     6    3    4 ar  
     7    3    8 ar  
     8    4    5 ar  
     9    4   30 1   
    10    5    6 ar  
    11    5   31 1   
    12    6    7 ar  
    13    6    9 1   
    14    7    8 ar  
    15    7   32 1   
    16    8   33 1   
    17    9   10 1   
    18    9   34 1   
    19    9   35 1   
    20   10   11 1   
    21   11   12 1   
    22   11   36 1   
    23   11   37 1   
    24   12   13 1   
    25   12   20 1   
    26   12   38 1   
    27   13   14 1   
    28   13   39 1   
    29   13   51 1   
    30   14   15 2   
    31   14   16 1   
    32   16   17 1   
    33   16   40 1   
    34   16   41 1   
    35   17   18 1   
    36   17   42 1   
    37   17   43 1   
    38   18   19 1   
    39   18   44 1   
    40   18   45 1   
    41   19   46 1   
    42   19   47 1   
    43   19   52 1   
    44   20   21 2   
    45   20   22 1   
    46   22   23 1   
    47   22   53 1   
    48   23   24 1   
    49   23   49 1   
    50   23   50 1   
    51   24   25 1   
    52   24   26 2   
    53   25   48 1   
@<TRIPOS>SUBSTRUCTURE
     1 ABY         1 TEMP              0 ****  ****    0 ROOT
