@<TRIPOS>MOLECULE
ABY
   53    53     1     0     0
SMALL
bcc


@<TRIPOS>ATOM
      1 C7'         0.2910   -0.1620   -0.2390 c3        1 ABY      0.106700
      2 O4'         1.6270    0.0450    0.2210 os        1 ABY     -0.311900
      3 C4'         1.8350   -0.0390    1.5730 ca        1 ABY      0.175100
      4 C5'         3.1860    0.0730    1.9730 ca        1 ABY     -0.185000
      5 C6'         3.5020    0.0120    3.3200 ca        1 ABY     -0.062000
      6 C1'         2.4960   -0.1580    4.2880 ca        1 ABY     -0.181300
      7 C2'         1.1610   -0.2770    3.8770 ca        1 ABY     -0.062000
      8 C3'         0.8240   -0.2170    2.5280 ca        1 ABY     -0.185000
      9 C'          2.8460   -0.2490    5.7130 c3        1 ABY      0.103000
     10 SG2         2.5590    1.4090    6.3500 ss        1 ABY     -0.319200
     11 CB2         3.2950    1.4230    7.9620 c3        1 ABY     -0.077300
     12 CA2         3.7700    2.8450    8.2180 c3        1 ABY      0.071500
     13 N2          4.6240    3.3490    7.0750 n4        1 ABY     -0.695800
     14 CD1         4.5760    4.8460    6.9350 c         1 ABY      0.558100
     15 OE1         3.5490    5.3250    6.4780 o         1 ABY     -0.406100
     16 CG1         5.8030    5.5930    7.3800 c3        1 ABY     -0.157400
     17 CB1         5.6750    7.0630    7.0230 c3        1 ABY     -0.109400
     18 CA1         6.8540    7.8280    7.6140 c3        1 ABY      0.102800
     19 N1          6.7960    9.2900    7.3230 n4        1 ABY     -0.837600
     20 C2          4.5800    3.0580    9.5180 c         1 ABY      0.654100
     21 O2          4.6600    4.2210    9.9550 o         1 ABY     -0.569100
     22 N3          5.2550    2.0020   10.0910 n         1 ABY     -0.533900
     23 CA3         6.5120    2.2640   10.7340 c3        1 ABY     -0.004000
     24 C3          7.4980    2.9450    9.7890 c         1 ABY      0.635100
     25 O31         8.7820    3.1370   10.1520 oh        1 ABY     -0.532100
     26 O32         7.2120    3.4050    8.6710 o         1 ABY     -0.610000
     27 H7'1        0.3940   -0.0930   -1.3530 h1        1 ABY      0.059367
     28 H7'2       -0.3820    0.6400    0.1490 h1        1 ABY      0.059367
     29 H7'3       -0.0760   -1.1720    0.0640 h1        1 ABY      0.059367
     30 H5'         3.9650    0.1930    1.2050 ha        1 ABY      0.161500
     31 H6'         4.5560    0.0760    3.6310 ha        1 ABY      0.134500
     32 H2'         0.3670   -0.4260    4.6260 ha        1 ABY      0.134500
     33 H3'        -0.2280   -0.3170    2.2240 ha        1 ABY      0.161500
     34 H'1         2.1820   -0.9610    6.2620 h1        1 ABY      0.081700
     35 H'2         3.9090   -0.5470    5.8740 h1        1 ABY      0.081700
     36 HB21        4.1170    0.6680    8.0020 h1        1 ABY      0.105200
     37 HB22        2.5430    1.1600    8.7500 h1        1 ABY      0.105200
     38 HA2         2.8550    3.5200    8.2790 hx        1 ABY      0.156700
     39 HN2         4.2230    2.8960    6.2050 hn        1 ABY      0.488300
     40 HG11        5.9010    5.4550    8.4990 hc        1 ABY      0.131700
     41 HG12        6.7260    5.1440    6.9160 hc        1 ABY      0.131700
     42 HB11        4.7020    7.4600    7.4260 hc        1 ABY      0.092200
     43 HB12        5.6470    7.1770    5.9060 hc        1 ABY      0.092200
     44 HA11        7.8250    7.4320    7.1940 hx        1 ABY      0.122700
     45 HA12        6.8720    7.7040    8.7380 hx        1 ABY      0.122700
     46 HN11        7.6080    9.7600    7.7410 hn        1 ABY      0.472133
     47 HN12        5.9380    9.6990    7.7130 hn        1 ABY      0.472133
     48 HN3         5.0600    1.0680    9.8100 hn        1 ABY      0.342500
     49 HA31        6.3520    2.9620   11.6120 h1        1 ABY      0.121200
     50 HA32        6.9490    1.2960   11.1120 h1        1 ABY      0.121200
     51 H22         5.5990    3.0490    7.2150 hn        1 ABY      0.488300
     52 H13         6.8030    9.4540    6.3090 hn        1 ABY      0.472133
     53 H32         8.9600    2.7420   11.0230 ho        1 ABY      0.462000
@<TRIPOS>BOND
     1    1    2 1   
     2    1   27 1   
     3    1   28 1   
     4    1   29 1   
     5    2    3 1   
     6    3    4 ar  
     7    3    8 ar  
     8    4    5 ar  
     9    4   30 1   
    10    5    6 ar  
    11    5   31 1   
    12    6    7 ar  
    13    6    9 1   
    14    7    8 ar  
    15    7   32 1   
    16    8   33 1   
    17    9   10 1   
    18    9   34 1   
    19    9   35 1   
    20   10   11 1   
    21   11   12 1   
    22   11   36 1   
    23   11   37 1   
    24   12   13 1   
    25   12   20 1   
    26   12   38 1   
    27   13   14 1   
    28   13   39 1   
    29   13   51 1   
    30   14   15 2   
    31   14   16 1   
    32   16   17 1   
    33   16   40 1   
    34   16   41 1   
    35   17   18 1   
    36   17   42 1   
    37   17   43 1   
    38   18   19 1   
    39   18   44 1   
    40   18   45 1   
    41   19   46 1   
    42   19   47 1   
    43   19   52 1   
    44   20   21 2   
    45   20   22 1   
    46   22   23 1   
    47   22   48 1   
    48   23   24 1   
    49   23   49 1   
    50   23   50 1   
    51   24   25 1   
    52   24   26 2   
    53   25   53 1   
@<TRIPOS>SUBSTRUCTURE
     1 ABY         1 TEMP              0 ****  ****    0 ROOT
