@<TRIPOS>MOLECULE
ABY
   50    48     1     0     0
SMALL
bcc


@<TRIPOS>ATOM
      1 C7'         4.8580   -3.5210   -4.9620 c3        1 ABY     -0.072000
      2 O4'         5.2060   -2.1600   -5.0860 os        1 ABY     -0.225000
      3 C4'         4.2710   -1.2540   -4.4460 c2        1 ABY      0.060000
      4 C5'         3.1310   -0.8010   -5.1520 c2        1 ABY     -0.204000
      5 C6'         2.2290    0.0600   -4.5400 c1        1 ABY     -0.078000
      6 C1'         2.4520    0.4730   -3.2330 c1        1 ABY     -0.102000
      7 C2'         3.5870    0.0190   -2.5370 c1        1 ABY     -0.095000
      8 C3'         4.4880   -0.8470   -3.1610 c1        1 ABY     -0.175000
      9 C'          1.4690    1.3970   -2.5570 c3        1 ABY     -0.231000
     10 SG2         0.7050    0.5340   -1.1420 ss        1 ABY      0.025000
     11 CB2        -1.0290    0.9270   -1.0550 c3        1 ABY     -0.295000
     12 CA2        -1.4300    1.1370    0.3860 c3        1 ABY     -0.014000
     13 N2         -1.2920   -0.0660    1.1090 n         1 ABY     -0.336000
     14 CD1        -1.4730   -0.0670    2.5780 c2        1 ABY      0.296000
     15 OE1        -2.2970    0.6540    3.0800 o         1 ABY     -0.370000
     16 CG1        -0.5310   -0.8370    3.4430 c3        1 ABY     -0.181000
     17 CB1        -1.3100   -1.9230    4.2430 c3        1 ABY     -0.204000
     18 CA1        -0.6200   -2.1660    5.5390 c3        1 ABY     -0.086000
     19 N1         -1.1190   -3.3790    6.1220 n3        1 ABY     -0.339000
     20 C2         -2.9180    1.6040    0.4390 c2        1 ABY      0.259000
     21 O2         -3.8100    0.8440    0.0730 o         1 ABY     -0.394000
     22 N3         -3.2460    3.0360    0.7660 n         1 ABY     -0.290000
     23 CA3        -4.5650    3.4580    0.7540 c3        1 ABY     -0.143000
     24 C3         -4.6690    4.9000    1.3380 c2        1 ABY      0.318000
     25 O31        -5.1400    5.0860    2.5600 o         1 ABY     -0.581000
     26 O32        -4.2370    5.8470    0.7000 o         1 ABY     -0.581000
     27 H7'1        4.6240   -3.7030   -4.0670 h1        1 ABY      0.077333
     28 H7'2        4.0630   -3.7280   -5.5700 h1        1 ABY      0.077333
     29 H7'3        5.6350   -4.0890   -5.2260 h1        1 ABY      0.077333
     30 H5'         2.9750   -1.1060   -6.1250 ha        1 ABY      0.138000
     31 H6'         1.4120    0.3840   -5.0450 ha        1 ABY      0.214000
     32 H2'         3.7450    0.3010   -1.6450 ha        1 ABY      0.126000
     33 H3'         5.2880   -1.2010   -2.6480 ha        1 ABY      0.132000
     34 H'1         1.9610    2.2390   -2.2230 h1        1 ABY      0.136500
     35 H'2         0.7420    1.6690   -3.2270 h1        1 ABY      0.136500
     36 HB21       -1.2100    1.7730   -1.5740 h1        1 ABY      0.146500
     37 HB22       -1.5680    0.1670   -1.4490 h1        1 ABY      0.146500
     38 HA2        -0.8190    1.8660    0.8110 h1        1 ABY      0.155000
     39 HN2        -1.0490   -0.7940    0.7000 hn        1 ABY      0.221000
     40 HG11        0.1470   -1.2730    2.8790 hc        1 ABY      0.104500
     41 HG12       -0.0870   -0.2200    4.0770 hc        1 ABY      0.104500
     42 HB11       -1.3350   -2.7630    3.7200 hc        1 ABY      0.095000
     43 HB12       -2.1770   -1.6310    4.4020 hc        1 ABY      0.095000
     44 HA11        0.3750   -2.2510    5.3820 h1        1 ABY      0.087000
     45 HA12       -0.7780   -1.4770    6.0990 h1        1 ABY      0.087000
     46 HN11       -1.7110   -3.1700    6.8240 hn        1 ABY      0.140500
     47 HN12       -0.3990   -3.8840    6.4580 hn        1 ABY      0.140500
     48 HN3        -2.5840    3.6090    1.0340 hn        1 ABY      0.205000
     49 HA31       -5.0790    2.8750    1.2730 h1        1 ABY      0.098000
     50 HA32       -4.8800    3.4540   -0.1180 h1        1 ABY      0.098000
@<TRIPOS>BOND
     1    1    2 1   
     2    1   27 1   
     3    1   28 1   
     4    1   29 1   
     5    2    3 1   
     6    3    4 1   
     7    3    8 1   
     8    4    5 1   
     9    4   30 1   
    10    5   31 1   
    11    6    7 1   
    12    6    9 1   
    13    7   32 1   
    14    8   33 1   
    15    9   10 1   
    16    9   34 1   
    17    9   35 1   
    18   10   11 1   
    19   11   12 1   
    20   11   36 1   
    21   11   37 1   
    22   12   13 1   
    23   12   20 1   
    24   12   38 1   
    25   13   14 1   
    26   13   39 1   
    27   14   15 1   
    28   14   16 1   
    29   16   17 1   
    30   16   40 1   
    31   16   41 1   
    32   17   18 1   
    33   17   42 1   
    34   17   43 1   
    35   18   19 1   
    36   18   44 1   
    37   18   45 1   
    38   19   46 1   
    39   19   47 1   
    40   20   21 1   
    41   20   22 1   
    42   22   23 1   
    43   22   48 1   
    44   23   24 1   
    45   23   49 1   
    46   23   50 1   
    47   24   25 1   
    48   24   26 1   
@<TRIPOS>SUBSTRUCTURE
     1 ABY         1 TEMP              0 ****  ****    0 ROOT
