@<TRIPOS>MOLECULE
ABY
   53    53     1     0     0
SMALL
bcc


@<TRIPOS>ATOM
      1 C7'         2.5470    2.4330    0.7780 c3        1 ABY      0.106700
      2 O4'         3.4650    2.2060    1.8520 os        1 ABY     -0.328900
      3 C4'         2.9950    1.4710    2.9120 ca        1 ABY      0.143100
      4 C5'         3.9870    0.9150    3.7460 ca        1 ABY     -0.189500
      5 C6'         3.6070    0.2000    4.8730 ca        1 ABY     -0.108000
      6 C1'         2.2500    0.0550    5.2080 ca        1 ABY     -0.181300
      7 C2'         1.2740    0.5880    4.3550 ca        1 ABY     -0.108000
      8 C3'         1.6360    1.2950    3.2120 ca        1 ABY     -0.189500
      9 C'          1.8560   -0.7020    6.4120 c3        1 ABY      0.026000
     10 SG2         1.6520    0.3440    7.8380 ss        1 ABY     -0.230200
     11 CB2         3.2920    0.6810    8.3820 c3        1 ABY     -0.080300
     12 CA2         3.6590    2.1500    8.1460 c3        1 ABY      0.061500
     13 N2          3.2530    2.5950    6.7670 ny        1 ABY     -0.689800
     14 CD1         3.2640    4.0930    6.6350 c         1 ABY      0.546100
     15 OE1         2.2980    4.6860    7.0910 o         1 ABY     -0.398100
     16 CG1         4.4570    4.7040    5.9470 c3        1 ABY     -0.156400
     17 CB1         4.8330    6.0010    6.6440 c3        1 ABY     -0.107400
     18 CA1         6.1750    6.5050    6.1170 c3        1 ABY      0.116800
     19 N1          6.8890    7.3700    7.0990 nz        1 ABY     -0.843600
     20 C2          5.1810    2.3250    8.3410 c         1 ABY      0.650100
     21 O2          5.9400    2.2950    7.3500 o         1 ABY     -0.601100
     22 N3          5.6420    2.5020    9.6200 ns        1 ABY     -0.525900
     23 CA3         7.0190    2.8140    9.8700 c3        1 ABY      0.005000
     24 C3          7.4240    4.2190    9.4560 c         1 ABY      0.653100
     25 O31         8.6560    4.6870    9.7540 oh        1 ABY     -0.557100
     26 O32         6.7410    5.0300    8.8090 o         1 ABY     -0.616000
     27 H7'1        1.7660    3.1660    1.0940 h1        1 ABY      0.064033
     28 H7'2        3.1980    2.8640   -0.0250 h1        1 ABY      0.064033
     29 H7'3        2.0830    1.4750    0.4420 h1        1 ABY      0.064033
     30 H5'         5.0460    1.0080    3.4600 ha        1 ABY      0.169000
     31 H6'         4.3780   -0.3010    5.4800 ha        1 ABY      0.153000
     32 H2'         0.2050    0.4330    4.5790 ha        1 ABY      0.153000
     33 H3'         0.8570    1.6850    2.5380 ha        1 ABY      0.169000
     34 H'1         0.8380   -1.1660    6.2880 h1        1 ABY      0.118700
     35 H'2         2.5770   -1.5300    6.6280 h1        1 ABY      0.118700
     36 HB21        4.0370    0.0040    7.8920 h1        1 ABY      0.121700
     37 HB22        3.3340    0.4910    9.4870 h1        1 ABY      0.121700
     38 HA2         3.0800    2.8000    8.8730 hx        1 ABY      0.132700
     39 HN2         2.2840    2.2050    6.6120 hn        1 ABY      0.494300
     40 HG11        5.3340    3.9950    5.9460 hc        1 ABY      0.123200
     41 HG12        4.1660    4.8970    4.8750 hc        1 ABY      0.123200
     42 HB11        4.0330    6.7710    6.4700 hc        1 ABY      0.096700
     43 HB12        4.8890    5.8150    7.7530 hc        1 ABY      0.096700
     44 HA11        6.8580    5.6350    5.8890 hx        1 ABY      0.115700
     45 HA12        6.0200    7.1030    5.1720 hx        1 ABY      0.115700
     46 HN11        7.7430    7.7450    6.6720 hn        1 ABY      0.474467
     47 HN12        7.1470    6.8150    7.9360 hn        1 ABY      0.474467
     48 HN3         5.0050    2.5470   10.3840 hn        1 ABY      0.349500
     49 HA31        7.6790    2.1020    9.2850 h1        1 ABY      0.122700
     50 HA32        7.2270    2.6840   10.9730 h1        1 ABY      0.122700
     51 H22         3.8920    2.1690    6.0700 hn        1 ABY      0.494300
     52 H13         6.2930    8.1490    7.3930 hn        1 ABY      0.474467
     53 H32         9.1700    4.0410   10.2680 ho        1 ABY      0.471000
@<TRIPOS>BOND
     1    1    2 1   
     2    1   27 1   
     3    1   28 1   
     4    1   29 1   
     5    2    3 1   
     6    3    4 ar  
     7    3    8 ar  
     8    4    5 ar  
     9    4   30 1   
    10    5    6 ar  
    11    5   31 1   
    12    6    7 ar  
    13    6    9 1   
    14    7    8 ar  
    15    7   32 1   
    16    8   33 1   
    17    9   10 1   
    18    9   34 1   
    19    9   35 1   
    20   10   11 1   
    21   11   12 1   
    22   11   36 1   
    23   11   37 1   
    24   12   13 1   
    25   12   20 1   
    26   12   38 1   
    27   13   14 1   
    28   13   39 1   
    29   13   51 1   
    30   14   15 2   
    31   14   16 1   
    32   16   17 1   
    33   16   40 1   
    34   16   41 1   
    35   17   18 1   
    36   17   42 1   
    37   17   43 1   
    38   18   19 1   
    39   18   44 1   
    40   18   45 1   
    41   19   46 1   
    42   19   47 1   
    43   19   52 1   
    44   20   21 2   
    45   20   22 1   
    46   22   23 1   
    47   22   48 1   
    48   23   24 1   
    49   23   49 1   
    50   23   50 1   
    51   24   25 1   
    52   24   26 2   
    53   25   53 1   
@<TRIPOS>SUBSTRUCTURE
     1 ABY         1 TEMP              0 ****  ****    0 ROOT
