@<TRIPOS>MOLECULE
ABZ
   41    44     1     0     0
SMALL
bcc


@<TRIPOS>ATOM
      1 C1         -0.0720   -0.0170   -0.1490 ca        1 ABZ     -0.024300
      2 C7         -0.5670    0.0550   -1.5510 c3        1 ABZ     -0.074400
      3 C2          1.3010    0.1290    0.1020 ca        1 ABZ     -0.084800
      4 N10         3.1920    0.2100    1.4080 na        1 ABZ     -0.192400
      5 C3          1.8080    0.0350    1.4520 ca        1 ABZ     -0.049200
      6 C4          0.9440   -0.2010    2.5340 ca        1 ABZ     -0.131000
      7 C5         -0.4040   -0.3420    2.2610 ca        1 ABZ     -0.113000
      8 C6         -0.9050   -0.2540    0.9440 ca        1 ABZ      0.014400
      9 C25         2.4460    0.3720   -0.7480 cc        1 ABZ     -0.183200
     10 C8         -0.7760    1.4990   -1.9950 ca        1 ABZ      0.735300
     11 N1         -1.6780    2.2390   -1.2920 nb        1 ABZ     -0.797000
     12 C9         -1.8410    3.5500   -1.7380 ca        1 ABZ      0.923900
     13 N5         -2.7230    4.3430   -0.9860 nh        1 ABZ     -0.724300
     14 N2         -1.1880    4.0970   -2.8240 nb        1 ABZ     -0.832000
     15 C10        -0.2880    3.2430   -3.4510 ca        1 ABZ      0.921900
     16 N4          0.4590    3.7600   -4.4990 nh        1 ABZ     -0.940500
     17 N3         -0.0570    1.9220   -3.0740 nb        1 ABZ     -0.814000
     18 C11        -3.1970    5.6030   -1.3970 ca        1 ABZ      0.173600
     19 C12        -2.3250    6.6380   -1.7970 ca        1 ABZ     -0.151500
     20 C13        -2.8310    7.8890   -2.1310 ca        1 ABZ     -0.075500
     21 C14        -4.2070    8.1440   -2.0630 ca        1 ABZ     -0.039000
     22 C15        -5.0790    7.1270   -1.6510 ca        1 ABZ     -0.075500
     23 C16        -4.5850    5.8720   -1.3240 ca        1 ABZ     -0.151500
     24 C17        -4.7150    9.4250   -2.4060 cg        1 ABZ      0.237800
     25 N6         -5.1310   10.4750   -2.6870 n1        1 ABZ     -0.368800
     26 C26         3.5660    0.4170    0.0770 cd        1 ABZ     -0.105100
     27 CL         -2.5860   -0.4590    0.7440 cl        1 ABZ     -0.098400
     28 H71         0.1790   -0.4450   -2.2290 hc        1 ABZ      0.084200
     29 H72        -1.5460   -0.4860   -1.6610 hc        1 ABZ      0.084200
     30 H10         3.7920    0.2120    2.1870 hn        1 ABZ      0.299700
     31 H4          1.3240   -0.2700    3.5620 ha        1 ABZ      0.137000
     32 H5         -1.1080   -0.5260    3.0890 ha        1 ABZ      0.145000
     33 H25         2.4180    0.5040   -1.8260 ha        1 ABZ      0.168000
     34 HN5        -3.3210    3.8420   -0.3590 hn        1 ABZ      0.455800
     35 HN41        0.9640    3.1260   -5.0700 hn        1 ABZ      0.440300
     36 HN42        0.1820    4.6270   -4.8930 hn        1 ABZ      0.440300
     37 H12        -1.2380    6.4710   -1.8460 ha        1 ABZ      0.152500
     38 H13        -2.1400    8.6870   -2.4460 ha        1 ABZ      0.146000
     39 H15        -6.1610    7.3220   -1.5910 ha        1 ABZ      0.146000
     40 H16        -5.2900    5.0870   -1.0060 ha        1 ABZ      0.152500
     41 H26         4.6140    0.5810   -0.1830 h4        1 ABZ      0.166000
@<TRIPOS>BOND
     1    1    2 1   
     2    1    3 ar  
     3    1    8 ar  
     4    2   10 1   
     5    2   28 1   
     6    2   29 1   
     7    3    5 ar  
     8    3    9 1   
     9    4    5 1   
    10    4   26 1   
    11    4   30 1   
    12    5    6 ar  
    13    6    7 ar  
    14    6   31 1   
    15    7    8 ar  
    16    7   32 1   
    17    8   27 1   
    18    9   26 2   
    19    9   33 1   
    20   10   11 ar  
    21   10   17 ar  
    22   11   12 ar  
    23   12   13 1   
    24   12   14 ar  
    25   13   18 1   
    26   13   34 1   
    27   14   15 ar  
    28   15   16 1   
    29   15   17 ar  
    30   16   35 1   
    31   16   36 1   
    32   18   19 ar  
    33   18   23 ar  
    34   19   20 ar  
    35   19   37 1   
    36   20   21 ar  
    37   20   38 1   
    38   21   22 ar  
    39   21   24 1   
    40   22   23 ar  
    41   22   39 1   
    42   23   40 1   
    43   24   25 3   
    44   26   41 1   
@<TRIPOS>SUBSTRUCTURE
     1 ABZ         1 TEMP              0 ****  ****    0 ROOT
