@<TRIPOS>MOLECULE
ABZ
   43    46     1     0     0
SMALL
bcc


@<TRIPOS>ATOM
      1 C1          0.1790    0.5390    0.0090 ca        1 ABZ     -0.087300
      2 C7         -0.9190    1.2730   -0.6690 c3        1 ABZ     -0.072400
      3 C2          0.6750   -0.6370   -0.5660 ca        1 ABZ     -0.066800
      4 N10         1.9780   -2.5340   -0.6300 na        1 ABZ     -0.169400
      5 C3          1.6720   -1.4170    0.1470 ca        1 ABZ     -0.042200
      6 C4          2.1590   -1.0070    1.3960 ca        1 ABZ     -0.088000
      7 C5          1.6620    0.1700    1.9350 ca        1 ABZ     -0.111000
      8 C6          0.6960    0.9260    1.2480 ca        1 ABZ      0.004400
      9 C25         0.4030   -1.3480   -1.7910 cc        1 ABZ     -0.225200
     10 C8         -0.6640    2.7670   -0.7390 ca        1 ABZ      0.804300
     11 N1         -1.6980    3.6260   -0.4290 nb        1 ABZ     -0.666000
     12 C9         -1.4020    4.9580   -0.4860 ca        1 ABZ      0.805900
     13 N5         -2.5080    5.9140   -0.1480 n4        1 ABZ     -0.609100
     14 N2         -0.1840    5.5100   -0.8240 nb        1 ABZ     -0.716000
     15 C10         0.7630    4.5540   -1.1320 ca        1 ABZ      0.782900
     16 N4          2.1210    5.0530   -1.4990 n4        1 ABZ     -0.823300
     17 N3          0.5910    3.2030   -1.1250 nb        1 ABZ     -0.648000
     18 C11        -3.4110    6.1130   -1.2910 ca        1 ABZ     -0.078400
     19 C12        -3.2600    7.2560   -2.0980 ca        1 ABZ     -0.091500
     20 C13        -4.1570    7.4690   -3.1400 ca        1 ABZ     -0.076000
     21 C14        -5.1920    6.5510   -3.3840 ca        1 ABZ      0.095000
     22 C15        -5.3300    5.4120   -2.5750 ca        1 ABZ     -0.076000
     23 C16        -4.4410    5.1840   -1.5270 ca        1 ABZ     -0.091500
     24 C17        -6.1010    6.7760   -4.4530 cg        1 ABZ      0.166800
     25 N6         -6.8450    6.9600   -5.3270 n1        1 ABZ     -0.222800
     26 C26         1.2040   -2.4910   -1.7880 cd        1 ABZ     -0.044100
     27 CL          0.1400    2.3710    1.9910 cl        1 ABZ     -0.147400
     28 H71        -1.8890    1.0810   -0.1250 hc        1 ABZ      0.124700
     29 H72        -1.0410    0.9050   -1.7310 hc        1 ABZ      0.124700
     30 H10         2.5930   -3.2620   -0.3670 hn        1 ABZ      0.325700
     31 H4          2.9060   -1.6030    1.9430 ha        1 ABZ      0.167000
     32 H5          2.0190    0.5100    2.9210 ha        1 ABZ      0.168000
     33 H25        -0.3000   -1.0640   -2.5680 ha        1 ABZ      0.160000
     34 HN5        -2.1060    6.8230    0.1340 hn        1 ABZ      0.496300
     35 HN41        2.0450    5.7600   -2.2450 hn        1 ABZ      0.501800
     36 HN42        2.7090    4.2660   -1.8260 hn        1 ABZ      0.501800
     37 H12        -2.4610    7.9940   -1.9170 ha        1 ABZ      0.170000
     38 H13        -4.0570    8.3700   -3.7730 ha        1 ABZ      0.195000
     39 H15        -6.1490    4.6940   -2.7620 ha        1 ABZ      0.195000
     40 H16        -4.5670    4.2850   -0.8990 ha        1 ABZ      0.170000
     41 H26         1.2780   -3.2860   -2.5390 h4        1 ABZ      0.195000
     42 H52        -3.0490    5.5200    0.6430 hn        1 ABZ      0.496300
     43 H43         2.5590    5.4790   -0.6670 hn        1 ABZ      0.501800
@<TRIPOS>BOND
     1    1    2 1   
     2    1    3 ar  
     3    1    8 ar  
     4    2   10 1   
     5    2   28 1   
     6    2   29 1   
     7    3    5 ar  
     8    3    9 1   
     9    4    5 1   
    10    4   26 1   
    11    4   30 1   
    12    5    6 ar  
    13    6    7 ar  
    14    6   31 1   
    15    7    8 ar  
    16    7   32 1   
    17    8   27 1   
    18    9   26 2   
    19    9   33 1   
    20   10   11 ar  
    21   10   17 ar  
    22   11   12 ar  
    23   12   13 1   
    24   12   14 ar  
    25   13   18 1   
    26   13   34 1   
    27   13   42 1   
    28   14   15 ar  
    29   15   16 1   
    30   15   17 ar  
    31   16   35 1   
    32   16   36 1   
    33   16   43 1   
    34   18   19 ar  
    35   18   23 ar  
    36   19   20 ar  
    37   19   37 1   
    38   20   21 ar  
    39   20   38 1   
    40   21   22 ar  
    41   21   24 1   
    42   22   23 ar  
    43   22   39 1   
    44   23   40 1   
    45   24   25 3   
    46   26   41 1   
@<TRIPOS>SUBSTRUCTURE
     1 ABZ         1 TEMP              0 ****  ****    0 ROOT
