@<TRIPOS>MOLECULE
ABZ
   41    44     1     0     0
SMALL
bcc


@<TRIPOS>ATOM
      1 C1         -0.4650    0.5430   -3.2400 ca        1 ABZ     -0.024300
      2 C7         -0.0900    1.7820   -2.5050 c3        1 ABZ     -0.074400
      3 C2          0.5290   -0.1820   -3.9140 ca        1 ABZ     -0.084800
      4 N10         1.3530   -1.8830   -5.2250 na        1 ABZ     -0.192400
      5 C3          0.1840   -1.3730   -4.6570 ca        1 ABZ     -0.049200
      6 C4         -1.1430   -1.8280   -4.7180 ca        1 ABZ     -0.131000
      7 C5         -2.1050   -1.0960   -4.0460 ca        1 ABZ     -0.113000
      8 C6         -1.7750    0.0700   -3.3210 ca        1 ABZ      0.014400
      9 C25         1.9570   -0.0080   -4.0630 cc        1 ABZ     -0.183200
     10 C8          0.4360    1.4660   -1.1100 ca        1 ABZ      0.735300
     11 N1         -0.4110    0.8190   -0.2600 nb        1 ABZ     -0.797000
     12 C9          0.1110    0.5580    1.0070 ca        1 ABZ      0.923900
     13 N5         -0.7280   -0.1620    1.8730 nh        1 ABZ     -0.724300
     14 N2          1.3690    0.9340    1.4310 nb        1 ABZ     -0.832000
     15 C10         2.1380    1.5790    0.4690 ca        1 ABZ      0.921900
     16 N4          3.4420    1.9100    0.8080 nh        1 ABZ     -0.940500
     17 N3          1.7040    1.8780   -0.8210 nb        1 ABZ     -0.814000
     18 C11        -0.4880   -0.3240    3.2500 ca        1 ABZ      0.173600
     19 C12         0.7400   -0.8140    3.7440 ca        1 ABZ     -0.151500
     20 C13         0.9120   -1.0220    5.1080 ca        1 ABZ     -0.075500
     21 C14        -0.1310   -0.7640    6.0070 ca        1 ABZ     -0.039000
     22 C15        -1.3590   -0.2920    5.5240 ca        1 ABZ     -0.075500
     23 C16        -1.5380   -0.0710    4.1650 ca        1 ABZ     -0.151500
     24 C17         0.0530   -0.9800    7.3980 cg        1 ABZ      0.237800
     25 N6          0.2050   -1.1570    8.5390 n1        1 ABZ     -0.368800
     26 C26         2.4170   -1.0540   -4.8570 cd        1 ABZ     -0.105100
     27 CL         -3.0570    0.8870   -2.5490 cl        1 ABZ     -0.098400
     28 H71        -0.9730    2.4680   -2.3950 hc        1 ABZ      0.084200
     29 H72         0.6980    2.3310   -3.0910 hc        1 ABZ      0.084200
     30 H10         1.4140   -2.7000   -5.7690 hn        1 ABZ      0.299700
     31 H4         -1.4090   -2.7330   -5.2790 ha        1 ABZ      0.137000
     32 H5         -3.1550   -1.4270   -4.0750 ha        1 ABZ      0.145000
     33 H25         2.5480    0.7900   -3.6210 ha        1 ABZ      0.168000
     34 HN5        -1.6880   -0.2130    1.5940 hn        1 ABZ      0.455800
     35 HN41        3.7040    1.8710    1.7640 hn        1 ABZ      0.440300
     36 HN42        3.9380    2.5260    0.2110 hn        1 ABZ      0.440300
     37 H12         1.5730   -1.0410    3.0600 ha        1 ABZ      0.152500
     38 H13         1.8770   -1.4010    5.4820 ha        1 ABZ      0.146000
     39 H15        -2.1850   -0.0900    6.2240 ha        1 ABZ      0.146000
     40 H16        -2.5110    0.3020    3.8080 ha        1 ABZ      0.152500
     41 H26         3.4320   -1.2760   -5.1940 h4        1 ABZ      0.166000
@<TRIPOS>BOND
     1    1    2 1   
     2    1    3 ar  
     3    1    8 ar  
     4    2   10 1   
     5    2   28 1   
     6    2   29 1   
     7    3    5 ar  
     8    3    9 1   
     9    4    5 1   
    10    4   26 1   
    11    4   30 1   
    12    5    6 ar  
    13    6    7 ar  
    14    6   31 1   
    15    7    8 ar  
    16    7   32 1   
    17    8   27 1   
    18    9   26 2   
    19    9   33 1   
    20   10   11 ar  
    21   10   17 ar  
    22   11   12 ar  
    23   12   13 1   
    24   12   14 ar  
    25   13   18 1   
    26   13   34 1   
    27   14   15 ar  
    28   15   16 1   
    29   15   17 ar  
    30   16   35 1   
    31   16   36 1   
    32   18   19 ar  
    33   18   23 ar  
    34   19   20 ar  
    35   19   37 1   
    36   20   21 ar  
    37   20   38 1   
    38   21   22 ar  
    39   21   24 1   
    40   22   23 ar  
    41   22   39 1   
    42   23   40 1   
    43   24   25 3   
    44   26   41 1   
@<TRIPOS>SUBSTRUCTURE
     1 ABZ         1 TEMP              0 ****  ****    0 ROOT
