@<TRIPOS>MOLECULE
ABZ
   41    44     1     0     0
SMALL
bcc


@<TRIPOS>ATOM
      1 C1         -0.0730   -0.0960   -0.1250 ca        1 ABZ     -0.024300
      2 C7         -0.5840   -0.0320   -1.5210 c3        1 ABZ     -0.074400
      3 C2          1.3020    0.0540    0.1100 ca        1 ABZ     -0.084800
      4 N10         3.2080    0.1460    1.3940 na        1 ABZ     -0.192400
      5 C3          1.8250   -0.0320    1.4550 ca        1 ABZ     -0.049200
      6 C4          0.9740   -0.2650    2.5470 ca        1 ABZ     -0.131000
      7 C5         -0.3770   -0.4100    2.2910 ca        1 ABZ     -0.113000
      8 C6         -0.8930   -0.3300    0.9790 ca        1 ABZ      0.014400
      9 C25         2.4370    0.2950   -0.7540 cc        1 ABZ     -0.183200
     10 C8         -0.8020    1.4080   -1.9700 ca        1 ABZ      0.735300
     11 N1         -1.6940    2.1510   -1.2570 nb        1 ABZ     -0.797000
     12 C9         -1.8660    3.4600   -1.7080 ca        1 ABZ      0.923900
     13 N5         -2.7370    4.2560   -0.9460 nu        1 ABZ     -0.724300
     14 N2         -1.2320    4.0020   -2.8080 nb        1 ABZ     -0.832000
     15 C10        -0.3410    3.1450   -3.4440 ca        1 ABZ      0.921900
     16 N4          0.3890    3.6570   -4.5070 nv        1 ABZ     -0.940500
     17 N3         -0.1010    1.8260   -3.0620 nb        1 ABZ     -0.814000
     18 C11        -3.2200    5.5130   -1.3570 ca        1 ABZ      0.173600
     19 C12        -2.3570    6.5470   -1.7780 ca        1 ABZ     -0.151500
     20 C13        -2.8700    7.7950   -2.1120 ca        1 ABZ     -0.075500
     21 C14        -4.2450    8.0480   -2.0220 ca        1 ABZ     -0.039000
     22 C15        -5.1090    7.0320   -1.5900 ca        1 ABZ     -0.075500
     23 C16        -4.6070    5.7790   -1.2640 ca        1 ABZ     -0.151500
     24 C17        -4.7610    9.3260   -2.3650 cg        1 ABZ      0.237800
     25 N6         -5.1840   10.3730   -2.6460 n1        1 ABZ     -0.368800
     26 C26         3.5660    0.3480    0.0580 cd        1 ABZ     -0.105100
     27 Cl         -2.5760   -0.5400    0.7990 cl        1 ABZ     -0.098400
     28 H71        -1.5630   -0.5760   -1.6180 hc        1 ABZ      0.084200
     29 H72         0.1550   -0.5340   -2.2050 hc        1 ABZ      0.084200
     30 H10         3.8170    0.1530    2.1660 hn        1 ABZ      0.299700
     31 H4          1.3660   -0.3280    3.5710 ha        1 ABZ      0.137000
     32 H5         -1.0700   -0.5930    3.1280 ha        1 ABZ      0.145000
     33 H25         2.3970    0.4220   -1.8320 ha        1 ABZ      0.168000
     34 HN5        -3.3240    3.7580   -0.3070 hn        1 ABZ      0.455800
     35 HN41        0.1040    4.5200   -4.9020 hn        1 ABZ      0.440300
     36 HN42        0.8860    3.0200   -5.0820 hn        1 ABZ      0.440300
     37 H12        -1.2700    6.3810   -1.8440 ha        1 ABZ      0.152500
     38 H13        -2.1860    8.5920   -2.4430 ha        1 ABZ      0.146000
     39 H15        -6.1900    7.2250   -1.5140 ha        1 ABZ      0.146000
     40 H16        -5.3050    4.9960   -0.9290 ha        1 ABZ      0.152500
     41 H26         4.6100    0.5130   -0.2150 h4        1 ABZ      0.166000
@<TRIPOS>BOND
     1    1    2 1   
     2    1    3 ar  
     3    1    8 ar  
     4    2   10 1   
     5    2   28 1   
     6    2   29 1   
     7    3    5 ar  
     8    3    9 1   
     9    4    5 1   
    10    4   26 1   
    11    4   30 1   
    12    5    6 ar  
    13    6    7 ar  
    14    6   31 1   
    15    7    8 ar  
    16    7   32 1   
    17    8   27 1   
    18    9   26 2   
    19    9   33 1   
    20   10   11 ar  
    21   10   17 ar  
    22   11   12 ar  
    23   12   13 1   
    24   12   14 ar  
    25   13   18 1   
    26   13   34 1   
    27   14   15 ar  
    28   15   16 1   
    29   15   17 ar  
    30   16   35 1   
    31   16   36 1   
    32   18   19 ar  
    33   18   23 ar  
    34   19   20 ar  
    35   19   37 1   
    36   20   21 ar  
    37   20   38 1   
    38   21   22 ar  
    39   21   24 1   
    40   22   23 ar  
    41   22   39 1   
    42   23   40 1   
    43   24   25 3   
    44   26   41 1   
@<TRIPOS>SUBSTRUCTURE
     1 ABZ         1 TEMP              0 ****  ****    0 ROOT
