@<TRIPOS>MOLECULE
AC0
   17    17     1     0     0
SMALL
bcc


@<TRIPOS>ATOM
      1 O1          2.2670   -1.2270   -0.0020 o         1 AC0     -0.537100
      2 C7          1.6940   -0.1290   -0.0020 c         1 AC0      0.576700
      3 C8          2.4730    1.1480   -0.0020 c3        1 AC0     -0.198100
      4 C1          0.2180   -0.0290   -0.0010 ca        1 AC0     -0.177600
      5 C2         -0.5400   -1.2090   -0.0010 ca        1 AC0     -0.082000
      6 C3         -1.9330   -1.1510   -0.0000 ca        1 AC0     -0.145500
      7 C4         -2.5800    0.0840    0.0000 ca        1 AC0     -0.101000
      8 C5         -1.8320    1.2620    0.0000 ca        1 AC0     -0.145500
      9 C6         -0.4390    1.2080   -0.0000 ca        1 AC0     -0.082000
     10 H81         3.5690    0.9330   -0.0020 hc        1 AC0      0.064700
     11 H82         2.2230    1.7470   -0.9110 hc        1 AC0      0.064700
     12 H83         2.2240    1.7470    0.9080 hc        1 AC0      0.064700
     13 H2         -0.0190   -2.1800   -0.0010 ha        1 AC0      0.145000
     14 H3         -2.5190   -2.0820   -0.0000 ha        1 AC0      0.136500
     15 H4         -3.6790    0.1310    0.0010 ha        1 AC0      0.135000
     16 H5         -2.3410    2.2370    0.0010 ha        1 AC0      0.136500
     17 H6          0.1380    2.1450   -0.0000 ha        1 AC0      0.145000
@<TRIPOS>BOND
     1    1    2 2   
     2    2    3 1   
     3    2    4 1   
     4    3   10 1   
     5    3   11 1   
     6    3   12 1   
     7    4    5 ar  
     8    4    9 ar  
     9    5    6 ar  
    10    5   13 1   
    11    6    7 ar  
    12    6   14 1   
    13    7    8 ar  
    14    7   15 1   
    15    8    9 ar  
    16    8   16 1   
    17    9   17 1   
@<TRIPOS>SUBSTRUCTURE
     1 AC0         1 TEMP              0 ****  ****    0 ROOT
