@<TRIPOS>MOLECULE
AC0
   17    14     1     0     0
SMALL
bcc


@<TRIPOS>ATOM
      1 O1         -2.3570   -0.0000    1.3870 o         1 AC0     -0.298000
      2 C7         -1.1430   -0.0000    1.3870 c1        1 AC0      0.267000
      3 C8         -0.3860   -0.0000    2.6970 c2        1 AC0     -0.266000
      4 C1         -0.3860   -0.0000    0.0770 c2        1 AC0     -0.157000
      5 C2         -0.0790    1.1990   -0.5460 c2        1 AC0     -0.073000
      6 C3          0.6140    1.2000   -1.7460 c1        1 AC0     -0.145000
      7 C4          1.0000    0.0000   -2.3240 c1        1 AC0     -0.123500
      8 C5          0.6930   -1.1990   -1.7010 c1        1 AC0     -0.123500
      9 C6          0.0000   -1.2000   -0.5010 c1        1 AC0     -0.091000
     10 H81         0.5620    0.1520    2.5250 ha        1 AC0      0.104000
     11 H82        -0.7310    0.7100    3.2710 ha        1 AC0      0.104000
     12 H83        -0.5020   -0.8620    3.1400 ha        1 AC0      0.104000
     13 H2         -0.3520    2.0440   -0.1400 ha        1 AC0      0.156000
     14 H3          0.8290    2.0450   -2.1850 ha        1 AC0      0.138000
     15 H4          1.4880    0.0010   -3.1690 ha        1 AC0      0.135000
     16 H5          0.9650   -2.0440   -2.1080 ha        1 AC0      0.135000
     17 H6         -0.2160   -2.0440   -0.0620 ha        1 AC0      0.134000
@<TRIPOS>BOND
     1    1    2 1   
     2    2    4 1   
     3    3   10 1   
     4    3   11 1   
     5    3   12 1   
     6    4    5 1   
     7    4    9 1   
     8    5    6 1   
     9    5   13 1   
    10    6   14 1   
    11    7    8 1   
    12    7   15 1   
    13    8   16 1   
    14    9   17 1   
@<TRIPOS>SUBSTRUCTURE
     1 AC0         1 TEMP              0 ****  ****    0 ROOT
