@<TRIPOS>MOLECULE
AC1
   45    46     1     0     0
SMALL
bcc


@<TRIPOS>ATOM
      1 C1          0.8200   -0.3900   -4.2100 c3        1 AC1      0.303900
      2 O2         -1.3820   -1.3980   -4.4210 oh        1 AC1     -0.594800
      3 C2         -0.3350   -1.1210   -3.5130 c3        1 AC1      0.087100
      4 C4         -0.4430   -0.2940    3.8940 c3        1 AC1      0.161300
      5 C3A        -0.8770   -0.3240   -2.3130 c3        1 AC1      0.119100
      6 O3A        -1.7410   -1.1620   -1.5620 oh        1 AC1     -0.593800
      7 C4A         0.2890    0.1120   -1.3890 c3        1 AC1      0.163500
      8 N4A        -0.1970    0.8990   -0.2640 n3        1 AC1     -0.809200
      9 C5A         1.2970    0.9140   -2.2540 c3        1 AC1      0.132100
     10 O5          1.7980    0.0980   -3.3200 os        1 AC1     -0.442600
     11 C6A         2.5230    1.3380   -1.4660 c3        1 AC1     -0.101100
     12 C1B        -0.5450    0.1270    0.9200 c3        1 AC1      0.207700
     13 C2B        -1.3760    0.9970    1.8970 c3        1 AC1      0.151100
     14 O2B        -0.6170    2.1430    2.2630 oh        1 AC1     -0.605800
     15 C3B        -1.7110    0.2040    3.1730 c3        1 AC1      0.081100
     16 O3B        -2.5620   -0.8600    2.7840 oh        1 AC1     -0.584800
     17 O4          0.0260    0.7280    4.7610 oh        1 AC1     -0.602800
     18 C5B         0.6370   -0.7410    2.9530 c2        1 AC1     -0.170400
     19 C7B         0.6050   -0.5260    1.6340 c2        1 AC1     -0.138200
     20 C6B         1.7670   -1.4330    3.6430 c3        1 AC1      0.171600
     21 O6B         2.8480   -1.6030    2.7370 oh        1 AC1     -0.603800
     22 O1          0.2880    0.7280   -4.8840 oh        1 AC1     -0.637800
     23 H1          1.3800   -1.0730   -4.9100 h2        1 AC1      0.082700
     24 HO2        -1.6310   -0.5630   -4.8400 ho        1 AC1      0.420000
     25 HC2         0.0220   -2.1320   -3.1690 h1        1 AC1      0.099700
     26 HC4        -0.7170   -1.1400    4.5900 h1        1 AC1      0.069700
     27 HCA3       -1.4420    0.5760   -2.6830 h1        1 AC1      0.058700
     28 HOA3       -2.4060   -1.4920   -2.1820 ho        1 AC1      0.414000
     29 HCA4        0.8050   -0.8360   -1.0470 h1        1 AC1      0.055700
     30 HN4         0.4510    1.6250   -0.0200 hn        1 AC1      0.375800
     31 HCA5        0.7800    1.8080   -2.7060 h1        1 AC1      0.060700
     32 H6A1        3.3830    1.4960   -2.1610 hc        1 AC1      0.052033
     33 H6A2        2.3180    2.2930   -0.9270 hc        1 AC1      0.052033
     34 H6A3        2.8090    0.5520   -0.7260 hc        1 AC1      0.052033
     35 HCB1       -1.2440   -0.7090    0.5880 h1        1 AC1      0.120700
     36 HCB2       -2.3330    1.3020    1.3910 h1        1 AC1      0.068700
     37 HO2B       -1.2460    2.7990    2.5840 ho        1 AC1      0.405000
     38 HCB3       -2.2640    0.8840    3.8840 h1        1 AC1      0.044700
     39 HOB3       -2.7300   -1.3860    3.5760 ho        1 AC1      0.406000
     40 HO4         0.3420    1.4510    4.2000 ho        1 AC1      0.421000
     41 HC7         1.4440   -0.8690    1.0030 ha        1 AC1      0.147000
     42 HC61        2.0970   -0.8140    4.5250 h1        1 AC1      0.035700
     43 HC62        1.4240   -2.4400    4.0110 h1        1 AC1      0.035700
     44 HO6B        3.5640   -2.0020    3.2460 ho        1 AC1      0.402000
     45 HO1         1.0240    1.1960   -5.2970 ho        1 AC1      0.425000
@<TRIPOS>BOND
     1    1    3 1   
     2    1   10 1   
     3    1   22 1   
     4    1   23 1   
     5    2    3 1   
     6    2   24 1   
     7    3    5 1   
     8    3   25 1   
     9    4   15 1   
    10    4   17 1   
    11    4   18 1   
    12    4   26 1   
    13    5    6 1   
    14    5    7 1   
    15    5   27 1   
    16    6   28 1   
    17    7    8 1   
    18    7    9 1   
    19    7   29 1   
    20    8   12 1   
    21    8   30 1   
    22    9   10 1   
    23    9   11 1   
    24    9   31 1   
    25   11   32 1   
    26   11   33 1   
    27   11   34 1   
    28   12   13 1   
    29   12   19 1   
    30   12   35 1   
    31   13   14 1   
    32   13   15 1   
    33   13   36 1   
    34   14   37 1   
    35   15   16 1   
    36   15   38 1   
    37   16   39 1   
    38   17   40 1   
    39   18   19 2   
    40   18   20 1   
    41   19   41 1   
    42   20   21 1   
    43   20   42 1   
    44   20   43 1   
    45   21   44 1   
    46   22   45 1   
@<TRIPOS>SUBSTRUCTURE
     1 AC1         1 TEMP              0 ****  ****    0 ROOT
