@<TRIPOS>MOLECULE
AC1
   45    46     1     0     0
SMALL
bcc


@<TRIPOS>ATOM
      1 C1         -2.0860    2.5060   -1.5230 c3        1 AC1      0.308900
      2 O2         -0.2170    1.3510   -2.4550 oh        1 AC1     -0.588800
      3 C2         -0.6050    2.5510   -1.7800 c3        1 AC1      0.061100
      4 C4          1.3820   -3.3180    0.4720 c3        1 AC1      0.163300
      5 C3A         0.1820    2.6750   -0.5260 c3        1 AC1      0.073100
      6 O3A        -0.0420    3.9950    0.0440 oh        1 AC1     -0.598800
      7 C4A        -0.1980    1.6380    0.4870 c3        1 AC1      0.157500
      8 N4A         0.2400    0.3340    0.0130 n3        1 AC1     -0.817200
      9 C5A        -1.6910    1.5940    0.7320 c3        1 AC1      0.154100
     10 O5         -2.4600    1.4770   -0.5080 os        1 AC1     -0.450600
     11 C6A        -2.1020    2.8410    1.4390 c3        1 AC1     -0.131100
     12 C1B         0.8560   -0.3810    1.0900 c3        1 AC1      0.217700
     13 C2B         2.3490   -1.0730    0.5890 c3        1 AC1      0.124100
     14 O2B         3.1420   -0.0020   -0.1450 oh        1 AC1     -0.618800
     15 C3B         2.2630   -2.0330   -0.1330 c3        1 AC1      0.111100
     16 O3B         3.6890   -2.5360   -0.4360 oh        1 AC1     -0.615800
     17 O4          1.2890   -4.3560   -0.4900 oh        1 AC1     -0.610800
     18 C5B         0.0530   -2.9080    0.9650 c2        1 AC1     -0.147400
     19 C7B        -0.0450   -1.3620    1.6360 c2        1 AC1     -0.135200
     20 C6B        -1.2160   -3.6030    0.4350 c3        1 AC1      0.165600
     21 O6B        -1.4360   -4.8110    1.1640 oh        1 AC1     -0.615800
     22 O1         -2.7570    2.2170   -2.7430 oh        1 AC1     -0.575800
     23 H1         -2.3710    3.3670   -1.2090 h2        1 AC1      0.086700
     24 HO2        -0.0310    1.5350   -3.2950 ho        1 AC1      0.416000
     25 HC2        -0.4100    3.3070   -2.3480 h1        1 AC1      0.082700
     26 HC4         1.8770   -3.7710    1.1840 h1        1 AC1      0.065700
     27 HCA3        1.1480    2.5760   -0.7410 h1        1 AC1      0.069700
     28 HOA3        0.6370    4.5370   -0.1820 ho        1 AC1      0.406000
     29 HCA4        0.2490    1.8340    1.3180 h1        1 AC1      0.082700
     30 HN4         0.8290    0.4410   -0.6500 hn        1 AC1      0.379800
     31 HCA5       -1.8910    0.8360    1.2950 h1        1 AC1      0.091700
     32 H6A1       -2.9770    2.6980    1.8760 hc        1 AC1      0.052700
     33 H6A2       -1.4230    3.0720    2.1260 hc        1 AC1      0.052700
     34 H6A3       -2.1750    3.5700    0.7960 hc        1 AC1      0.052700
     35 HCB1        1.0080    0.3410    1.7290 h1        1 AC1      0.065700
     36 HCB2        2.8360   -1.3270    1.3660 h1        1 AC1      0.057700
     37 HO2B        3.9630    0.0840    0.2410 ho        1 AC1      0.437000
     38 HCB3        1.8510   -1.7470   -0.9740 h1        1 AC1      0.068700
     39 HOB3        3.7650   -2.7130   -1.3300 ho        1 AC1      0.430000
     40 HO4         1.7570   -5.0580   -0.2130 ho        1 AC1      0.426000
     41 HC7        -0.4180   -1.2400    2.5280 ha        1 AC1      0.134000
     42 HC61       -1.0990   -3.8160   -0.5380 h1        1 AC1      0.040200
     43 HC62       -2.0040   -2.9940    0.5510 h1        1 AC1      0.040200
     44 HO6B       -2.2470   -5.1190    0.9880 ho        1 AC1      0.411000
     45 HO1        -3.4640    2.7890   -2.8460 ho        1 AC1      0.422000
@<TRIPOS>BOND
     1    1    3 1   
     2    1   10 1   
     3    1   22 1   
     4    1   23 1   
     5    2    3 1   
     6    2   24 1   
     7    3    5 1   
     8    3   25 1   
     9    4   15 1   
    10    4   17 1   
    11    4   18 1   
    12    4   26 1   
    13    5    6 1   
    14    5    7 1   
    15    5   27 1   
    16    6   28 1   
    17    7    8 1   
    18    7    9 1   
    19    7   29 1   
    20    8   12 1   
    21    8   30 1   
    22    9   10 1   
    23    9   11 1   
    24    9   31 1   
    25   11   32 1   
    26   11   33 1   
    27   11   34 1   
    28   12   13 1   
    29   12   19 1   
    30   12   35 1   
    31   13   14 1   
    32   13   15 1   
    33   13   36 1   
    34   14   37 1   
    35   15   16 1   
    36   15   38 1   
    37   16   39 1   
    38   17   40 1   
    39   18   19 2   
    40   18   20 1   
    41   19   41 1   
    42   20   21 1   
    43   20   42 1   
    44   20   43 1   
    45   21   44 1   
    46   22   45 1   
@<TRIPOS>SUBSTRUCTURE
     1 AC1         1 TEMP              0 ****  ****    0 ROOT
