@<TRIPOS>MOLECULE
AC1
   46    47     1     0     0
SMALL
bcc


@<TRIPOS>ATOM
      1 C1         -0.0120    0.2740   -0.2150 c3        1 AC1      0.294900
      2 O2          2.0920   -0.6570   -1.0450 oh        1 AC1     -0.572800
      3 C2          1.5270    0.2880   -0.1720 c3        1 AC1      0.102100
      4 C4          4.2390    3.6360    5.9390 c3        1 AC1      0.127300
      5 C3A         2.0180    0.0160    1.2630 c3        1 AC1      0.094100
      6 O3A         3.4180    0.1780    1.3780 oh        1 AC1     -0.620800
      7 C4A         1.3440    1.0320    2.2140 c3        1 AC1      0.076500
      8 N4A         1.8490    0.8980    3.6160 n4        1 AC1     -0.739000
      9 C5A        -0.1930    0.8160    2.1180 c3        1 AC1      0.134100
     10 O5         -0.5910    1.1010    0.7800 os        1 AC1     -0.415600
     11 C6A        -0.9720    1.7690    3.0030 c3        1 AC1     -0.122100
     12 C1B         3.0230    1.8040    3.9180 c3        1 AC1      0.139700
     13 C2B         3.7950    1.2470    5.1460 c3        1 AC1      0.137100
     14 O2B         2.9080    0.8930    6.1830 oh        1 AC1     -0.609800
     15 C3B         4.8560    2.2650    5.5880 c3        1 AC1      0.091100
     16 O3B         5.7640    2.3820    4.5090 oh        1 AC1     -0.585800
     17 O4          3.6830    3.5690    7.2480 oh        1 AC1     -0.597800
     18 C5B         3.1240    4.0380    5.0150 c2        1 AC1     -0.040400
     19 C7B         2.5750    3.2130    4.1150 c2        1 AC1     -0.213200
     20 C6B         2.6750    5.4550    5.1880 c3        1 AC1      0.158600
     21 O6B         1.5200    5.6740    4.3930 oh        1 AC1     -0.610800
     22 O1         -0.4310   -1.0370    0.0620 oh        1 AC1     -0.632800
     23 H1         -0.4090    0.6770   -1.1890 h2        1 AC1      0.118700
     24 HO2         1.6210   -1.4960   -0.9300 ho        1 AC1      0.435000
     25 HC2         1.9070    1.2860   -0.5310 h1        1 AC1      0.112700
     26 HC4         5.0510    4.4190    5.8910 h1        1 AC1      0.073700
     27 HCA3        1.7430   -1.0390    1.5550 h1        1 AC1      0.074700
     28 HOA3        3.8180   -0.1490    0.5560 ho        1 AC1      0.458000
     29 HCA4        1.5850    2.0790    1.8600 hx        1 AC1      0.128700
     30 HN4         2.1540   -0.0700    3.7770 hn        1 AC1      0.456300
     31 HCA5       -0.4390   -0.2580    2.3550 h1        1 AC1      0.076700
     32 H6A1       -2.0060    1.8930    2.5920 hc        1 AC1      0.069367
     33 H6A2       -0.4920    2.7780    3.0320 hc        1 AC1      0.069367
     34 H6A3       -1.0550    1.3600    4.0380 hc        1 AC1      0.069367
     35 HCB1        3.7280    1.7520    3.0250 hx        1 AC1      0.155700
     36 HCB2        4.3090    0.2840    4.8550 h1        1 AC1      0.106700
     37 HO2B        2.7520    1.6670    6.7470 ho        1 AC1      0.448000
     38 HCB3        5.3690    1.8550    6.5050 h1        1 AC1      0.075700
     39 HOB3        6.5750    2.7770    4.8560 ho        1 AC1      0.429000
     40 HO4         4.4100    3.6670    7.8770 ho        1 AC1      0.428000
     41 HC7         1.7870    3.5930    3.4390 ha        1 AC1      0.169000
     42 HC61        2.4390    5.6300    6.2760 h1        1 AC1      0.061200
     43 HC62        3.4990    6.1520    4.8680 h1        1 AC1      0.061200
     44 HO6B        1.2520    6.5890    4.5440 ho        1 AC1      0.427000
     45 HO1        -1.3670   -1.1110   -0.1690 ho        1 AC1      0.446000
     46 H4A2        1.0970    1.1170    4.2810 hn        1 AC1      0.456300
@<TRIPOS>BOND
     1    1    3 1   
     2    1   10 1   
     3    1   22 1   
     4    1   23 1   
     5    2    3 1   
     6    2   24 1   
     7    3    5 1   
     8    3   25 1   
     9    4   15 1   
    10    4   17 1   
    11    4   18 1   
    12    4   26 1   
    13    5    6 1   
    14    5    7 1   
    15    5   27 1   
    16    6   28 1   
    17    7    8 1   
    18    7    9 1   
    19    7   29 1   
    20    8   12 1   
    21    8   30 1   
    22    8   46 1   
    23    9   10 1   
    24    9   11 1   
    25    9   31 1   
    26   11   32 1   
    27   11   33 1   
    28   11   34 1   
    29   12   13 1   
    30   12   19 1   
    31   12   35 1   
    32   13   14 1   
    33   13   15 1   
    34   13   36 1   
    35   14   37 1   
    36   15   16 1   
    37   15   38 1   
    38   16   39 1   
    39   17   40 1   
    40   18   19 2   
    41   18   20 1   
    42   19   41 1   
    43   20   21 1   
    44   20   42 1   
    45   20   43 1   
    46   21   44 1   
    47   22   45 1   
@<TRIPOS>SUBSTRUCTURE
     1 AC1         1 TEMP              0 ****  ****    0 ROOT
