@<TRIPOS>MOLECULE
AC1
   46    47     1     0     0
SMALL
bcc


@<TRIPOS>ATOM
      1 C1         -0.0200    0.2660   -0.2040 c3        1 AC1      0.294900
      2 O2          2.0800   -0.6750   -1.0350 oh        1 AC1     -0.572800
      3 C2          1.5190    0.2760   -0.1640 c3        1 AC1      0.102100
      4 C4          4.2540    3.6450    5.9260 c3        1 AC1      0.127300
      5 C3A         2.0130    0.0090    1.2710 c3        1 AC1      0.094100
      6 O3A         3.4130    0.1670    1.3810 oh        1 AC1     -0.620800
      7 C4A         1.3440    1.0310    2.2180 c3        1 AC1      0.076500
      8 N4A         1.8520    0.9030    3.6190 n4        1 AC1     -0.739000
      9 C5A        -0.1930    0.8200    2.1260 c3        1 AC1      0.134100
     10 O5         -0.5940    1.0990    0.7880 os        1 AC1     -0.415600
     11 C6A        -0.9680    1.7800    3.0080 c3        1 AC1     -0.122100
     12 C1B         3.0290    1.8060    3.9150 c3        1 AC1      0.139700
     13 C2B         3.8020    1.2540    5.1440 c3        1 AC1      0.137100
     14 O2B         2.9170    0.9060    6.1830 oh        1 AC1     -0.609800
     15 C3B         4.8670    2.2710    5.5790 c3        1 AC1      0.091100
     16 O3B         5.7730    2.3810    4.4970 oh        1 AC1     -0.585800
     17 O4          3.7000    3.5840    7.2360 oh        1 AC1     -0.597800
     18 C5B         3.1370    4.0460    5.0020 c2        1 AC1     -0.040400
     19 C7B         2.5850    3.2180    4.1060 c2        1 AC1     -0.213200
     20 C6B         2.6920    5.4650    5.1700 c3        1 AC1      0.158600
     21 O6B         1.5360    5.6820    4.3770 oh        1 AC1     -0.610800
     22 O1         -0.4420   -1.0420    0.0800 oh        1 AC1     -0.632800
     23 H1         -0.4180    0.6660   -1.1790 h2        1 AC1      0.118700
     24 HO2         1.6070   -1.5130   -0.9150 ho        1 AC1      0.435000
     25 HC2         1.9020    1.2710   -0.5300 h1        1 AC1      0.112700
     26 HC4         5.0670    4.4250    5.8720 h1        1 AC1      0.073700
     27 HCA3        1.7360   -1.0440    1.5680 h1        1 AC1      0.074700
     28 HOA3        3.8110   -0.1650    0.5600 ho        1 AC1      0.458000
     29 HCA4        1.5870    2.0760    1.8580 hx        1 AC1      0.128700
     30 HN4         1.1020    1.1260    4.2850 hn        1 AC1      0.456300
     31 HCA5       -0.4430   -0.2520    2.3690 h1        1 AC1      0.076700
     32 H6A1       -1.0500    1.3750    4.0450 hc        1 AC1      0.069367
     33 H6A2       -0.4850    2.7860    3.0320 hc        1 AC1      0.069367
     34 H6A3       -2.0030    1.9050    2.5990 hc        1 AC1      0.069367
     35 HCB1        3.7310    1.7490    3.0200 hx        1 AC1      0.155700
     36 HCB2        4.3130    0.2880    4.8550 h1        1 AC1      0.106700
     37 HO2B        2.7640    1.6830    6.7450 ho        1 AC1      0.448000
     38 HCB3        5.3810    1.8630    6.4960 h1        1 AC1      0.075700
     39 HOB3        6.5850    2.7760    4.8410 ho        1 AC1      0.429000
     40 HO4         4.4280    3.6840    7.8620 ho        1 AC1      0.428000
     41 HC7         1.7960    3.5970    3.4300 ha        1 AC1      0.169000
     42 HC61        3.5180    6.1570    4.8440 h1        1 AC1      0.061200
     43 HC62        2.4590    5.6450    6.2570 h1        1 AC1      0.061200
     44 HO6B        1.2710    6.5990    4.5240 ho        1 AC1      0.427000
     45 HO1        -1.3790   -1.1150   -0.1480 ho        1 AC1      0.446000
     46 H4A2        2.1540   -0.0650    3.7840 hn        1 AC1      0.456300
@<TRIPOS>BOND
     1    1    3 1   
     2    1   10 1   
     3    1   22 1   
     4    1   23 1   
     5    2    3 1   
     6    2   24 1   
     7    3    5 1   
     8    3   25 1   
     9    4   15 1   
    10    4   17 1   
    11    4   18 1   
    12    4   26 1   
    13    5    6 1   
    14    5    7 1   
    15    5   27 1   
    16    6   28 1   
    17    7    8 1   
    18    7    9 1   
    19    7   29 1   
    20    8   12 1   
    21    8   30 1   
    22    8   46 1   
    23    9   10 1   
    24    9   11 1   
    25    9   31 1   
    26   11   32 1   
    27   11   33 1   
    28   11   34 1   
    29   12   13 1   
    30   12   19 1   
    31   12   35 1   
    32   13   14 1   
    33   13   15 1   
    34   13   36 1   
    35   14   37 1   
    36   15   16 1   
    37   15   38 1   
    38   16   39 1   
    39   17   40 1   
    40   18   19 2   
    41   18   20 1   
    42   19   41 1   
    43   20   21 1   
    44   20   42 1   
    45   20   43 1   
    46   21   44 1   
    47   22   45 1   
@<TRIPOS>SUBSTRUCTURE
     1 AC1         1 TEMP              0 ****  ****    0 ROOT
