@<TRIPOS>MOLECULE
AC1
   46    47     1     0     0
SMALL
bcc


@<TRIPOS>ATOM
      1 C1         -0.0130    0.2760   -0.2140 c3        1 AC1      0.294900
      2 O2          2.0920   -0.6430   -1.0540 oh        1 AC1     -0.572800
      3 C2          1.5250    0.2970   -0.1760 c3        1 AC1      0.102100
      4 C4          4.2450    3.6430    5.9330 c3        1 AC1      0.127300
      5 C3A         2.0230    0.0240    1.2560 c3        1 AC1      0.094100
      6 O3A         3.4220    0.1910    1.3660 oh        1 AC1     -0.620800
      7 C4A         1.3480    1.0340    2.2120 c3        1 AC1      0.076500
      8 N4A         1.8590    0.9000    3.6110 ny        1 AC1     -0.739000
      9 C5A        -0.1880    0.8120    2.1210 c3        1 AC1      0.134100
     10 O5         -0.5930    1.0980    0.7850 os        1 AC1     -0.415600
     11 C6A        -0.9680    1.7600    3.0110 c3        1 AC1     -0.122100
     12 C1B         3.0290    1.8090    3.9120 c3        1 AC1      0.139700
     13 C2B         3.8080    1.2540    5.1360 c3        1 AC1      0.137100
     14 O2B         2.9270    0.8930    6.1750 oh        1 AC1     -0.609800
     15 C3B         4.8660    2.2750    5.5760 c3        1 AC1      0.091100
     16 O3B         5.7700    2.3980    4.4950 oh        1 AC1     -0.585800
     17 O4          3.6940    3.5700    7.2430 oh        1 AC1     -0.597800
     18 C5B         3.1240    4.0420    5.0130 c2        1 AC1     -0.040400
     19 C7B         2.5760    3.2170    4.1130 c2        1 AC1     -0.213200
     20 C6B         2.6700    5.4570    5.1910 c3        1 AC1      0.158600
     21 O6B         1.5110    5.6720    4.4010 oh        1 AC1     -0.610800
     22 O1         -0.4260   -1.0370    0.0610 oh        1 AC1     -0.632800
     23 H1         -0.4160    0.6800   -1.1860 h2        1 AC1      0.118700
     24 HO2         1.6250   -1.4850   -0.9400 ho        1 AC1      0.435000
     25 HC2         1.9000    1.2980   -0.5350 h1        1 AC1      0.112700
     26 HC4         5.0530    4.4290    5.8830 h1        1 AC1      0.073700
     27 HCA3        1.7540   -1.0340    1.5470 h1        1 AC1      0.074700
     28 HOA3        3.8210   -0.1320    0.5420 ho        1 AC1      0.458000
     29 HCA4        1.5830    2.0830    1.8590 hx        1 AC1      0.128700
     30 HN4         1.1080    1.1130    4.2800 hn        1 AC1      0.456300
     31 HCA5       -0.4290   -0.2640    2.3560 h1        1 AC1      0.076700
     32 H6A1       -1.0460    1.3470    4.0450 hc        1 AC1      0.069367
     33 H6A2       -2.0050    1.8800    2.6040 hc        1 AC1      0.069367
     34 H6A3       -0.4930    2.7700    3.0410 hc        1 AC1      0.069367
     35 HCB1        3.7310    1.7630    3.0160 hx        1 AC1      0.155700
     36 HCB2        4.3250    0.2930    4.8410 h1        1 AC1      0.106700
     37 HO2B        2.7690    1.6660    6.7410 ho        1 AC1      0.448000
     38 HCB3        5.3840    1.8650    6.4900 h1        1 AC1      0.075700
     39 HOB3        6.5810    2.7960    4.8400 ho        1 AC1      0.429000
     40 HO4         4.4220    3.6700    7.8700 ho        1 AC1      0.428000
     41 HC7         1.7840    3.5940    3.4410 ha        1 AC1      0.169000
     42 HC61        2.4360    5.6280    6.2800 h1        1 AC1      0.061200
     43 HC62        3.4900    6.1570    4.8700 h1        1 AC1      0.061200
     44 HO6B        1.2400    6.5860    4.5540 ho        1 AC1      0.427000
     45 HO1        -1.3630   -1.1150   -0.1670 ho        1 AC1      0.446000
     46 H4A2        2.1680   -0.0670    3.7690 hn        1 AC1      0.456300
@<TRIPOS>BOND
     1    1    3 1   
     2    1   10 1   
     3    1   22 1   
     4    1   23 1   
     5    2    3 1   
     6    2   24 1   
     7    3    5 1   
     8    3   25 1   
     9    4   15 1   
    10    4   17 1   
    11    4   18 1   
    12    4   26 1   
    13    5    6 1   
    14    5    7 1   
    15    5   27 1   
    16    6   28 1   
    17    7    8 1   
    18    7    9 1   
    19    7   29 1   
    20    8   12 1   
    21    8   30 1   
    22    8   46 1   
    23    9   10 1   
    24    9   11 1   
    25    9   31 1   
    26   11   32 1   
    27   11   33 1   
    28   11   34 1   
    29   12   13 1   
    30   12   19 1   
    31   12   35 1   
    32   13   14 1   
    33   13   15 1   
    34   13   36 1   
    35   14   37 1   
    36   15   16 1   
    37   15   38 1   
    38   16   39 1   
    39   17   40 1   
    40   18   19 2   
    41   18   20 1   
    42   19   41 1   
    43   20   21 1   
    44   20   42 1   
    45   20   43 1   
    46   21   44 1   
    47   22   45 1   
@<TRIPOS>SUBSTRUCTURE
     1 AC1         1 TEMP              0 ****  ****    0 ROOT
