@<TRIPOS>MOLECULE
AC2
   27    25     1     0     0
SMALL
bcc


@<TRIPOS>ATOM
      1 C3'         1.4200   -3.1070   -2.9710 c3        1 AC2     -0.053000
      2 O3'         0.9840   -4.3220   -3.5890 oh        1 AC2     -0.335000
      3 C2'         0.2510   -2.4620   -2.2400 c3        1 AC2     -0.029000
      4 O1'         0.6950   -1.2720   -1.5950 os        1 AC2     -0.281000
      5 C1'        -0.3830   -0.4490   -1.0630 c3        1 AC2      0.102000
      6 N9          0.1690    0.6640   -0.3680 n3        1 AC2     -0.187000
      7 C8          1.0920    1.4860   -0.9220 c1        1 AC2     -0.082000
      8 N7          1.3300    2.5140   -0.0400 n2        1 AC2     -0.063000
      9 C5          0.5510    2.3180    1.0560 c1        1 AC2     -0.242000
     10 C6          0.2900    3.1770    2.2680 c1        1 AC2      0.397000
     11 O6          0.8520    4.2440    2.3840 o         1 AC2     -0.324000
     12 N1         -0.6850    2.7860    3.2110 n3        1 AC2     -0.348000
     13 C2         -1.4180    1.5820    3.0170 c2        1 AC2      0.231000
     14 N2         -2.3370    1.1430    4.0090 n3        1 AC2     -0.329000
     15 N3         -1.1650    0.7600    1.8560 n1        1 AC2     -0.243000
     16 C4         -0.1710    1.1760    0.8620 c1        1 AC2      0.061000
     17 H3'1        1.7540   -2.4950   -3.6550 h1        1 AC2      0.075000
     18 H3'2        2.1340   -3.3040   -2.3320 h1        1 AC2      0.075000
     19 HO'3        1.6680   -4.7150   -3.9790 ho        1 AC2      0.203000
     20 H2'1       -0.4560   -2.2410   -2.8850 h1        1 AC2      0.108500
     21 H2'2       -0.0970   -3.0810   -1.5760 h1        1 AC2      0.108500
     22 H1'1       -0.9200   -0.9770   -0.4520 h2        1 AC2      0.135500
     23 H1'2       -0.9520   -0.1260   -1.8070 h2        1 AC2      0.135500
     24 H8          1.4640    1.4090   -1.8350 DU        1 AC2      0.207000
     25 HN1        -0.7990    3.2740    3.9820 hn        1 AC2      0.248000
     26 HN21       -2.7870    0.3580    3.8970 hn        1 AC2      0.214000
     27 HN22       -2.4850    1.6590    4.7690 hn        1 AC2      0.214000
@<TRIPOS>BOND
     1    1    2 1   
     2    1    3 1   
     3    1   17 1   
     4    1   18 1   
     5    2   19 1   
     6    3    4 1   
     7    3   20 1   
     8    3   21 1   
     9    4    5 1   
    10    5    6 1   
    11    5   22 1   
    12    5   23 1   
    13    6    7 1   
    14    6   16 1   
    15    7    8 1   
    16    8    9 1   
    17    9   16 1   
    18   10   11 1   
    19   10   12 1   
    20   12   13 1   
    21   12   25 1   
    22   13   14 1   
    23   13   15 1   
    24   14   26 1   
    25   14   27 1   
@<TRIPOS>SUBSTRUCTURE
     1 AC2         1 TEMP              0 ****  ****    0 ROOT
