@<TRIPOS>MOLECULE
AC2
   28    29     1     0     0
SMALL
bcc


@<TRIPOS>ATOM
      1 C3'         0.3100    0.3950    0.2850 c3        1 AC2      0.122400
      2 O3'         1.2560    1.4140    0.5680 oh        1 AC2     -0.627800
      3 C2'        -0.2010   -0.1130    1.6300 c3        1 AC2      0.107400
      4 O1'        -1.2410    0.7870    2.0410 os        1 AC2     -0.398600
      5 C1'        -1.4190    0.9010    3.4310 c3        1 AC2      0.244100
      6 N9         -0.5250    1.8900    4.0160 na        1 AC2     -0.192900
      7 C8          0.4730    2.6530    3.3940 cc        1 AC2      0.481400
      8 N7          1.0840    3.5310    4.2380 nd        1 AC2     -0.584000
      9 C5          0.4610    3.3460    5.4560 cd        1 AC2      0.298800
     10 C6          0.6880    4.0070    6.7340 c         1 AC2      0.646000
     11 O6          1.4970    4.8840    7.0290 o         1 AC2     -0.508500
     12 N1         -0.1750    3.5430    7.7840 n         1 AC2     -0.503400
     13 C2         -1.1260    2.5470    7.5430 cd        1 AC2      0.485800
     14 N2         -1.9870    2.1320    8.6990 n4        1 AC2     -0.793600
     15 N3         -1.3670    1.9110    6.3940 nc        1 AC2     -0.521100
     16 C4         -0.5600    2.3230    5.3490 cc        1 AC2     -0.015200
     17 H3'1       -0.5360    0.8080   -0.3260 h1        1 AC2      0.056700
     18 H3'2        0.8040   -0.4490   -0.2650 h1        1 AC2      0.056700
     19 HO'3        1.5750    1.7500   -0.2790 ho        1 AC2      0.427000
     20 H2'1        0.6300   -0.1440    2.3790 h1        1 AC2      0.062700
     21 H2'2       -0.6620   -1.1280    1.5130 h1        1 AC2      0.062700
     22 H1'1       -2.4850    1.2640    3.5520 h2        1 AC2      0.086700
     23 H1'2       -1.2530   -0.0800    3.9620 h2        1 AC2      0.086700
     24 H8          0.7220    2.5210    2.3210 h5        1 AC2      0.131100
     25 HN1        -0.0700    3.9640    8.6820 hn        1 AC2      0.347500
     26 HN21       -2.6420    1.3950    8.3980 hn        1 AC2      0.480467
     27 HN22       -2.5230    2.9410    9.0340 hn        1 AC2      0.480467
     28 H23        -1.3940    1.7670    9.4530 hn        1 AC2      0.480467
@<TRIPOS>BOND
     1    1    2 1   
     2    1    3 1   
     3    1   17 1   
     4    1   18 1   
     5    2   19 1   
     6    3    4 1   
     7    3   20 1   
     8    3   21 1   
     9    4    5 1   
    10    5    6 1   
    11    5   22 1   
    12    5   23 1   
    13    6    7 1   
    14    6   16 1   
    15    7    8 2   
    16    7   24 1   
    17    8    9 1   
    18    9   10 1   
    19    9   16 2   
    20   10   11 2   
    21   10   12 1   
    22   12   13 1   
    23   12   25 1   
    24   13   14 1   
    25   13   15 2   
    26   14   26 1   
    27   14   27 1   
    28   14   28 1   
    29   15   16 1   
@<TRIPOS>SUBSTRUCTURE
     1 AC2         1 TEMP              0 ****  ****    0 ROOT
