@<TRIPOS>MOLECULE
AC2
   28    29     1     0     0
SMALL
bcc


@<TRIPOS>ATOM
      1 C3'         0.2680    0.5470    0.2750 c3        1 AC2      0.113400
      2 O3'         1.2840    1.4840    0.5690 oh        1 AC2     -0.606800
      3 C2'        -0.2770   -0.0730    1.5610 c3        1 AC2      0.075400
      4 O1'        -1.3240    0.7950    2.0200 os        1 AC2     -0.395600
      5 C1'        -1.4630    0.8960    3.4150 c3        1 AC2      0.243100
      6 N9         -0.5850    1.9150    3.9750 na        1 AC2     -0.193900
      7 C8          0.3440    2.7350    3.3190 cc        1 AC2      0.477400
      8 N7          0.9530    3.6280    4.1490 nd        1 AC2     -0.582000
      9 C5          0.3960    3.3970    5.3910 cd        1 AC2      0.297800
     10 C6          0.6490    4.0510    6.6680 c         1 AC2      0.646000
     11 O6          1.4320    4.9600    6.9390 o         1 AC2     -0.507500
     12 N1         -0.1470    3.5370    7.7470 n         1 AC2     -0.503400
     13 C2         -1.0620    2.5030    7.5330 cd        1 AC2      0.487800
     14 N2         -1.8560    2.0390    8.7180 n4        1 AC2     -0.793600
     15 N3         -1.3210    1.8680    6.3880 nc        1 AC2     -0.522100
     16 C4         -0.5800    2.3290    5.3150 cc        1 AC2     -0.014200
     17 H3'1        0.6390   -0.2640   -0.4030 h1        1 AC2      0.078700
     18 H3'2       -0.5360    1.1400   -0.2420 h1        1 AC2      0.078700
     19 HO'3        2.1170    1.0050    0.6510 ho        1 AC2      0.412000
     20 H2'1        0.5310   -0.1810    2.3270 h1        1 AC2      0.057200
     21 H2'2       -0.7490   -1.0700    1.3540 h1        1 AC2      0.057200
     22 H1'1       -2.5360    1.2210    3.5710 h2        1 AC2      0.086700
     23 H1'2       -1.2450   -0.0790    3.9380 h2        1 AC2      0.086700
     24 H8          0.5460    2.6340    2.2330 h5        1 AC2      0.131100
     25 HN1        -0.0230    3.9540    8.6450 hn        1 AC2      0.348500
     26 HN21       -2.4890    1.2750    8.4350 hn        1 AC2      0.480467
     27 HN22       -1.2170    1.6950    9.4450 hn        1 AC2      0.480467
     28 H23        -2.4140    2.8200    9.0820 hn        1 AC2      0.480467
@<TRIPOS>BOND
     1    1    2 1   
     2    1    3 1   
     3    1   17 1   
     4    1   18 1   
     5    2   19 1   
     6    3    4 1   
     7    3   20 1   
     8    3   21 1   
     9    4    5 1   
    10    5    6 1   
    11    5   22 1   
    12    5   23 1   
    13    6    7 1   
    14    6   16 1   
    15    7    8 2   
    16    7   24 1   
    17    8    9 1   
    18    9   10 1   
    19    9   16 2   
    20   10   11 2   
    21   10   12 1   
    22   12   13 1   
    23   12   25 1   
    24   13   14 1   
    25   13   15 2   
    26   14   26 1   
    27   14   27 1   
    28   14   28 1   
    29   15   16 1   
@<TRIPOS>SUBSTRUCTURE
     1 AC2         1 TEMP              0 ****  ****    0 ROOT
