@<TRIPOS>MOLECULE
AC2
   28    29     1     0     0
SMALL
bcc


@<TRIPOS>ATOM
      1 C3'         0.3040    0.4070    0.2810 c3        1 AC2      0.122400
      2 O3'         1.2670    1.4070    0.5740 oh        1 AC2     -0.627800
      3 C2'        -0.2240   -0.0980    1.6200 c3        1 AC2      0.107400
      4 O1'        -1.2500    0.8190    2.0300 os        1 AC2     -0.398600
      5 C1'        -1.4340    0.9290    3.4190 c3        1 AC2      0.244100
      6 N9         -0.5230    1.8970    4.0150 na        1 AC2     -0.192900
      7 C8          0.4910    2.6460    3.4020 cc        1 AC2      0.481400
      8 N7          1.1140    3.5060    4.2550 nd        1 AC2     -0.584000
      9 C5          0.4830    3.3250    5.4690 cd        1 AC2      0.298800
     10 C6          0.7170    3.9720    6.7530 c         1 AC2      0.646000
     11 O6          1.5410    4.8330    7.0560 o         1 AC2     -0.508500
     12 N1         -0.1580    3.5170    7.7960 ns        1 AC2     -0.503400
     13 C2         -1.1260    2.5400    7.5440 cd        1 AC2      0.485800
     14 N2         -1.9980    2.1320    8.6940 nz        1 AC2     -0.793600
     15 N3         -1.3730    1.9170    6.3900 nc        1 AC2     -0.521100
     16 C4         -0.5550    2.3210    5.3510 cc        1 AC2     -0.015200
     17 H3'1        0.7860   -0.4430   -0.2710 h1        1 AC2      0.056700
     18 H3'2       -0.5310    0.8390   -0.3340 h1        1 AC2      0.056700
     19 HO'3        1.5970    1.7420   -0.2680 ho        1 AC2      0.427000
     20 H2'1        0.6020   -0.1490    2.3740 h1        1 AC2      0.062700
     21 H2'2       -0.7040   -1.1040    1.4940 h1        1 AC2      0.062700
     22 H1'1       -2.4930    1.3120    3.5360 h2        1 AC2      0.086700
     23 H1'2       -1.2890   -0.0580    3.9460 h2        1 AC2      0.086700
     24 H8          0.7410    2.5170    2.3290 h5        1 AC2      0.131100
     25 HN1        -0.0480    3.9290    8.6980 hn        1 AC2      0.347500
     26 HN21       -2.6650    1.4090    8.3850 hn        1 AC2      0.480467
     27 HN22       -1.4150    1.7510    9.4480 hn        1 AC2      0.480467
     28 H23        -2.5210    2.9480    9.0330 hn        1 AC2      0.480467
@<TRIPOS>BOND
     1    1    2 1   
     2    1    3 1   
     3    1   17 1   
     4    1   18 1   
     5    2   19 1   
     6    3    4 1   
     7    3   20 1   
     8    3   21 1   
     9    4    5 1   
    10    5    6 1   
    11    5   22 1   
    12    5   23 1   
    13    6    7 1   
    14    6   16 1   
    15    7    8 2   
    16    7   24 1   
    17    8    9 1   
    18    9   10 1   
    19    9   16 2   
    20   10   11 2   
    21   10   12 1   
    22   12   13 1   
    23   12   25 1   
    24   13   14 1   
    25   13   15 2   
    26   14   26 1   
    27   14   27 1   
    28   14   28 1   
    29   15   16 1   
@<TRIPOS>SUBSTRUCTURE
     1 AC2         1 TEMP              0 ****  ****    0 ROOT
