@<TRIPOS>MOLECULE
AC2
   27    28     1     0     0
SMALL
bcc


@<TRIPOS>ATOM
      1 C3'         0.9590   -0.8150    4.2040 c3        1 AC2      0.131400
      2 O3'        -0.3230   -1.3750    4.3880 oh        1 AC2     -0.595800
      3 C2'         1.0960   -0.1540    2.8350 c3        1 AC2      0.080400
      4 O1'         0.3000    1.0310    2.8890 os        1 AC2     -0.437600
      5 C1'         0.3660    1.8390    1.7220 c3        1 AC2      0.245100
      6 N9         -0.4210    1.3420    0.6280 na        1 AC2     -0.238900
      7 C8         -1.8310    1.4360    0.4800 cc        1 AC2      0.407400
      8 N7         -2.2920    0.8200   -0.6210 nd        1 AC2     -0.583000
      9 C5         -1.1590    0.2690   -1.2270 cd        1 AC2      0.178800
     10 C6         -1.0260   -0.4960   -2.4490 c         1 AC2      0.651000
     11 O6         -1.9100   -0.8470   -3.2430 o         1 AC2     -0.593500
     12 N1          0.3110   -0.8850   -2.7410 n         1 AC2     -0.509400
     13 C2          1.4050   -0.5250   -1.9310 cd        1 AC2      0.687800
     14 N2          2.6940   -0.8670   -2.3950 nh        1 AC2     -0.894800
     15 N3          1.3050    0.1670   -0.7690 nc        1 AC2     -0.684100
     16 C4          0.0190    0.5690   -0.4560 cc        1 AC2      0.111800
     17 H3'1        1.6690   -1.6810    4.2770 h1        1 AC2      0.055200
     18 H3'2        1.1770   -0.0690    5.0140 h1        1 AC2      0.055200
     19 HO'3       -0.9640   -0.6610    4.2710 ho        1 AC2      0.412000
     20 H2'1        0.7150   -0.8310    2.0270 h1        1 AC2      0.050700
     21 H2'2        2.1650    0.1170    2.6330 h1        1 AC2      0.050700
     22 H1'1        1.4340    1.9560    1.3800 h2        1 AC2      0.084200
     23 H1'2       -0.0740    2.8240    2.0630 h2        1 AC2      0.084200
     24 H8         -2.4400    1.9760    1.2130 h5        1 AC2      0.070100
     25 HN1         0.4630   -1.3640   -3.6030 hn        1 AC2      0.335500
     26 HN21        3.4330   -0.7030   -1.7460 hn        1 AC2      0.422300
     27 HN22        2.7640   -1.7290   -2.8870 hn        1 AC2      0.422300
@<TRIPOS>BOND
     1    1    2 1   
     2    1    3 1   
     3    1   17 1   
     4    1   18 1   
     5    2   19 1   
     6    3    4 1   
     7    3   20 1   
     8    3   21 1   
     9    4    5 1   
    10    5    6 1   
    11    5   22 1   
    12    5   23 1   
    13    6    7 1   
    14    6   16 1   
    15    7    8 2   
    16    7   24 1   
    17    8    9 1   
    18    9   10 1   
    19    9   16 2   
    20   10   11 2   
    21   10   12 1   
    22   12   13 1   
    23   12   25 1   
    24   13   14 1   
    25   13   15 2   
    26   14   26 1   
    27   14   27 1   
    28   15   16 1   
@<TRIPOS>SUBSTRUCTURE
     1 AC2         1 TEMP              0 ****  ****    0 ROOT
