@<TRIPOS>MOLECULE
AC4
   35    32     1     0     0
SMALL
bcc


@<TRIPOS>ATOM
      1 O5         -2.1170   -0.1890    4.0590 o         1 AC4     -0.438000
      2 C6         -0.9600    0.0090    4.0850 c1        1 AC4      0.393000
      3 N2         -0.3140    0.3190    5.3350 n2        1 AC4     -0.356000
      4 C3A        -0.1810    0.0690    2.8030 c2        1 AC4     -0.353000
      5 C7A        -0.3590    0.9780    1.8000 c1        1 AC4      0.193000
      6 N3         -1.2670    2.1180    1.8280 n2        1 AC4     -0.356000
      7 N1          0.7910   -0.7980    2.4160 n2        1 AC4     -0.153000
      8 C5          1.2200   -0.4230    1.1620 c1        1 AC4     -0.115000
      9 N           0.5120    0.6680    0.7870 n2        1 AC4     -0.212000
     10 C1          0.7220    1.4480   -0.4210 c2        1 AC4      0.144000
     11 C2          1.8470    0.7840   -1.3290 c3        1 AC4     -0.086000
     12 C3          1.1150    0.1690   -2.4950 c3        1 AC4      0.168000
     13 O2          1.3450    0.9810   -3.7370 oh        1 AC4     -0.708000
     14 O1          2.6960    1.7140   -1.7630 oh        1 AC4     -0.382000
     15 O          -0.3220    1.4390   -1.1300 os        1 AC4     -0.286000
     16 C          -0.1600    0.2020   -2.1540 c3        1 AC4     -0.064000
     17 C4         -0.5410   -1.0800   -1.4890 c3        1 AC4      0.027000
     18 O3         -0.8810   -2.0450   -2.4840 os        1 AC4     -0.756000
     19 P          -2.1750   -3.0040   -2.2210 p5        1 AC4      1.589500
     20 OP1        -1.9960   -3.7620   -0.8760 o         1 AC4     -0.731500
     21 O4         -2.3030   -4.0160   -3.3570 o         1 AC4     -0.731500
     22 OP2        -3.4550   -2.1320   -2.1580 o         1 AC4     -0.731500
     23 H11        -0.8030    0.6690    6.0290 hn        1 AC4      0.225500
     24 H12         0.5880    0.1360    5.4470 hn        1 AC4      0.225500
     25 H9         -1.3190    2.6960    1.0860 hn        1 AC4      0.225500
     26 H10        -1.8400    2.2410    2.5560 hn        1 AC4      0.225500
     27 H13         1.9600   -0.8000    0.6870 DU        1 AC4      0.195000
     28 H2          0.9720    2.3710   -0.1920 h4        1 AC4      0.094000
     29 H3          2.3400    0.0780   -0.8150 h1        1 AC4      0.073000
     30 H4          1.4050   -0.7520   -2.6290 h1        1 AC4     -0.024000
     31 H5          1.7450    0.4670   -4.3700 ho        1 AC4      0.215000
     32 H1          3.5230    1.4430   -1.6290 ho        1 AC4      0.238000
     33 H6         -0.7240    0.3500   -2.9570 h1        1 AC4      0.121000
     34 H7          0.2240   -1.4150   -0.9510 h1        1 AC4      0.064500
     35 H8         -1.2880   -0.9340   -0.9210 h1        1 AC4      0.064500
@<TRIPOS>BOND
     1    1    2 1   
     2    2    4 1   
     3    3   23 1   
     4    3   24 1   
     5    4    5 1   
     6    4    7 1   
     7    5    9 1   
     8    6   25 1   
     9    6   26 1   
    10    7    8 1   
    11    8    9 1   
    12   10   11 1   
    13   10   15 1   
    14   10   28 1   
    15   11   12 1   
    16   11   14 1   
    17   11   29 1   
    18   12   13 1   
    19   12   16 1   
    20   12   30 1   
    21   13   31 1   
    22   14   32 1   
    23   15   16 1   
    24   16   17 1   
    25   16   33 1   
    26   17   18 1   
    27   17   34 1   
    28   17   35 1   
    29   18   19 1   
    30   19   20 1   
    31   19   21 1   
    32   19   22 1   
@<TRIPOS>SUBSTRUCTURE
     1 AC4         1 TEMP              0 ****  ****    0 ROOT
