@<TRIPOS>MOLECULE
AC4
   35    36     1     0     0
SMALL
bcc


@<TRIPOS>ATOM
      1 O5         -0.0920    0.6250    6.1260 o         1 AC4     -0.696100
      2 C6          0.9530    0.5030    5.4350 c         1 AC4      0.621600
      3 N2          2.1730    0.7330    6.0380 n         1 AC4     -0.669000
      4 C3A         0.9250    0.1180    4.0310 cc        1 AC4      0.121800
      5 C7A        -0.2640   -0.2340    3.3060 cd        1 AC4      0.111000
      6 N3         -1.5470   -0.4100    3.7910 nh        1 AC4     -0.809200
      7 N1          2.0350    0.0730    3.1660 nc        1 AC4     -0.681000
      8 C5          1.5520   -0.2750    1.9650 cd        1 AC4      0.429400
      9 N           0.1580   -0.4800    1.9900 na        1 AC4     -0.229900
     10 C1         -0.7180   -0.8610    0.8950 c3        1 AC4      0.220800
     11 C2         -1.7490    0.2490    0.5000 c3        1 AC4      0.089100
     12 C3         -1.6620    0.3310   -1.0390 c3        1 AC4      0.136100
     13 O2         -2.9010   -0.0570   -1.5860 oh        1 AC4     -0.692800
     14 O1         -3.0070   -0.0950    1.0380 oh        1 AC4     -0.640800
     15 O           0.0650   -1.1790   -0.2450 os        1 AC4     -0.437600
     16 C          -0.5520   -0.6520   -1.4500 c3        1 AC4      0.066100
     17 C4          0.5400   -0.0180   -2.3490 c3        1 AC4      0.237400
     18 O3          0.2720   -0.2700   -3.6650 os        1 AC4     -0.557200
     19 P          -0.4520    1.0760   -4.5100 p5        1 AC4      1.336900
     20 OP1         0.5620    2.1580   -4.2820 o         1 AC4     -0.930500
     21 O4         -0.6470    0.5560   -5.8990 o         1 AC4     -0.930500
     22 OP2        -1.6970    1.2080   -3.6500 o         1 AC4     -0.930500
     23 H11         2.1860    1.1150    6.9490 hn        1 AC4      0.302000
     24 H12         2.9990    0.7630    5.4990 hn        1 AC4      0.302000
     25 H9         -1.6800    0.0440    4.6730 hn        1 AC4      0.426300
     26 H10        -2.2810   -0.2710    3.1260 hn        1 AC4      0.426300
     27 H13         2.1130   -0.3980    1.0290 h5        1 AC4      0.090100
     28 H2         -1.2660   -1.7980    1.2210 h2        1 AC4      0.059700
     29 H3         -1.4870    1.2410    0.9580 h1        1 AC4      0.064700
     30 H4         -1.4150    1.3790   -1.3700 h1        1 AC4      0.123700
     31 H5         -2.8810    0.2630   -2.5230 ho        1 AC4      0.519000
     32 H1         -3.5530   -0.4560    0.3240 ho        1 AC4      0.441000
     33 H6         -0.9980   -1.5380   -1.9790 h1        1 AC4      0.073700
     34 H7          0.6020    1.0890   -2.1490 h1        1 AC4      0.001700
     35 H8          1.5200   -0.5000   -2.0590 h1        1 AC4      0.001700
@<TRIPOS>BOND
     1    1    2 2   
     2    2    3 1   
     3    2    4 1   
     4    3   23 1   
     5    3   24 1   
     6    4    5 2   
     7    4    7 1   
     8    5    6 1   
     9    5    9 1   
    10    6   25 1   
    11    6   26 1   
    12    7    8 2   
    13    8    9 1   
    14    8   27 1   
    15    9   10 1   
    16   10   11 1   
    17   10   15 1   
    18   10   28 1   
    19   11   12 1   
    20   11   14 1   
    21   11   29 1   
    22   12   13 1   
    23   12   16 1   
    24   12   30 1   
    25   13   31 1   
    26   14   32 1   
    27   15   16 1   
    28   16   17 1   
    29   16   33 1   
    30   17   18 1   
    31   17   34 1   
    32   17   35 1   
    33   18   19 1   
    34   19   20 1   
    35   19   21 1   
    36   19   22 1   
@<TRIPOS>SUBSTRUCTURE
     1 AC4         1 TEMP              0 ****  ****    0 ROOT
