@<TRIPOS>MOLECULE
AC5
   19    19     1     0     0
SMALL
bcc


@<TRIPOS>ATOM
      1 N           1.9080    0.0560    0.5460 n3        1 AC5     -0.880800
      2 O           0.1050    1.0790    2.5280 o         1 AC5     -0.841800
      3 CA          0.4860    0.0210    0.5080 c3        1 AC5      0.032200
      4 C           0.2630    0.0000    1.9000 c         1 AC5      0.892600
      5 CB1        -0.1980    1.2500   -0.2700 c3        1 AC5     -0.060400
      6 CB2        -0.1560   -1.2620   -0.3230 c3        1 AC5     -0.060400
      7 OXT         0.2210   -1.0980    2.5140 o         1 AC5     -0.841800
      8 CG1        -0.7420    0.7390   -1.3650 c3        1 AC5     -0.067400
      9 CG2        -1.1070   -0.7800   -1.0510 c3        1 AC5     -0.067400
     10 H           2.1820    0.8010    1.0040 hn        1 AC5      0.329800
     11 HN2         2.2200   -0.6940    0.9680 hn        1 AC5      0.329800
     12 HB11        0.4790    1.9150   -0.5100 hc        1 AC5      0.044200
     13 HB12       -0.8900    1.6590    0.2900 hc        1 AC5      0.044200
     14 HB21       -0.5140   -1.9240    0.3040 hc        1 AC5      0.044200
     15 HB22        0.5290   -1.6710   -0.8920 hc        1 AC5      0.044200
     16 HG11       -1.5530    1.2360   -1.5970 hc        1 AC5      0.014200
     17 HG12       -0.1020    0.7810   -2.1050 hc        1 AC5      0.014200
     18 HG21       -1.9560   -0.8240   -0.5620 hc        1 AC5      0.014200
     19 HG22       -1.1770   -1.2860   -1.8870 hc        1 AC5      0.014200
@<TRIPOS>BOND
     1    1    3 1   
     2    1   10 1   
     3    1   11 1   
     4    2    4 1   
     5    3    4 1   
     6    3    5 1   
     7    3    6 1   
     8    4    7 1   
     9    5    8 1   
    10    5   12 1   
    11    5   13 1   
    12    6    9 1   
    13    6   14 1   
    14    6   15 1   
    15    8    9 1   
    16    8   16 1   
    17    8   17 1   
    18    9   18 1   
    19    9   19 1   
@<TRIPOS>SUBSTRUCTURE
     1 AC5         1 TEMP              0 ****  ****    0 ROOT
