@<TRIPOS>MOLECULE
AC5
   19    19     1     0     0
SMALL
bcc


@<TRIPOS>ATOM
      1 N          -0.0730    1.5560    1.0390 n3        1 AC5     -0.880800
      2 O           1.4960   -1.1090   -0.9590 o         1 AC5     -0.841800
      3 CA         -0.0740    0.3680    0.1760 c3        1 AC5      0.032200
      4 C           1.3780   -0.0950   -0.2170 c         1 AC5      0.892600
      5 CB1        -0.8120   -0.8160    0.8450 c3        1 AC5     -0.060400
      6 CB2        -0.8880    0.6100   -1.1170 c3        1 AC5     -0.060400
      7 OXT         2.3530    0.5740    0.2310 o         1 AC5     -0.841800
      8 CG1        -2.2640   -0.7460    0.3940 c3        1 AC5     -0.067400
      9 CG2        -2.3120    0.1490   -0.8380 c3        1 AC5     -0.067400
     10 H           0.4820    1.3310    1.8480 hn        1 AC5      0.329800
     11 HN2         0.4310    2.2750    0.5490 hn        1 AC5      0.329800
     12 HB11       -0.3380   -1.7640    0.4810 hc        1 AC5      0.044200
     13 HB12       -0.7330   -0.7920    1.9580 hc        1 AC5      0.044200
     14 HB21       -0.8650    1.6790   -1.4410 hc        1 AC5      0.044200
     15 HB22       -0.4320   -0.0110   -1.9310 hc        1 AC5      0.044200
     16 HG11       -2.6550   -1.7670    0.1600 hc        1 AC5      0.014200
     17 HG12       -2.9060   -0.3200    1.2060 hc        1 AC5      0.014200
     18 HG21       -2.9780    1.0290   -0.6510 hc        1 AC5      0.014200
     19 HG22       -2.7280   -0.4030   -1.7170 hc        1 AC5      0.014200
@<TRIPOS>BOND
     1    1    3 1   
     2    1   10 1   
     3    1   11 1   
     4    2    4 1   
     5    3    4 1   
     6    3    5 1   
     7    3    6 1   
     8    4    7 1   
     9    5    8 1   
    10    5   12 1   
    11    5   13 1   
    12    6    9 1   
    13    6   14 1   
    14    6   15 1   
    15    8    9 1   
    16    8   16 1   
    17    8   17 1   
    18    9   18 1   
    19    9   19 1   
@<TRIPOS>SUBSTRUCTURE
     1 AC5         1 TEMP              0 ****  ****    0 ROOT
