@<TRIPOS>MOLECULE
AC6
   18    18     1     0     0
SMALL
bcc


@<TRIPOS>ATOM
      1 C1         -0.0930    0.1330    0.0390 ca        1 AC6      0.154100
      2 C2          1.3100    0.1390    0.0030 ca        1 AC6     -0.202500
      3 C3          2.0190    0.0900    1.1980 ca        1 AC6     -0.045000
      4 C4          1.3490    0.0370    2.4290 ca        1 AC6     -0.214600
      5 C5         -0.0530    0.0320    2.4470 ca        1 AC6     -0.045000
      6 C6         -0.7810    0.0790    1.2640 ca        1 AC6     -0.202500
      7 O1         -0.8650    0.1780   -1.0950 oh        1 AC6     -0.492100
      8 O2          3.3840   -0.0080    3.6460 o         1 AC6     -0.543100
      9 C7          2.1450   -0.0130    3.6710 c         1 AC6      0.581700
     10 C8          1.4010   -0.0700    4.9680 c3        1 AC6     -0.198100
     11 H2          1.8410    0.1810   -0.9580 ha        1 AC6      0.147000
     12 H3          3.1220    0.0940    1.1900 ha        1 AC6      0.148000
     13 H5         -0.5960   -0.0110    3.4050 ha        1 AC6      0.148000
     14 H6         -1.8800    0.0750    1.2690 ha        1 AC6      0.147000
     15 HO1        -0.2730    0.2120   -1.8610 ho        1 AC6      0.424000
     16 H81         0.7540    0.8340    5.0770 hc        1 AC6      0.064033
     17 H82         0.7590   -0.9840    5.0000 hc        1 AC6      0.064033
     18 H83         2.1190   -0.1040    5.8250 hc        1 AC6      0.064033
@<TRIPOS>BOND
     1    1    2 ar  
     2    1    6 ar  
     3    1    7 1   
     4    2    3 ar  
     5    2   11 1   
     6    3    4 ar  
     7    3   12 1   
     8    4    5 ar  
     9    4    9 1   
    10    5    6 ar  
    11    5   13 1   
    12    6   14 1   
    13    7   15 1   
    14    8    9 2   
    15    9   10 1   
    16   10   16 1   
    17   10   17 1   
    18   10   18 1   
@<TRIPOS>SUBSTRUCTURE
     1 AC6         1 TEMP              0 ****  ****    0 ROOT
