@<TRIPOS>MOLECULE
AC6
   18    15     1     0     0
SMALL
bcc


@<TRIPOS>ATOM
      1 C1         -0.8850   -0.0310   -2.0920 c1        1 AC6      0.137600
      2 C2          0.5010   -0.0310   -2.0920 c1        1 AC6     -0.074000
      3 C3          1.1940   -0.0310   -0.8920 c1        1 AC6     -0.074000
      4 C4          0.5010   -0.0310    0.3080 cg        1 AC6     -0.163200
      5 C5         -0.8850   -0.0310    0.3080 c1        1 AC6      0.000500
      6 C6         -1.5780   -0.0310   -0.8920 c1        1 AC6     -0.117500
      7 O1         -1.5890   -0.0470   -3.3110 oh        1 AC6     -0.475600
      8 O2          2.4730   -0.0890    1.6190 o         1 AC6     -0.543100
      9 C7          1.2580   -0.0630    1.6200 c         1 AC6      0.530300
     10 C8          0.5020   -0.0670    2.9300 c3        1 AC6     -0.198100
     11 H2          0.9890   -0.0310   -2.9380 ha        1 AC6      0.092000
     12 H3          2.1700   -0.0310   -0.8920 ha        1 AC6      0.092000
     13 H5         -1.3730   -0.0310    1.1540 ha        1 AC6      0.079500
     14 H6         -2.5540   -0.0310   -0.8920 ha        1 AC6      0.096500
     15 HO1        -1.7420    0.7860   -3.5760 ho        1 AC6      0.424000
     16 H81        -0.0510    0.7340    2.9890 hc        1 AC6      0.064033
     17 H82        -0.0670   -0.8590    2.9750 hc        1 AC6      0.064033
     18 H83         1.1370   -0.0800    3.6720 hc        1 AC6      0.064033
@<TRIPOS>BOND
     1    1    6 3   
     2    1    7 1   
     3    2    3 3   
     4    2   11 1   
     5    3   12 1   
     6    4    5 3   
     7    4    9 1   
     8    5   13 1   
     9    6   14 1   
    10    7   15 1   
    11    8    9 2   
    12    9   10 1   
    13   10   16 1   
    14   10   17 1   
    15   10   18 1   
@<TRIPOS>SUBSTRUCTURE
     1 AC6         1 TEMP              0 ****  ****    0 ROOT
