@<TRIPOS>MOLECULE
AC6
   18    18     1     0     0
SMALL
bcc


@<TRIPOS>ATOM
      1 C1         -0.0830    0.1170    0.0340 ca        1 AC6      0.154100
      2 C2          1.3190    0.1560    0.0060 ca        1 AC6     -0.202500
      3 C3          2.0230    0.1200    1.2050 ca        1 AC6     -0.045000
      4 C4          1.3470    0.0460    2.4320 ca        1 AC6     -0.214600
      5 C5         -0.0550    0.0080    2.4410 ca        1 AC6     -0.045000
      6 C6         -0.7760    0.0430    1.2550 ca        1 AC6     -0.202500
      7 O1         -0.8490    0.1490   -1.1040 oh        1 AC6     -0.492100
      8 O2          3.3760    0.0420    3.6600 o         1 AC6     -0.543100
      9 C7          2.1370    0.0100    3.6780 c         1 AC6      0.581700
     10 C8          1.3870   -0.0670    4.9710 c3        1 AC6     -0.198100
     11 H2          1.8550    0.2140   -0.9520 ha        1 AC6      0.147000
     12 H3          3.1260    0.1500    1.2040 ha        1 AC6      0.148000
     13 H5         -0.6020   -0.0500    3.3960 ha        1 AC6      0.148000
     14 H6         -1.8750    0.0140    1.2530 ha        1 AC6      0.147000
     15 HO1        -0.2540    0.2000   -1.8670 ho        1 AC6      0.424000
     16 H81         0.7190    0.8210    5.0780 hc        1 AC6      0.064033
     17 H82         0.7670   -0.9950    4.9970 hc        1 AC6      0.064033
     18 H83         2.1010   -0.0860    5.8310 hc        1 AC6      0.064033
@<TRIPOS>BOND
     1    1    2 ar  
     2    1    6 ar  
     3    1    7 1   
     4    2    3 ar  
     5    2   11 1   
     6    3    4 ar  
     7    3   12 1   
     8    4    5 ar  
     9    4    9 1   
    10    5    6 ar  
    11    5   13 1   
    12    6   14 1   
    13    7   15 1   
    14    8    9 2   
    15    9   10 1   
    16   10   16 1   
    17   10   17 1   
    18   10   18 1   
@<TRIPOS>SUBSTRUCTURE
     1 AC6         1 TEMP              0 ****  ****    0 ROOT
