@<TRIPOS>MOLECULE
AC6
   18    18     1     0     0
SMALL
bcc


@<TRIPOS>ATOM
      1 C1         -2.1050    0.1300    0.1190 ca        1 AC6      0.154100
      2 C2         -1.4720   -1.1220    0.1200 ca        1 AC6     -0.202500
      3 C3         -0.0830   -1.1790    0.0770 ca        1 AC6     -0.045000
      4 C4          0.6830   -0.0050    0.0330 ca        1 AC6     -0.214600
      5 C5          0.0340    1.2380    0.0320 ca        1 AC6     -0.045000
      6 C6         -1.3530    1.3170    0.0750 ca        1 AC6     -0.202500
      7 O1         -3.4700    0.2720    0.1600 oh        1 AC6     -0.492100
      8 O2          2.7200   -1.2200   -0.0110 o         1 AC6     -0.543100
      9 C7          2.1540   -0.1170   -0.0120 c         1 AC6      0.581700
     10 C8          2.9440    1.1530   -0.0590 c3        1 AC6     -0.198100
     11 H2         -2.0670   -2.0460    0.1550 ha        1 AC6      0.147000
     12 H3          0.4330   -2.1550    0.0770 ha        1 AC6      0.148000
     13 H5          0.6200    2.1700   -0.0030 ha        1 AC6      0.148000
     14 H6         -1.8700    2.2870    0.0740 ha        1 AC6      0.147000
     15 HO1        -3.8640   -0.6130    0.1870 ho        1 AC6      0.424000
     16 H81         4.0380    0.9270   -0.0900 hc        1 AC6      0.064033
     17 H82         2.6710    1.7380   -0.9700 hc        1 AC6      0.064033
     18 H83         2.7290    1.7700    0.8470 hc        1 AC6      0.064033
@<TRIPOS>BOND
     1    1    2 ar  
     2    1    6 ar  
     3    1    7 1   
     4    2    3 ar  
     5    2   11 1   
     6    3    4 ar  
     7    3   12 1   
     8    4    5 ar  
     9    4    9 1   
    10    5    6 ar  
    11    5   13 1   
    12    6   14 1   
    13    7   15 1   
    14    8    9 2   
    15    9   10 1   
    16   10   16 1   
    17   10   17 1   
    18   10   18 1   
@<TRIPOS>SUBSTRUCTURE
     1 AC6         1 TEMP              0 ****  ****    0 ROOT
