@<TRIPOS>MOLECULE
AC7
   63    59     1     0     0
SMALL
bcc


@<TRIPOS>ATOM
      1 C1          1.9650    0.3740   -1.5970 c1        1 AC7     -0.047000
      2 O1          5.3700   -0.2200   -0.2560 os        1 AC7     -0.219500
      3 C2          3.3410    0.3400   -1.5070 c1        1 AC7     -0.122500
      4 O2         -3.1400    4.3990    1.9280 os        1 AC7     -0.219500
      5 C3          3.9630   -0.2610   -0.3860 c2        1 AC7      0.148000
      6 O3         -3.7120   -5.0260   -0.4150 os        1 AC7     -0.280000
      7 C4          3.1800   -0.8200    0.6310 c2        1 AC7     -0.040000
      8 C5          1.7960   -0.7840    0.5370 c1        1 AC7     -0.044000
      9 O5          4.1500    2.2900   -2.9070 os        1 AC7     -0.270000
     10 C6          1.1800   -0.1860   -0.5790 c1        1 AC7     -0.065000
     11 C7          4.2070    0.9410   -2.6440 c2        1 AC7      0.354500
     12 O7         -2.6980    2.4660    4.4110 os        1 AC7     -0.270000
     13 C8         -0.3590   -0.0360   -0.6260 c2        1 AC7     -0.065000
     14 C9         -1.1390   -0.9780   -1.3220 c1        1 AC7     -0.114000
     15 C10        -2.3960    3.2970    1.3160 c2        1 AC7      0.148000
     16 C11        -1.7590    3.4860    0.0680 c2        1 AC7     -0.040000
     17 C12        -1.0860    2.4250   -0.5400 c1        1 AC7     -0.044000
     18 C13        -1.0410    1.1560    0.0920 c1        1 AC7     -0.065000
     19 C14        -1.6680    0.9650    1.3230 c1        1 AC7     -0.047000
     20 C15        -2.3520    2.0390    1.9440 c1        1 AC7     -0.122500
     21 C16        -3.1050    1.8090    3.2550 c2        1 AC7      0.354500
     22 C17        -0.4720   -2.1490   -2.0320 c2        1 AC7     -0.142000
     23 C18        -1.0360   -3.4990   -1.4570 c3        1 AC7     -0.156000
     24 C19        -2.2680   -3.9140   -2.2590 c3        1 AC7     -0.158000
     25 C20        -2.8980   -5.1600   -1.6240 c2        1 AC7      0.299000
     26 C21        -3.3980   -5.9560    0.5910 c3        1 AC7     -0.064000
     27 C22         5.9980   -1.4950   -0.3110 c3        1 AC7     -0.072500
     28 C23        -2.2800    5.4590    2.5000 c3        1 AC7     -0.072500
     29 C24         5.0490    2.7100   -3.8980 c3        1 AC7     -0.064000
     30 C25        -3.6450    2.4140    5.4580 c3        1 AC7     -0.064000
     31 O35         4.8060    0.2040   -3.4020 o         1 AC7     -0.342500
     32 O36        -4.1610    1.1910    3.2480 o         1 AC7     -0.342500
     33 O37        -2.8600   -6.2450   -2.2260 o         1 AC7     -0.350000
     34 N69         4.3530   -1.7960    2.8470 n1        1 AC7     -0.020000
     35 N74        -1.8730    5.8950   -1.1530 n1        1 AC7     -0.020000
     36 C77         3.8510   -1.3800    1.9010 c1        1 AC7     -0.094500
     37 C82        -1.8250    4.8600   -0.6290 c1        1 AC7     -0.094500
     38 H1          1.5250    0.8010   -2.3940 ha        1 AC7      0.162000
     39 H5          1.2220   -1.1910    1.2780 ha        1 AC7      0.158000
     40 H9         -2.1130   -0.8800   -1.3500 ha        1 AC7      0.139000
     41 H12        -0.6270    2.5610   -1.4360 ha        1 AC7      0.158000
     42 H14        -1.6340    0.0700    1.7660 ha        1 AC7      0.162000
     43 H17        -0.6570   -2.1010   -2.9550 ha        1 AC7      0.101500
     44 H17A        0.4560   -2.1110   -1.8970 ha        1 AC7      0.101500
     45 H18        -1.2750   -3.3790   -0.5530 hc        1 AC7      0.103000
     46 H18A       -0.3570   -4.1910   -1.5240 hc        1 AC7      0.103000
     47 H19        -2.9370   -3.1620   -2.2540 hc        1 AC7      0.119000
     48 H19A       -1.9970   -4.1190   -3.2120 hc        1 AC7      0.119000
     49 H21        -2.4700   -5.8520    0.8490 h1        1 AC7      0.091333
     50 H21A       -4.0000   -5.7960    1.4060 h1        1 AC7      0.091333
     51 H21B       -3.5410   -6.8500    0.2560 h1        1 AC7      0.091333
     52 H22         5.8550   -1.8920   -1.1920 h1        1 AC7      0.093667
     53 H22A        6.9640   -1.3900   -0.1520 h1        1 AC7      0.093667
     54 H22B        5.5920   -2.1120    0.4170 h1        1 AC7      0.093667
     55 H23        -1.7270    5.0750    3.2470 h1        1 AC7      0.093667
     56 H23A       -2.8550    6.2010    2.8570 h1        1 AC7      0.093667
     57 H23B       -1.6980    5.8050    1.8160 h1        1 AC7      0.093667
     58 H24         5.2780    3.6960   -3.7550 h1        1 AC7      0.093833
     59 H24A        4.6480    2.5960   -4.7630 h1        1 AC7      0.093833
     60 H24B        5.9120    2.1450   -3.8410 h1        1 AC7      0.093833
     61 H25        -4.2930    3.1980    5.3700 h1        1 AC7      0.093833
     62 H25A       -4.1280    1.5950    5.4050 h1        1 AC7      0.093833
     63 H25B       -3.1780    2.4670    6.3300 h1        1 AC7      0.093833
@<TRIPOS>BOND
     1    1   10 1   
     2    1   38 1   
     3    2    5 1   
     4    2   27 1   
     5    3    5 1   
     6    3   11 1   
     7    4   15 1   
     8    4   28 1   
     9    5    7 1   
    10    6   25 1   
    11    6   26 1   
    12    7    8 1   
    13    7   36 1   
    14    8   39 1   
    15    9   11 1   
    16    9   29 1   
    17   10   13 1   
    18   11   31 1   
    19   12   21 1   
    20   12   30 1   
    21   13   14 1   
    22   13   18 1   
    23   14   40 1   
    24   15   16 1   
    25   15   20 1   
    26   16   17 1   
    27   16   37 1   
    28   17   41 1   
    29   18   19 1   
    30   19   42 1   
    31   20   21 1   
    32   21   32 1   
    33   22   23 1   
    34   22   43 1   
    35   22   44 1   
    36   23   24 1   
    37   23   45 1   
    38   23   46 1   
    39   24   25 1   
    40   24   47 1   
    41   24   48 1   
    42   25   33 1   
    43   26   49 1   
    44   26   50 1   
    45   26   51 1   
    46   27   52 1   
    47   27   53 1   
    48   27   54 1   
    49   28   55 1   
    50   28   56 1   
    51   28   57 1   
    52   29   58 1   
    53   29   59 1   
    54   29   60 1   
    55   30   61 1   
    56   30   62 1   
    57   30   63 1   
    58   34   36 1   
    59   35   37 1   
@<TRIPOS>SUBSTRUCTURE
     1 AC7         1 TEMP              0 ****  ****    0 ROOT
