@<TRIPOS>MOLECULE
AC7
   63    64     1     0     0
SMALL
bcc


@<TRIPOS>ATOM
      1 C1         49.9500  -28.7470   38.1330 ca        1 AC7     -0.039000
      2 O1         50.9200  -30.5060   35.0360 os        1 AC7     -0.338900
      3 C2         50.6780  -29.1040   36.9940 ca        1 AC7     -0.139100
      4 C3         50.1490  -30.0330   36.0820 ca        1 AC7      0.189100
      5 C4         48.8680  -30.5790   36.3100 ca        1 AC7     -0.046000
      6 C5         48.1410  -30.1970   37.4440 ca        1 AC7     -0.052500
      7 C6         48.6740  -29.2780   38.3560 ca        1 AC7     -0.079300
      8 C7         51.9800  -28.4510   36.7610 c         1 AC7      0.660700
      9 C8         47.8910  -28.8740   39.5290 ce        1 AC7     -0.024400
     10 C9         47.5760  -27.5960   39.8140 c2        1 AC7     -0.121200
     11 C10        46.6020  -32.0110   42.1410 ca        1 AC7      0.189100
     12 C11        45.6960  -31.0080   41.7390 ca        1 AC7     -0.046000
     13 C12        46.1240  -29.9910   40.8770 ca        1 AC7     -0.052500
     14 C13        47.4440  -29.9590   40.4130 ca        1 AC7     -0.079300
     15 C14        48.3410  -30.9570   40.8140 ca        1 AC7     -0.039000
     16 C15        47.9240  -31.9870   41.6630 ca        1 AC7     -0.139100
     17 C16        48.9160  -33.0090   42.0450 c         1 AC7      0.660700
     18 C17        47.9420  -26.4070   39.0110 c3        1 AC7     -0.060200
     19 C18        48.7260  -25.4100   39.8460 c3        1 AC7     -0.077400
     20 C19        49.3460  -24.3270   38.9900 c3        1 AC7     -0.129400
     21 C20        50.5810  -24.8090   38.2930 c         1 AC7      0.630100
     22 C21        52.0860  -24.4310   36.4860 c3        1 AC7      0.116700
     23 C22        50.7870  -29.7520   33.8240 c3        1 AC7      0.114700
     24 C23        45.4650  -34.0310   42.6020 c3        1 AC7      0.114700
     25 C24        54.0410  -27.7960   37.7420 c3        1 AC7      0.125700
     26 C25        49.3610  -35.3210   42.3770 c3        1 AC7      0.125700
     27 O35        52.3380  -27.8040   35.7730 o         1 AC7     -0.539000
     28 O36        50.0980  -32.8340   42.3460 o         1 AC7     -0.539000
     29 O37        51.3160  -25.7580   38.5840 o         1 AC7     -0.559000
     30 N69        47.8480  -32.2890   34.6630 n1        1 AC7     -0.351300
     31 N74        43.2550  -30.9890   42.5870 n1        1 AC7     -0.351300
     32 C77        48.3090  -31.5180   35.4030 cg        1 AC7      0.237800
     33 C82        44.3540  -31.0040   42.2060 cg        1 AC7      0.237800
     34 H1         50.3930  -28.0270   38.8480 ha        1 AC7      0.174500
     35 H5         47.1400  -30.6240   37.6180 ha        1 AC7      0.153500
     36 H9         46.9910  -27.3710   40.7250 ha        1 AC7      0.132000
     37 H12        45.4140  -29.2080   40.5640 ha        1 AC7      0.153500
     38 H14        49.3880  -30.9330   40.4660 ha        1 AC7      0.174500
     39 H17        47.0000  -25.9230   38.6330 hc        1 AC7      0.058700
     40 H17A       48.5490  -26.6950   38.1100 hc        1 AC7      0.058700
     41 H18        49.5370  -25.9470   40.4090 hc        1 AC7      0.062700
     42 H18A       48.0450  -24.9350   40.6000 hc        1 AC7      0.062700
     43 H19        49.6470  -23.4550   39.6320 hc        1 AC7      0.083200
     44 H19A       48.6140  -23.9510   38.2270 hc        1 AC7      0.083200
     45 H21        52.0150  -25.4960   36.1500 h1        1 AC7      0.058033
     46 H21A       52.1040  -23.7250   35.6200 h1        1 AC7      0.058033
     47 H21B       52.9790  -24.2970   37.1430 h1        1 AC7      0.058033
     48 H22        49.7280  -29.7730   33.4720 h1        1 AC7      0.054200
     49 H22A       51.1390  -28.7030   33.9860 h1        1 AC7      0.054200
     50 H22B       51.4570  -30.2960   33.1120 h1        1 AC7      0.054200
     51 H23        45.2100  -34.6080   43.5260 h1        1 AC7      0.054200
     52 H23A       44.5430  -33.6570   42.0960 h1        1 AC7      0.054200
     53 H23B       46.0860  -34.6450   41.9040 h1        1 AC7      0.054200
     54 H24        54.6320  -28.0890   36.8420 h1        1 AC7      0.054200
     55 H24A       53.7780  -26.7100   37.7020 h1        1 AC7      0.054200
     56 H24B       54.5750  -28.0560   38.6890 h1        1 AC7      0.054200
     57 H25        48.7580  -36.2570   42.2810 h1        1 AC7      0.054200
     58 H25A       50.2310  -35.3180   41.6770 h1        1 AC7      0.054200
     59 H25B       49.7110  -35.1620   43.4260 h1        1 AC7      0.054200
     60 O2         46.2420  -32.9370   43.1020 os        1 AC7     -0.338900
     61 O3         50.9050  -24.0560   37.2000 os        1 AC7     -0.436900
     62 O5         52.8400  -28.5700   37.8140 os        1 AC7     -0.422900
     63 O7         48.4380  -34.2910   42.0110 os        1 AC7     -0.422900
@<TRIPOS>BOND
     1    1    3 ar  
     2    1    7 ar  
     3    1   34 1   
     4    2    4 1   
     5    2   23 1   
     6    3    4 ar  
     7    3    8 1   
     8    4    5 ar  
     9    5    6 ar  
    10    5   32 1   
    11    6    7 ar  
    12    6   35 1   
    13    7    9 1   
    14    8   27 2   
    15    8   62 1   
    16    9   10 2   
    17    9   14 1   
    18   10   18 1   
    19   10   36 1   
    20   11   12 ar  
    21   11   16 ar  
    22   11   60 1   
    23   12   13 ar  
    24   12   33 1   
    25   13   14 ar  
    26   13   37 1   
    27   14   15 ar  
    28   15   16 ar  
    29   15   38 1   
    30   16   17 1   
    31   17   28 2   
    32   17   63 1   
    33   18   19 1   
    34   18   39 1   
    35   18   40 1   
    36   19   20 1   
    37   19   41 1   
    38   19   42 1   
    39   20   21 1   
    40   20   43 1   
    41   20   44 1   
    42   21   29 2   
    43   21   61 1   
    44   22   45 1   
    45   22   46 1   
    46   22   47 1   
    47   22   61 1   
    48   23   48 1   
    49   23   49 1   
    50   23   50 1   
    51   24   51 1   
    52   24   52 1   
    53   24   53 1   
    54   24   60 1   
    55   25   54 1   
    56   25   55 1   
    57   25   56 1   
    58   25   62 1   
    59   26   57 1   
    60   26   58 1   
    61   26   59 1   
    62   26   63 1   
    63   30   32 3   
    64   31   33 3   
@<TRIPOS>SUBSTRUCTURE
     1 AC7         1 TEMP              0 ****  ****    0 ROOT
