@<TRIPOS>MOLECULE
ACA
   21    19     1     0     0
SMALL
bcc


@<TRIPOS>ATOM
      1 C1          1.6290    1.7910    2.8210 c1        1 ACA      0.327000
      2 O1          2.8880    1.7910    2.8210 o         1 ACA     -0.585000
      3 O2          1.0000    1.7910    3.9110 os        1 ACA     -0.590000
      4 C2          0.8730    1.7910    1.5110 c3        1 ACA     -0.223000
      5 C3          0.6210    0.3650    1.0730 c3        1 ACA     -0.144000
      6 C4         -0.1380    0.3660   -0.2360 c3        1 ACA     -0.154000
      7 C5         -0.3880   -1.0600   -0.6740 c3        1 ACA     -0.196000
      8 C6         -1.1470   -1.0600   -1.9830 c3        1 ACA     -0.096000
      9 N6         -1.3820   -2.4040   -2.3970 n3        1 ACA     -0.339000
     10 H21         1.4000    2.2520    0.8310 hc        1 ACA      0.059000
     11 H22         0.0200    2.2510    1.6280 hc        1 ACA      0.059000
     12 H31         1.4740   -0.0940    0.9550 hc        1 ACA      0.083500
     13 H32         0.0950   -0.0960    1.7540 hc        1 ACA      0.083500
     14 H41         0.3880    0.8280   -0.9160 hc        1 ACA      0.067000
     15 H42        -0.9910    0.8240   -0.1170 hc        1 ACA      0.067000
     16 H51        -0.9120   -1.5230    0.0070 hc        1 ACA      0.075000
     17 H52         0.4660   -1.5190   -0.7940 hc        1 ACA      0.075000
     18 H61        -0.6230   -0.5960   -2.6630 h1        1 ACA      0.085500
     19 H62        -2.0010   -0.6030   -1.8630 h1        1 ACA      0.085500
     20 HN61       -0.9920   -2.5440   -3.2090 hn        1 ACA      0.130500
     21 HN62       -2.2800   -2.5500   -2.4610 hn        1 ACA      0.130500
@<TRIPOS>BOND
     1    1    2 1   
     2    1    4 1   
     3    4    5 1   
     4    4   10 1   
     5    4   11 1   
     6    5    6 1   
     7    5   12 1   
     8    5   13 1   
     9    6    7 1   
    10    6   14 1   
    11    6   15 1   
    12    7    8 1   
    13    7   16 1   
    14    7   17 1   
    15    8    9 1   
    16    8   18 1   
    17    8   19 1   
    18    9   20 1   
    19    9   21 1   
@<TRIPOS>SUBSTRUCTURE
     1 ACA         1 TEMP              0 ****  ****    0 ROOT
