@<TRIPOS>MOLECULE
ACA
   21    20     1     0     0
SMALL
bcc


@<TRIPOS>ATOM
      1 C1         -0.1030    0.1620   -2.7670 c         1 ACA      0.907600
      2 O1         -0.9400    1.1110   -2.7940 o         1 ACA     -0.852800
      3 O2          0.1210   -0.6070   -3.7450 o         1 ACA     -0.852800
      4 C2          0.7110   -0.0630   -1.4790 c3        1 ACA     -0.194400
      5 C3         -0.1700    0.0080   -0.2570 c3        1 ACA     -0.065400
      6 C4          0.6360   -0.0230    1.0250 c3        1 ACA     -0.075400
      7 C5         -0.2610    0.0420    2.2420 c3        1 ACA     -0.117400
      8 C6          0.5600    0.0150    3.5300 c3        1 ACA      0.140800
      9 N6         -0.1840    0.0760    4.7660 n3        1 ACA     -0.906800
     10 H21         1.4980    0.7310   -1.4300 hc        1 ACA      0.019700
     11 H22         1.2240   -1.0550   -1.5340 hc        1 ACA      0.019700
     12 H31        -0.8910   -0.8520   -0.2660 hc        1 ACA      0.044200
     13 H32        -0.7800    0.9500   -0.3080 hc        1 ACA      0.044200
     14 H41         1.3500    0.8420    1.0400 hc        1 ACA      0.027700
     15 H42         1.2520   -0.9600    1.0620 hc        1 ACA      0.027700
     16 H51        -0.9740   -0.8240    2.2260 hc        1 ACA      0.035700
     17 H52        -0.8770    0.9780    2.2000 hc        1 ACA      0.035700
     18 H61         1.2780    0.8830    3.5190 h1        1 ACA      0.046200
     19 H62         1.1740   -0.9300    3.5470 h1        1 ACA      0.046200
     20 HN61       -0.7200    0.9230    4.8070 hn        1 ACA      0.335300
     21 HN62       -0.8220   -0.6950    4.8270 hn        1 ACA      0.335300
@<TRIPOS>BOND
     1    1    2 1   
     2    1    3 1   
     3    1    4 1   
     4    4    5 1   
     5    4   10 1   
     6    4   11 1   
     7    5    6 1   
     8    5   12 1   
     9    5   13 1   
    10    6    7 1   
    11    6   14 1   
    12    6   15 1   
    13    7    8 1   
    14    7   16 1   
    15    7   17 1   
    16    8    9 1   
    17    8   18 1   
    18    8   19 1   
    19    9   20 1   
    20    9   21 1   
@<TRIPOS>SUBSTRUCTURE
     1 ACA         1 TEMP              0 ****  ****    0 ROOT
