@<TRIPOS>MOLECULE
ACB
   17    16     1     0     0
SMALL
bcc


@<TRIPOS>ATOM
      1 C           1.9760   -0.0390   -0.1880 c         1 ACB      0.912600
      2 O           2.3700   -0.4850   -1.3080 o         1 ACB     -0.879300
      3 OXT         2.6870    0.7390    0.5190 o         1 ACB     -0.879300
      4 CA          0.5720   -0.4440    0.3520 c3        1 ACB      0.072500
      5 N           0.3500   -1.8740    0.2330 n3        1 ACB     -0.908800
      6 CB         -0.4900    0.4400   -0.3410 c3        1 ACB     -0.189700
      7 CG         -1.9430   -0.0420   -0.1810 c         1 ACB      0.899600
      8 OD1        -2.3120   -0.6740    0.8560 o         1 ACB     -0.881300
      9 C4         -0.3890    1.8560    0.1830 c3        1 ACB     -0.063100
     10 OD2        -2.7640    0.2220   -1.1170 o         1 ACB     -0.881300
     11 HA          0.5430   -0.2100    1.4560 h1        1 ACB      0.039700
     12 H          -0.6240   -2.0650    0.3960 hn        1 ACB      0.335300
     13 H2          0.5730   -2.1550   -0.7050 hn        1 ACB      0.335300
     14 HB3        -0.2630    0.4440   -1.4430 hc        1 ACB      0.044700
     15 H41         0.6750    2.2000    0.1530 hc        1 ACB      0.014033
     16 H42        -1.0190    2.5410   -0.4330 hc        1 ACB      0.014033
     17 H43        -0.7470    1.9040    1.2400 hc        1 ACB      0.014033
@<TRIPOS>BOND
     1    1    2 1   
     2    1    3 1   
     3    1    4 1   
     4    4    5 1   
     5    4    6 1   
     6    4   11 1   
     7    5   12 1   
     8    5   13 1   
     9    6    7 1   
    10    6    9 1   
    11    6   14 1   
    12    7    8 1   
    13    7   10 1   
    14    9   15 1   
    15    9   16 1   
    16    9   17 1   
@<TRIPOS>SUBSTRUCTURE
     1 ACB         1 TEMP              0 ****  ****    0 ROOT
