@<TRIPOS>MOLECULE
ACC
   48    47     1     0     0
SMALL
bcc


@<TRIPOS>ATOM
      1 C1          0.5890   -2.1910   -0.3010 c         1 ACC      0.519100
      2 N2         -0.3510   -1.2490   -0.9560 n4        1 ACC     -0.665800
      3 C3          2.0970   -1.9200   -0.4670 c3        1 ACC      0.053500
      4 C4         -0.5670   -0.0290   -0.0800 c3        1 ACC     -0.014500
      5 C5         -1.6680    0.8530   -0.6260 c3        1 ACC     -0.042300
      6 O6          0.1220   -3.1410    0.3140 o         1 ACC     -0.407100
      7 N7          2.6910   -1.4060    0.7980 n4        1 ACC     -0.710800
      8 C8          3.9470   -0.5360    0.5830 c         1 ACC      0.603100
      9 C9          4.2860    0.2520    1.8020 c3        1 ACC     -0.174400
     10 C10         5.2820    1.3580    1.5310 c3        1 ACC     -0.066400
     11 C13         5.8990    1.8550    2.8260 c3        1 ACC     -0.080400
     12 C16         4.8510    2.2860    3.8490 c3        1 ACC     -0.078500
     13 N19         5.3190    3.4220    4.7030 n4        1 ACC     -0.829600
     14 C20         4.5190    1.0510    4.8310 c         1 ACC      0.938600
     15 O21         3.6960    0.2230    4.3920 o         1 ACC     -0.764800
     16 O22         5.1310    1.0710    5.9230 o         1 ACC     -0.764800
     17 C23         0.8000    0.7580   -0.0410 c         1 ACC      0.898600
     18 O25         1.2430    1.0360    1.0990 o         1 ACC     -0.772800
     19 O26         1.3910    0.8860   -1.1420 o         1 ACC     -0.772800
     20 O27         4.4910   -0.6290   -0.5020 o         1 ACC     -0.436100
     21 C35         2.7750   -3.2130   -0.9430 c3        1 ACC     -0.062300
     22 S37         3.2610   -4.3000    0.3500 sh        1 ACC     -0.282900
     23 S41        -3.0790   -0.1540   -1.0050 ss        1 ACC     -0.316200
     24 C42        -3.7120    0.5630   -2.4800 c3        1 ACC     -0.033000
     25 H2         -1.2820   -1.6830   -1.1390 hn        1 ACC      0.482800
     26 H3          2.2630   -1.1080   -1.2600 hx        1 ACC      0.187700
     27 H4         -0.8320   -0.3940    0.9540 hx        1 ACC      0.118700
     28 H52        -1.9250    1.6020    0.1670 h1        1 ACC      0.118200
     29 H51        -1.3190    1.4200   -1.5250 h1        1 ACC      0.118200
     30 H7          2.0100   -0.8080    1.3150 hn        1 ACC      0.492300
     31 H92         3.3460    0.7040    2.2520 hc        1 ACC      0.152700
     32 H91         4.6960   -0.4640    2.5780 hc        1 ACC      0.152700
     33 H102        4.7680    2.2020    0.9980 hc        1 ACC      0.070700
     34 H101        6.1040    0.9890    0.8610 hc        1 ACC      0.070700
     35 H132        6.5290    1.0430    3.2800 hc        1 ACC      0.064200
     36 H131        6.5910    2.7010    2.5590 hc        1 ACC      0.064200
     37 H16         3.9010    2.6050    3.3380 hx        1 ACC      0.098700
     38 H193        4.5170    3.9680    5.0140 hn        1 ACC      0.452467
     39 H192        5.7700    2.9940    5.5420 hn        1 ACC      0.452467
     40 H191        5.9820    4.0210    4.2170 hn        1 ACC      0.452467
     41 H352        3.7360   -2.9270   -1.4580 h1        1 ACC      0.128200
     42 H351        2.1250   -3.7100   -1.7030 h1        1 ACC      0.128200
     43 H37         2.1200   -4.9490    0.5610 hs        1 ACC      0.231800
     44 H423       -4.0270    1.6180   -2.3170 h1        1 ACC      0.083700
     45 H422       -2.9780    0.5290   -3.3150 h1        1 ACC      0.083700
     46 H421       -4.6090   -0.0450   -2.7480 h1        1 ACC      0.083700
     47 H22         0.0580   -0.9040   -1.8400 hn        1 ACC      0.482800
     48 H72         2.9600   -2.2190    1.3930 hn        1 ACC      0.492300
@<TRIPOS>BOND
     1    1    2 1   
     2    1    3 1   
     3    1    6 2   
     4    2    4 1   
     5    2   25 1   
     6    2   47 1   
     7    3    7 1   
     8    3   21 1   
     9    3   26 1   
    10    4    5 1   
    11    4   17 1   
    12    4   27 1   
    13    5   23 1   
    14    5   28 1   
    15    5   29 1   
    16    7    8 1   
    17    7   30 1   
    18    7   48 1   
    19    8    9 1   
    20    8   20 2   
    21    9   10 1   
    22    9   31 1   
    23    9   32 1   
    24   10   11 1   
    25   10   33 1   
    26   10   34 1   
    27   11   12 1   
    28   11   35 1   
    29   11   36 1   
    30   12   13 1   
    31   12   14 1   
    32   12   37 1   
    33   13   38 1   
    34   13   39 1   
    35   13   40 1   
    36   14   15 1   
    37   14   16 1   
    38   17   18 1   
    39   17   19 1   
    40   21   22 1   
    41   21   41 1   
    42   21   42 1   
    43   22   43 1   
    44   23   24 1   
    45   24   44 1   
    46   24   45 1   
    47   24   46 1   
@<TRIPOS>SUBSTRUCTURE
     1 ACC         1 TEMP              0 ****  ****    0 ROOT
