@<TRIPOS>MOLECULE
ACC
   48    47     1     0     0
SMALL
bcc


@<TRIPOS>ATOM
      1 C1          0.5640   -2.2080   -0.2310 c         1 ACC      0.519100
      2 N2         -0.3330   -1.2790   -0.9610 ny        1 ACC     -0.665800
      3 C3          2.0830   -1.9840   -0.3660 c3        1 ACC      0.053500
      4 C4         -0.5400   -0.0090   -0.1540 c3        1 ACC     -0.014500
      5 C5         -1.6020    0.8690   -0.7760 c3        1 ACC     -0.042300
      6 O6          0.0550   -3.1130    0.4170 o         1 ACC     -0.407100
      7 N7          2.6540   -1.4200    0.8880 ny        1 ACC     -0.710800
      8 C8          3.9380   -0.5940    0.6670 c         1 ACC      0.603100
      9 C9          4.2630    0.2470    1.8540 c3        1 ACC     -0.174400
     10 C10         5.2950    1.3130    1.5560 c3        1 ACC     -0.066400
     11 C13         5.8880    1.8610    2.8420 c3        1 ACC     -0.080400
     12 C16         4.8220    2.3700    3.8090 c3        1 ACC     -0.078500
     13 N19         5.2950    3.5370    4.6180 nz        1 ACC     -0.829600
     14 C20         4.4310    1.1960    4.8430 c         1 ACC      0.938600
     15 O21         3.5990    0.3670    4.4230 o         1 ACC     -0.764800
     16 O22         5.0120    1.2580    5.9510 o         1 ACC     -0.764800
     17 C23         0.8450    0.7440   -0.1160 c         1 ACC      0.898600
     18 O25         1.2630    1.0690    1.0210 o         1 ACC     -0.772800
     19 O26         1.4700    0.8010   -1.2040 o         1 ACC     -0.772800
     20 O27         4.5100   -0.7560   -0.3960 o         1 ACC     -0.436100
     21 C35         2.7400   -3.3160   -0.7560 c3        1 ACC     -0.062300
     22 S37         3.1600   -4.3460    0.6040 sh        1 ACC     -0.282900
     23 S41        -3.0280   -0.1210   -1.1450 ss        1 ACC     -0.316200
     24 C42        -3.6000    0.5340   -2.6730 c3        1 ACC     -0.033000
     25 H2         -1.2690   -1.6980   -1.1490 hn        1 ACC      0.482800
     26 H3          2.2920   -1.2180   -1.1940 hx        1 ACC      0.187700
     27 H4         -0.8440   -0.3140    0.8890 hx        1 ACC      0.118700
     28 H52        -1.8620    1.6650   -0.0300 h1        1 ACC      0.118200
     29 H51        -1.2140    1.3810   -1.6930 h1        1 ACC      0.118200
     30 H7          1.9750   -0.7800    1.3540 hn        1 ACC      0.492300
     31 H92         4.6320   -0.4370    2.6770 hc        1 ACC      0.152700
     32 H91         3.3230    0.7450    2.2520 hc        1 ACC      0.152700
     33 H102        6.1260    0.8890    0.9300 hc        1 ACC      0.070700
     34 H101        4.8180    2.1410    0.9660 hc        1 ACC      0.070700
     35 H132        6.6080    2.6750    2.5530 hc        1 ACC      0.064200
     36 H131        6.4830    1.0580    3.3560 hc        1 ACC      0.064200
     37 H16         3.8960    2.6860    3.2550 hx        1 ACC      0.098700
     38 H193        4.4990    4.1180    4.8760 hn        1 ACC      0.452467
     39 H192        5.7100    3.1430    5.4910 hn        1 ACC      0.452467
     40 H191        5.9870    4.0940    4.1220 hn        1 ACC      0.452467
     41 H352        2.0990   -3.8340   -1.5090 h1        1 ACC      0.128200
     42 H351        3.7230   -3.0800   -1.2560 h1        1 ACC      0.128200
     43 H37         1.9980   -4.9560    0.8140 hs        1 ACC      0.231800
     44 H423       -3.8920    1.6040   -2.5740 h1        1 ACC      0.083700
     45 H422       -2.8450    0.4390   -3.4830 h1        1 ACC      0.083700
     46 H421       -4.5050   -0.0640   -2.9350 h1        1 ACC      0.083700
     47 H22         0.1100   -0.9890   -1.8490 hn        1 ACC      0.482800
     48 H72         2.8840   -2.2070    1.5310 hn        1 ACC      0.492300
@<TRIPOS>BOND
     1    1    2 1   
     2    1    3 1   
     3    1    6 2   
     4    2    4 1   
     5    2   25 1   
     6    2   47 1   
     7    3    7 1   
     8    3   21 1   
     9    3   26 1   
    10    4    5 1   
    11    4   17 1   
    12    4   27 1   
    13    5   23 1   
    14    5   28 1   
    15    5   29 1   
    16    7    8 1   
    17    7   30 1   
    18    7   48 1   
    19    8    9 1   
    20    8   20 2   
    21    9   10 1   
    22    9   31 1   
    23    9   32 1   
    24   10   11 1   
    25   10   33 1   
    26   10   34 1   
    27   11   12 1   
    28   11   35 1   
    29   11   36 1   
    30   12   13 1   
    31   12   14 1   
    32   12   37 1   
    33   13   38 1   
    34   13   39 1   
    35   13   40 1   
    36   14   15 1   
    37   14   16 1   
    38   17   18 1   
    39   17   19 1   
    40   21   22 1   
    41   21   41 1   
    42   21   42 1   
    43   22   43 1   
    44   23   24 1   
    45   24   44 1   
    46   24   45 1   
    47   24   46 1   
@<TRIPOS>SUBSTRUCTURE
     1 ACC         1 TEMP              0 ****  ****    0 ROOT
