@<TRIPOS>MOLECULE
ACC
   48    47     1     0     0
SMALL
bcc


@<TRIPOS>ATOM
      1 C1         -0.3740   -1.0770    0.9150 c         1 ACC      0.539100
      2 N2         -1.0510   -0.9450   -0.3850 n4        1 ACC     -0.645800
      3 C3          1.1320   -1.3620    0.8740 c3        1 ACC      0.037500
      4 C4         -0.6830    0.3500   -1.0860 c3        1 ACC     -0.052500
      5 C5         -1.8440    0.8810   -1.9020 c3        1 ACC     -0.046300
      6 O6         -1.0240   -0.9740    1.9520 o         1 ACC     -0.447100
      7 N7          1.8070   -0.8830    2.1160 n4        1 ACC     -0.710800
      8 C8          2.2570    0.5770    2.0150 c         1 ACC      0.578100
      9 C9          3.6200    0.8020    2.5710 c3        1 ACC     -0.181400
     10 C10         4.1350    2.2110    2.3670 c3        1 ACC     -0.064400
     11 C13         5.6470    2.2580    2.4960 c3        1 ACC     -0.086400
     12 C16         6.1450    1.7600    3.8510 c3        1 ACC     -0.071500
     13 N19         7.4950    2.3150    4.1850 n4        1 ACC     -0.827600
     14 C20         6.2930    0.1590    3.8270 c         1 ACC      0.929600
     15 O21         5.2890   -0.4850    4.1990 o         1 ACC     -0.764300
     16 O22         7.4060   -0.2570    3.4370 o         1 ACC     -0.764300
     17 C23         0.5920    0.0920   -2.0200 c         1 ACC      0.917600
     18 O25         1.0020    1.0740   -2.6490 o         1 ACC     -0.752800
     19 O26         1.0540   -1.0860   -1.9640 o         1 ACC     -0.752800
     20 O27         1.4500    1.3480    1.5230 o         1 ACC     -0.434100
     21 C35         1.3360   -2.8610    0.6030 c3        1 ACC     -0.075300
     22 S37         2.9380   -3.3880    1.1210 sh        1 ACC     -0.249900
     23 S41        -2.8450   -0.3930   -2.6020 ss        1 ACC     -0.315200
     24 C42        -1.9740   -0.8620   -4.0600 c3        1 ACC     -0.041000
     25 H2         -2.0790   -1.0180   -0.2970 hn        1 ACC      0.486800
     26 H3          1.6030   -0.8000   -0.0170 hx        1 ACC      0.211700
     27 H4         -0.3860    1.1060   -0.3050 hx        1 ACC      0.103700
     28 H52        -2.5350    1.4940   -1.2700 h1        1 ACC      0.120200
     29 H51        -1.4080    1.5540   -2.6900 h1        1 ACC      0.120200
     30 H7          1.1790   -0.9770    2.9230 hn        1 ACC      0.482300
     31 H92         3.5960    0.5680    3.6820 hc        1 ACC      0.146700
     32 H91         4.3450    0.0640    2.1120 hc        1 ACC      0.146700
     33 H102        3.6600    2.8990    3.1150 hc        1 ACC      0.072200
     34 H101        3.8540    2.5830    1.3440 hc        1 ACC      0.072200
     35 H132        5.9570    3.3250    2.3170 hc        1 ACC      0.069700
     36 H131        6.1160    1.6320    1.6880 hc        1 ACC      0.069700
     37 H16         5.4330    2.0520    4.6700 hx        1 ACC      0.092700
     38 H193        7.6330    2.2880    5.1950 hn        1 ACC      0.455467
     39 H192        7.6160    3.2650    3.8400 hn        1 ACC      0.455467
     40 H191        8.1930    1.6810    3.7420 hn        1 ACC      0.455467
     41 H352        0.5250   -3.4730    1.0620 h1        1 ACC      0.131200
     42 H351        1.2880   -2.9830   -0.5210 h1        1 ACC      0.131200
     43 H37         2.5960   -4.3050    2.0170 hs        1 ACC      0.225800
     44 H423       -2.0150   -0.0590   -4.8290 h1        1 ACC      0.087367
     45 H422       -0.9060   -1.0990   -3.8450 h1        1 ACC      0.087367
     46 H421       -2.4940   -1.7680   -4.4490 h1        1 ACC      0.087367
     47 H22        -0.7020   -1.6970   -1.0260 hn        1 ACC      0.486800
     48 H72         2.6490   -1.5040    2.2680 hn        1 ACC      0.482300
@<TRIPOS>BOND
     1    1    2 1   
     2    1    3 1   
     3    1    6 2   
     4    2    4 1   
     5    2   25 1   
     6    2   47 1   
     7    3    7 1   
     8    3   21 1   
     9    3   26 1   
    10    4    5 1   
    11    4   17 1   
    12    4   27 1   
    13    5   23 1   
    14    5   28 1   
    15    5   29 1   
    16    7    8 1   
    17    7   30 1   
    18    7   48 1   
    19    8    9 1   
    20    8   20 2   
    21    9   10 1   
    22    9   31 1   
    23    9   32 1   
    24   10   11 1   
    25   10   33 1   
    26   10   34 1   
    27   11   12 1   
    28   11   35 1   
    29   11   36 1   
    30   12   13 1   
    31   12   14 1   
    32   12   37 1   
    33   13   38 1   
    34   13   39 1   
    35   13   40 1   
    36   14   15 1   
    37   14   16 1   
    38   17   18 1   
    39   17   19 1   
    40   21   22 1   
    41   21   41 1   
    42   21   42 1   
    43   22   43 1   
    44   23   24 1   
    45   24   44 1   
    46   24   45 1   
    47   24   46 1   
@<TRIPOS>SUBSTRUCTURE
     1 ACC         1 TEMP              0 ****  ****    0 ROOT
