@<TRIPOS>MOLECULE
ACC
   46    45     1     0     0
SMALL
bcc


@<TRIPOS>ATOM
      1 C1          1.5400   -0.9030   -1.6300 c         1 ACC      0.627100
      2 N2          1.5050   -0.7690   -0.2670 n         1 ACC     -0.527900
      3 C3          0.6740   -2.0560   -2.2290 c3        1 ACC      0.032700
      4 C4          1.9110    0.4460    0.4080 c3        1 ACC      0.011700
      5 C5          2.9030    0.2070    1.5440 c3        1 ACC     -0.005300
      6 O6          2.2180   -0.1740   -2.3820 o         1 ACC     -0.624100
      7 N7         -0.7280   -1.8330   -1.9710 n         1 ACC     -0.555900
      8 C8         -1.3210   -2.2820   -0.7970 c         1 ACC      0.658100
      9 C9         -2.6630   -1.6820   -0.4210 c3        1 ACC     -0.145400
     10 C10        -2.5320   -0.1860   -0.2180 c3        1 ACC     -0.109400
     11 C13        -3.6210    0.3570    0.6820 c3        1 ACC     -0.077400
     12 C16        -3.4540    1.8480    0.9440 c3        1 ACC     -0.038500
     13 N19        -2.2440    2.1690    1.7480 n4        1 ACC     -0.850600
     14 C20        -4.7640    2.4070    1.6420 c         1 ACC      0.922600
     15 O21        -5.8430    2.1480    1.0650 o         1 ACC     -0.795800
     16 O22        -4.5960    3.0790    2.6950 o         1 ACC     -0.795800
     17 C23         0.6670    1.1340    1.0410 c         1 ACC      0.890600
     18 O25        -0.0400    0.4800    1.8670 o         1 ACC     -0.845800
     19 O26         0.3680    2.3120    0.6910 o         1 ACC     -0.845800
     20 O27        -0.7690   -3.1520   -0.0960 o         1 ACC     -0.608100
     21 C35         1.0020   -2.1500   -3.7180 c3        1 ACC      0.009700
     22 S37         0.2890   -3.6250   -4.3930 sh        1 ACC     -0.368900
     23 S41         4.4720   -0.3300    0.9180 ss        1 ACC     -0.298200
     24 C42         5.3910   -0.4750    2.4020 c3        1 ACC     -0.044000
     25 H2          0.9160   -1.3740    0.2670 hn        1 ACC      0.331500
     26 H3          0.9750   -3.0270   -1.7260 h1        1 ACC      0.114700
     27 H4          2.3680    1.1490   -0.3500 h1        1 ACC      0.102700
     28 H52         3.0310    1.1720    2.0930 h1        1 ACC      0.070700
     29 H51         2.4930   -0.5440    2.2640 h1        1 ACC      0.070700
     30 H7         -1.1390   -1.0530   -2.4300 hn        1 ACC      0.310500
     31 H92        -2.9960   -2.1780    0.5300 hc        1 ACC      0.072700
     32 H91        -3.4210   -1.9130   -1.2130 hc        1 ACC      0.072700
     33 H102       -2.5750    0.3370   -1.2100 hc        1 ACC      0.060700
     34 H101       -1.5240    0.0350    0.2370 hc        1 ACC      0.060700
     35 H132       -3.6350   -0.2070    1.6520 hc        1 ACC      0.071700
     36 H131       -4.6310    0.2260    0.2050 hc        1 ACC      0.071700
     37 H16        -3.3610    2.3910   -0.0390 hx        1 ACC      0.075700
     38 H193       -2.5320    2.8030    2.5070 hn        1 ACC      0.463800
     39 H192       -1.5080    2.6110    1.1730 hn        1 ACC      0.463800
     40 H191       -1.8220    1.3170    2.1510 hn        1 ACC      0.463800
     41 H352        2.1150   -2.1670   -3.8250 h1        1 ACC      0.080700
     42 H351        0.6280   -1.2490   -4.2630 h1        1 ACC      0.080700
     43 H37         0.9640   -3.6560   -5.5270 hs        1 ACC      0.186800
     44 H423        6.4110   -0.8150    2.1120 h1        1 ACC      0.052700
     45 H422        4.9420   -1.2200    3.0960 h1        1 ACC      0.052700
     46 H421        5.4710    0.4980    2.9370 h1        1 ACC      0.052700
@<TRIPOS>BOND
     1    1    2 1   
     2    1    3 1   
     3    1    6 2   
     4    2    4 1   
     5    2   25 1   
     6    3    7 1   
     7    3   21 1   
     8    3   26 1   
     9    4    5 1   
    10    4   17 1   
    11    4   27 1   
    12    5   23 1   
    13    5   28 1   
    14    5   29 1   
    15    7    8 1   
    16    7   30 1   
    17    8    9 1   
    18    8   20 2   
    19    9   10 1   
    20    9   31 1   
    21    9   32 1   
    22   10   11 1   
    23   10   33 1   
    24   10   34 1   
    25   11   12 1   
    26   11   35 1   
    27   11   36 1   
    28   12   13 1   
    29   12   14 1   
    30   12   37 1   
    31   13   38 1   
    32   13   39 1   
    33   13   40 1   
    34   14   15 1   
    35   14   16 1   
    36   17   18 1   
    37   17   19 1   
    38   21   22 1   
    39   21   41 1   
    40   21   42 1   
    41   22   43 1   
    42   23   24 1   
    43   24   44 1   
    44   24   45 1   
    45   24   46 1   
@<TRIPOS>SUBSTRUCTURE
     1 ACC         1 TEMP              0 ****  ****    0 ROOT
