@<TRIPOS>MOLECULE
ACC
   46    44     1     0     0
SMALL
bcc


@<TRIPOS>ATOM
      1 C1         -1.9860   -0.9040   -1.0560 c1        1 ACC      0.270000
      2 N2         -2.7130    0.0920   -1.8670 n2        1 ACC     -0.289000
      3 C3         -0.4670   -0.9230   -1.0540 c3        1 ACC     -0.027000
      4 C4         -4.1200   -0.1210   -2.1890 c3        1 ACC     -0.097000
      5 C5         -4.5020    0.7400   -3.3560 c3        1 ACC     -0.238000
      6 O6         -2.6050   -1.7100   -0.3840 o         1 ACC     -0.383000
      7 N7          0.0070   -0.9590    0.2960 n         1 ACC     -0.338000
      8 C8          1.2080   -0.2520    0.6560 c2        1 ACC      0.324000
      9 C9          1.9220   -0.5750    1.9890 c3        1 ACC     -0.203000
     10 C10         3.1020    0.3550    2.1650 c3        1 ACC     -0.157000
     11 C13         3.8690   -0.0210    3.4580 c3        1 ACC     -0.169000
     12 C16         5.0250    0.9420    3.6610 c3        1 ACC     -0.197000
     13 N19         6.2350    0.1990    3.8880 n4        1 ACC     -0.048000
     14 C20         4.7450    1.8130    4.8460 c2        1 ACC      0.346000
     15 O21         4.6770    3.0580    4.7070 o         1 ACC     -0.516000
     16 O22         4.6190    1.2980    5.9920 o         1 ACC     -0.516000
     17 C23        -4.9630    0.2390   -1.0060 c2        1 ACC      0.331000
     18 O25        -4.7590    1.3190   -0.3930 o         1 ACC     -0.567500
     19 O26        -5.9030   -0.5120   -0.6550 o         1 ACC     -0.567500
     20 O27         1.5950    0.6700   -0.0290 o         1 ACC     -0.488000
     21 C35         0.0200   -2.1440   -1.7920 c3        1 ACC     -0.238000
     22 S37         0.1630   -1.7750   -3.5100 sh        1 ACC     -0.063000
     23 S41        -6.2220    0.4860   -3.7460 ss        1 ACC     -0.000000
     24 C42        -6.6090    1.3180   -5.2380 c3        1 ACC     -0.330000
     25 H2         -2.3130    0.8940   -2.0750 hn        1 ACC      0.202000
     26 H3         -0.1310   -0.1230   -1.4950 h1        1 ACC      0.146000
     27 H4         -4.2610   -1.0490   -2.4150 h1        1 ACC      0.117000
     28 H52        -4.3530    1.6860   -3.1270 h1        1 ACC      0.122000
     29 H51        -3.9530    0.5010   -4.1310 h1        1 ACC      0.122000
     30 H7         -0.4750   -1.3940    0.9370 hn        1 ACC      0.273000
     31 H92         2.2340   -1.4950    1.9740 hc        1 ACC      0.146500
     32 H91         1.2970   -0.4540    2.7320 hc        1 ACC      0.146500
     33 H102        2.7810    1.2800    2.2330 hc        1 ACC      0.087000
     34 H101        3.7000    0.2720    1.3950 hc        1 ACC      0.087000
     35 H132        3.2590    0.0330    4.2280 hc        1 ACC      0.117500
     36 H131        4.2130   -0.9310    3.3800 hc        1 ACC      0.117500
     37 H16         5.1290    1.4980    2.8660 hx        1 ACC      0.119000
     38 H193        6.4770   -0.2410    3.1140 hn        1 ACC      0.246000
     39 H192        6.0970   -0.4140    4.5560 hn        1 ACC      0.246000
     40 H191        6.9120    0.7800    4.1380 hn        1 ACC      0.246000
     41 H352        0.9030   -2.4130   -1.4380 h1        1 ACC      0.125000
     42 H351       -0.6130   -2.8710   -1.6690 h1        1 ACC      0.125000
     43 H37         0.8030   -2.6110   -4.0410 hs        1 ACC      0.068000
     44 H423       -6.5310    2.2840   -5.1020 h1        1 ACC      0.101000
     45 H422       -7.5240    1.0990   -5.5050 h1        1 ACC      0.101000
     46 H421       -5.9910    1.0370   -5.9360 h1        1 ACC      0.101000
@<TRIPOS>BOND
     1    1    3 1   
     2    1    6 1   
     3    2    4 1   
     4    2   25 1   
     5    3    7 1   
     6    3   21 1   
     7    3   26 1   
     8    4    5 1   
     9    4   17 1   
    10    4   27 1   
    11    5   23 1   
    12    5   28 1   
    13    5   29 1   
    14    7    8 1   
    15    7   30 1   
    16    8    9 1   
    17    8   20 1   
    18    9   10 1   
    19    9   31 1   
    20    9   32 1   
    21   10   11 1   
    22   10   33 1   
    23   10   34 1   
    24   11   12 1   
    25   11   35 1   
    26   11   36 1   
    27   12   13 1   
    28   12   14 1   
    29   12   37 1   
    30   13   38 1   
    31   13   39 1   
    32   13   40 1   
    33   14   15 1   
    34   14   16 1   
    35   17   18 1   
    36   17   19 1   
    37   21   22 1   
    38   21   41 1   
    39   21   42 1   
    40   22   43 1   
    41   23   24 1   
    42   24   44 1   
    43   24   45 1   
    44   24   46 1   
@<TRIPOS>SUBSTRUCTURE
     1 ACC         1 TEMP              0 ****  ****    0 ROOT
