@<TRIPOS>MOLECULE
ACD
   53    52     1     0     0
SMALL
bcc


@<TRIPOS>ATOM
      1 C1          1.1780   -2.2350    5.4750 c         1 ACD      0.908600
      2 C2          2.4770   -2.5490    4.7120 c3        1 ACD     -0.196400
      3 C3          2.8600   -1.4220    3.7850 c3        1 ACD     -0.064400
      4 C4          4.0300   -1.8000    2.9000 c3        1 ACD     -0.060200
      5 C5          4.4400   -0.7060    1.9890 c2        1 ACD     -0.133200
      6 C6          5.5550   -0.7230    1.2500 c2        1 ACD     -0.219200
      7 C7          6.5210   -1.8470    1.2740 c3        1 ACD     -0.016000
      8 C8          7.5880   -1.7500    0.2490 c2        1 ACD     -0.152200
      9 C9          8.5410   -2.6760    0.0890 c2        1 ACD     -0.192200
     10 C10         8.6260   -3.9010    0.9200 c3        1 ACD     -0.020000
     11 C11         9.7810   -4.7710    0.5990 c2        1 ACD     -0.166200
     12 C12        10.0320   -5.9230    1.2340 c2        1 ACD     -0.177200
     13 C13         9.1780   -6.4510    2.3240 c3        1 ACD     -0.021000
     14 C14         9.6500   -7.7380    2.8890 c2        1 ACD     -0.174200
     15 C15         9.0060   -8.3900    3.8640 c2        1 ACD     -0.172200
     16 C16         7.7520   -7.9070    4.4870 c3        1 ACD     -0.053200
     17 C17         7.2600   -8.8250    5.5870 c3        1 ACD     -0.074400
     18 C18         5.9790   -8.3020    6.1990 c3        1 ACD     -0.083400
     19 C19         5.4820   -9.2120    7.3020 c3        1 ACD     -0.076400
     20 C20         4.2040   -8.6930    7.9100 c3        1 ACD     -0.096100
     21 O1          0.2230   -1.6920    4.8470 o         1 ACD     -0.851800
     22 O2          1.1250   -2.5580    6.6970 o         1 ACD     -0.851800
     23 H21         3.2980   -2.7470    5.4450 hc        1 ACD      0.018700
     24 H22         2.3080   -3.4870    4.1250 hc        1 ACD      0.018700
     25 H31         1.9680   -1.1530    3.1570 hc        1 ACD      0.047200
     26 H32         3.1240   -0.5140    4.3880 hc        1 ACD      0.047200
     27 H41         3.7570   -2.7020    2.2850 hc        1 ACD      0.038200
     28 H42         4.9040   -2.1030    3.5410 hc        1 ACD      0.038200
     29 H5          3.7550    0.1580    1.9430 ha        1 ACD      0.125000
     30 H6          5.8030    0.1210    0.5890 ha        1 ACD      0.109000
     31 H71         5.9650   -2.8200    1.1380 hc        1 ACD      0.056200
     32 H72         6.9960   -1.9030    2.2960 hc        1 ACD      0.056200
     33 H8          7.5670   -0.8580   -0.3970 ha        1 ACD      0.119000
     34 H9          9.3120   -2.5560   -0.6880 ha        1 ACD      0.114000
     35 H101        7.6720   -4.4930    0.8030 hc        1 ACD      0.059200
     36 H102        8.6750   -3.6070    2.0090 hc        1 ACD      0.059200
     37 H11        10.4490   -4.4240   -0.2060 ha        1 ACD      0.118000
     38 H12        10.9060   -6.5320    0.9550 ha        1 ACD      0.117000
     39 H131        8.1240   -6.5780    1.9410 hc        1 ACD      0.060700
     40 H132        9.1160   -5.6850    3.1510 hc        1 ACD      0.060700
     41 H14        10.5790   -8.1490    2.4640 ha        1 ACD      0.116000
     42 H15         9.4010   -9.3440    4.2500 ha        1 ACD      0.117000
     43 H161        7.9150   -6.8750    4.9050 hc        1 ACD      0.053200
     44 H162        6.9570   -7.8080    3.6970 hc        1 ACD      0.053200
     45 H171        7.0880   -9.8520    5.1710 hc        1 ACD      0.035200
     46 H172        8.0470   -8.9170    6.3810 hc        1 ACD      0.035200
     47 H181        5.1910   -8.2100    5.4050 hc        1 ACD      0.048700
     48 H182        6.1490   -7.2720    6.6110 hc        1 ACD      0.048700
     49 H191        5.3130  -10.2420    6.8890 hc        1 ACD      0.030200
     50 H192        6.2690   -9.3010    8.0960 hc        1 ACD      0.030200
     51 H201        3.4000   -8.6210    7.1380 hc        1 ACD      0.037367
     52 H202        4.3590   -7.6750    8.3440 hc        1 ACD      0.037367
     53 H203        3.8550   -9.3750    8.7220 hc        1 ACD      0.037367
@<TRIPOS>BOND
     1    1    2 1   
     2    1   21 1   
     3    1   22 1   
     4    2    3 1   
     5    2   23 1   
     6    2   24 1   
     7    3    4 1   
     8    3   25 1   
     9    3   26 1   
    10    4    5 1   
    11    4   27 1   
    12    4   28 1   
    13    5    6 2   
    14    5   29 1   
    15    6    7 1   
    16    6   30 1   
    17    7    8 1   
    18    7   31 1   
    19    7   32 1   
    20    8    9 2   
    21    8   33 1   
    22    9   10 1   
    23    9   34 1   
    24   10   11 1   
    25   10   35 1   
    26   10   36 1   
    27   11   12 2   
    28   11   37 1   
    29   12   13 1   
    30   12   38 1   
    31   13   14 1   
    32   13   39 1   
    33   13   40 1   
    34   14   15 2   
    35   14   41 1   
    36   15   16 1   
    37   15   42 1   
    38   16   17 1   
    39   16   43 1   
    40   16   44 1   
    41   17   18 1   
    42   17   45 1   
    43   17   46 1   
    44   18   19 1   
    45   18   47 1   
    46   18   48 1   
    47   19   20 1   
    48   19   49 1   
    49   19   50 1   
    50   20   51 1   
    51   20   52 1   
    52   20   53 1   
@<TRIPOS>SUBSTRUCTURE
     1 ACD         1 TEMP              0 ****  ****    0 ROOT
