@<TRIPOS>MOLECULE
ACD
   53    47     1     0     0
SMALL
bcc


@<TRIPOS>ATOM
      1 C1        -11.1900   -0.5610   -0.8000 c1        1 ACD      0.328000
      2 C2         -9.6970   -0.6850   -1.0170 c2        1 ACD     -0.224000
      3 C3         -9.0590    0.6830   -0.9240 c3        1 ACD     -0.143000
      4 C4         -7.5550    0.5460   -1.0260 c3        1 ACD     -0.143000
      5 C5         -6.9280    1.9200   -1.1030 c2        1 ACD     -0.128000
      6 C6         -5.5870    2.0500   -1.0890 c1        1 ACD     -0.216000
      7 C7         -4.7080    0.8210   -0.9960 c2        1 ACD     -0.102000
      8 C8         -3.2880    1.1870   -1.3690 c2        1 ACD     -0.147667
      9 C9         -2.2540    0.5980   -0.7380 c1        1 ACD     -0.181000
     10 C10        -0.8340    0.9630   -1.1100 c2        1 ACD     -0.102000
     11 C11         0.1100    0.4850   -0.0290 c2        1 ACD     -0.147667
     12 C12         1.4420    0.5240   -0.2310 c1        1 ACD     -0.181000
     13 C13         2.3860    0.0460    0.8500 c2        1 ACD     -0.102000
     14 C14         3.7560   -0.1930    0.2540 c2        1 ACD     -0.147667
     15 C15         4.8200   -0.3730    1.0610 c1        1 ACD     -0.181000
     16 C16         6.1890   -0.6120    0.4650 c2        1 ACD     -0.129000
     17 C17         7.2050   -0.7590    1.5770 c3        1 ACD     -0.155000
     18 C18         8.5380   -1.1680    0.9920 c3        1 ACD     -0.158000
     19 C19         9.6030   -1.0960    2.0640 c3        1 ACD     -0.159000
     20 C20        10.8740   -1.7420    1.5570 c3        1 ACD     -0.210000
     21 O1        -11.9430   -0.2670   -1.7650 o         1 ACD     -0.586500
     22 O2        -11.6770   -0.7460    0.3460 o         1 ACD     -0.586500
     23 H21        -9.5270   -1.0650   -1.9020 ha        1 ACD      0.058500
     24 H22        -9.3160   -1.2710   -0.3320 ha        1 ACD      0.058500
     25 H31        -9.2920    1.0940   -0.0680 hc        1 ACD      0.086500
     26 H32        -9.3850    1.2450   -1.6550 hc        1 ACD      0.086500
     27 H41        -7.2170    0.0770   -0.2370 hc        1 ACD      0.078500
     28 H42        -7.3280    0.0370   -1.8300 hc        1 ACD      0.078500
     29 H5         -7.4940    2.7130   -1.1630 ha        1 ACD      0.124000
     30 H6         -5.1820    2.9370   -1.1400 ha        1 ACD      0.110000
     31 H71        -4.7270    0.4760   -0.0820 ha        1 ACD      0.090833
     32 H72        -5.0400    0.1360   -1.6110 ha        1 ACD      0.090833
     33 H8         -3.1220    1.8520   -2.0640 ha        1 ACD      0.120333
     34 H9         -2.4200   -0.0680   -0.0440 ha        1 ACD      0.121000
     35 H101       -0.7600    1.9350   -1.2010 ha        1 ACD      0.090833
     36 H102       -0.5990    0.5380   -1.9590 ha        1 ACD      0.090833
     37 H11        -0.2450    0.1540    0.8180 ha        1 ACD      0.120333
     38 H12         1.7980    0.8650   -1.0740 ha        1 ACD      0.121000
     39 H131        2.4490    0.7240    1.5510 ha        1 ACD      0.090833
     40 H132        2.0470   -0.7880    1.2330 ha        1 ACD      0.090833
     41 H14         3.8700   -0.2110   -0.7160 ha        1 ACD      0.120333
     42 H15         4.7070   -0.3450    2.0300 ha        1 ACD      0.121000
     43 H161        6.1730   -1.4290   -0.0720 ha        1 ACD      0.083500
     44 H162        6.4350    0.1460   -0.1020 ha        1 ACD      0.083500
     45 H171        7.3020    0.0940    2.0450 hc        1 ACD      0.081000
     46 H172        6.9010   -1.4440    2.2070 hc        1 ACD      0.081000
     47 H181        8.4780   -2.0840    0.6530 hc        1 ACD      0.078500
     48 H182        8.7720   -0.5640    0.2590 hc        1 ACD      0.078500
     49 H191        9.2940   -1.5690    2.8630 hc        1 ACD      0.078000
     50 H192        9.7790   -0.1600    2.2860 hc        1 ACD      0.078000
     51 H201       11.1590   -1.2980    0.7300 hc        1 ACD      0.070667
     52 H202       11.5770   -1.6540    2.2340 hc        1 ACD      0.070667
     53 H203       10.7090   -2.6910    1.3770 hc        1 ACD      0.070667
@<TRIPOS>BOND
     1    1   21 1   
     2    1   22 1   
     3    2    3 1   
     4    2   23 1   
     5    2   24 1   
     6    3    4 1   
     7    3   25 1   
     8    3   26 1   
     9    4    5 1   
    10    4   27 1   
    11    4   28 1   
    12    5    6 1   
    13    5   29 1   
    14    6   30 1   
    15    7    8 1   
    16    7   31 1   
    17    7   32 1   
    18    8    9 1   
    19    8   33 1   
    20    9   34 1   
    21   10   11 1   
    22   10   35 1   
    23   10   36 1   
    24   11   12 1   
    25   11   37 1   
    26   12   38 1   
    27   13   14 1   
    28   13   39 1   
    29   13   40 1   
    30   14   15 1   
    31   14   41 1   
    32   15   42 1   
    33   16   17 1   
    34   16   43 1   
    35   16   44 1   
    36   17   18 1   
    37   17   45 1   
    38   17   46 1   
    39   18   19 1   
    40   18   47 1   
    41   18   48 1   
    42   19   20 1   
    43   19   49 1   
    44   19   50 1   
    45   20   51 1   
    46   20   52 1   
    47   20   53 1   
@<TRIPOS>SUBSTRUCTURE
     1 ACD         1 TEMP              0 ****  ****    0 ROOT
