@<TRIPOS>MOLECULE
ACD
   53    52     1     0     0
SMALL
bcc


@<TRIPOS>ATOM
      1 C1          1.2920   -2.1260    5.6080 c         1 ACD      0.908600
      2 C2          2.5680   -2.4640    4.8160 c3        1 ACD     -0.196400
      3 C3          2.8460   -1.4330    3.7500 c3        1 ACD     -0.064400
      4 C4          4.1930   -1.6600    3.0920 c3        1 ACD     -0.060200
      5 C5          4.4860   -0.6720    2.0290 c2        1 ACD     -0.133200
      6 C6          5.5160   -0.7680    1.1790 c2        1 ACD     -0.219200
      7 C7          6.4780   -1.8960    1.2030 c3        1 ACD     -0.016000
      8 C8          7.6420   -1.7180    0.3030 c2        1 ACD     -0.152200
      9 C9          8.6360   -2.6090    0.1990 c2        1 ACD     -0.192200
     10 C10         8.6760   -3.8680    0.9800 c3        1 ACD     -0.020000
     11 C11         9.8450   -4.7280    0.6800 c2        1 ACD     -0.166200
     12 C12        10.0670   -5.9020    1.2840 c2        1 ACD     -0.177200
     13 C13         9.1680   -6.4660    2.3180 c3        1 ACD     -0.021000
     14 C14         9.5990   -7.7850    2.8380 c2        1 ACD     -0.174200
     15 C15         8.9450   -8.4430    3.8020 c2        1 ACD     -0.172200
     16 C16         7.7210   -7.9310    4.4610 c3        1 ACD     -0.053200
     17 C17         7.1610   -8.9030    5.4790 c3        1 ACD     -0.074400
     18 C18         5.9150   -8.3470    6.1330 c3        1 ACD     -0.083400
     19 C19         5.3450   -9.3150    7.1480 c3        1 ACD     -0.076400
     20 C20         4.1060   -8.7600    7.8030 c3        1 ACD     -0.096100
     21 O1          1.0880   -0.9220    5.9410 o         1 ACD     -0.851800
     22 O2          0.5180   -3.0810    5.9050 o         1 ACD     -0.851800
     23 H21         3.4190   -2.5030    5.5420 hc        1 ACD      0.018700
     24 H22         2.4600   -3.4790    4.3590 hc        1 ACD      0.018700
     25 H31         2.0380   -1.4710    2.9730 hc        1 ACD      0.047200
     26 H32         2.8080   -0.4130    4.2170 hc        1 ACD      0.047200
     27 H41         4.2300   -2.6980    2.6620 hc        1 ACD      0.038200
     28 H42         5.0020   -1.6070    3.8720 hc        1 ACD      0.038200
     29 H5          3.7930    0.1840    1.9670 ha        1 ACD      0.125000
     30 H6          5.6840    0.0020    0.4110 ha        1 ACD      0.109000
     31 H71         5.9380   -2.8470    0.9220 hc        1 ACD      0.056200
     32 H72         6.8460   -2.0510    2.2580 hc        1 ACD      0.056200
     33 H8          7.6600   -0.7940   -0.2980 ha        1 ACD      0.119000
     34 H9          9.4790   -2.4280   -0.4850 ha        1 ACD      0.114000
     35 H101        7.7290   -4.4520    0.7900 hc        1 ACD      0.059200
     36 H102        8.6710   -3.6210    2.0810 hc        1 ACD      0.059200
     37 H11        10.5470   -4.3540   -0.0830 ha        1 ACD      0.118000
     38 H12        10.9530   -6.5030    1.0230 ha        1 ACD      0.117000
     39 H131        8.1260   -6.5600    1.8930 hc        1 ACD      0.060700
     40 H132        9.0860   -5.7370    3.1760 hc        1 ACD      0.060700
     41 H14        10.5060   -8.2170    2.3860 ha        1 ACD      0.116000
     42 H15         9.3080   -9.4230    4.1510 ha        1 ACD      0.117000
     43 H161        7.9510   -6.9520    4.9650 hc        1 ACD      0.053200
     44 H162        6.9390   -7.7130    3.6820 hc        1 ACD      0.053200
     45 H171        6.9210   -9.8770    4.9760 hc        1 ACD      0.035200
     46 H172        7.9350   -9.1160    6.2620 hc        1 ACD      0.035200
     47 H181        5.1420   -8.1280    5.3500 hc        1 ACD      0.048700
     48 H182        6.1550   -7.3740    6.6370 hc        1 ACD      0.048700
     49 H191        5.1020  -10.2870    6.6420 hc        1 ACD      0.030200
     50 H192        6.1200   -9.5360    7.9300 hc        1 ACD      0.030200
     51 H201        3.3170   -8.5520    7.0410 hc        1 ACD      0.037367
     52 H202        4.3350   -7.8050    8.3340 hc        1 ACD      0.037367
     53 H203        3.6990   -9.4890    8.5440 hc        1 ACD      0.037367
@<TRIPOS>BOND
     1    1    2 1   
     2    1   21 1   
     3    1   22 1   
     4    2    3 1   
     5    2   23 1   
     6    2   24 1   
     7    3    4 1   
     8    3   25 1   
     9    3   26 1   
    10    4    5 1   
    11    4   27 1   
    12    4   28 1   
    13    5    6 2   
    14    5   29 1   
    15    6    7 1   
    16    6   30 1   
    17    7    8 1   
    18    7   31 1   
    19    7   32 1   
    20    8    9 2   
    21    8   33 1   
    22    9   10 1   
    23    9   34 1   
    24   10   11 1   
    25   10   35 1   
    26   10   36 1   
    27   11   12 2   
    28   11   37 1   
    29   12   13 1   
    30   12   38 1   
    31   13   14 1   
    32   13   39 1   
    33   13   40 1   
    34   14   15 2   
    35   14   41 1   
    36   15   16 1   
    37   15   42 1   
    38   16   17 1   
    39   16   43 1   
    40   16   44 1   
    41   17   18 1   
    42   17   45 1   
    43   17   46 1   
    44   18   19 1   
    45   18   47 1   
    46   18   48 1   
    47   19   20 1   
    48   19   49 1   
    49   19   50 1   
    50   20   51 1   
    51   20   52 1   
    52   20   53 1   
@<TRIPOS>SUBSTRUCTURE
     1 ACD         1 TEMP              0 ****  ****    0 ROOT
