@<TRIPOS>MOLECULE
ACD
   53    52     1     0     0
SMALL
bcc


@<TRIPOS>ATOM
      1 C1          3.4980   -3.0210   -2.8250 c         1 ACD      0.908600
      2 C2          2.3030   -2.2590   -2.2250 c3        1 ACD     -0.196400
      3 C3          1.1790   -2.1200   -3.2230 c3        1 ACD     -0.064400
      4 C4          0.0800   -1.2160   -2.7020 c3        1 ACD     -0.060200
      5 C5         -1.0460   -1.0740   -3.6540 c2        1 ACD     -0.133200
      6 C6         -2.2120   -0.4890   -3.3550 c2        1 ACD     -0.219200
      7 C7         -2.5120    0.0750   -2.0170 c3        1 ACD     -0.016000
      8 C8         -3.7810    0.8370   -1.9520 c2        1 ACD     -0.152200
      9 C9         -4.2180    1.4450   -0.8430 c2        1 ACD     -0.192200
     10 C10        -3.4740    1.4220    0.4390 c3        1 ACD     -0.020000
     11 C11        -4.1580    2.1250    1.5490 c2        1 ACD     -0.166200
     12 C12        -3.6490    2.2190    2.7830 c2        1 ACD     -0.177200
     13 C13        -2.3450    1.6290    3.1710 c3        1 ACD     -0.021000
     14 C14        -1.9820    1.8480    4.5910 c2        1 ACD     -0.174200
     15 C15        -0.8370    1.4160    5.1310 c2        1 ACD     -0.172200
     16 C16         0.1980    0.6730    4.3750 c3        1 ACD     -0.053200
     17 C17         1.3760    0.2780    5.2410 c3        1 ACD     -0.074400
     18 C18         2.4130   -0.4770    4.4370 c3        1 ACD     -0.083400
     19 C19         3.5930   -0.8790    5.2960 c3        1 ACD     -0.076400
     20 C20         4.6260   -1.6280    4.4950 c3        1 ACD     -0.096100
     21 O1          3.8470   -2.7620   -4.0130 o         1 ACD     -0.851800
     22 O2          4.0870   -3.8600   -2.0840 o         1 ACD     -0.851800
     23 H21         2.6670   -1.2460   -1.9150 hc        1 ACD      0.018700
     24 H22         1.9470   -2.7910   -1.3080 hc        1 ACD      0.018700
     25 H31         0.7550   -3.1320   -3.4510 hc        1 ACD      0.047200
     26 H32         1.5970   -1.7120   -4.1820 hc        1 ACD      0.047200
     27 H41         0.5050   -0.1960   -2.4870 hc        1 ACD      0.038200
     28 H42        -0.3030   -1.6160   -1.7230 hc        1 ACD      0.038200
     29 H5         -0.8720   -1.4850   -4.6630 ha        1 ACD      0.125000
     30 H6         -3.0100   -0.4100   -4.1090 ha        1 ACD      0.109000
     31 H71        -1.6620    0.7440   -1.6950 hc        1 ACD      0.056200
     32 H72        -2.5470   -0.7650   -1.2640 hc        1 ACD      0.056200
     33 H8         -4.3720    0.8860   -2.8810 ha        1 ACD      0.119000
     34 H9         -5.1700    1.9990   -0.8480 ha        1 ACD      0.114000
     35 H101       -2.4540    1.8810    0.2810 hc        1 ACD      0.059200
     36 H102       -3.2850    0.3500    0.7390 hc        1 ACD      0.059200
     37 H11        -5.1320    2.5830    1.3140 ha        1 ACD      0.118000
     38 H12        -4.2000    2.7540    3.5730 ha        1 ACD      0.117000
     39 H131       -1.5350    2.0550    2.5110 hc        1 ACD      0.060700
     40 H132       -2.3630    0.5200    2.9610 hc        1 ACD      0.060700
     41 H14        -2.7150    2.3970    5.2050 ha        1 ACD      0.116000
     42 H15        -0.6170    1.6050    6.1940 ha        1 ACD      0.117000
     43 H161        0.5590    1.3050    3.5170 hc        1 ACD      0.053200
     44 H162       -0.2600   -0.2490    3.9210 hc        1 ACD      0.053200
     45 H171        1.0200   -0.3610    6.0910 hc        1 ACD      0.035200
     46 H172        1.8400    1.1960    5.6880 hc        1 ACD      0.035200
     47 H181        2.7690    0.1620    3.5860 hc        1 ACD      0.048200
     48 H182        1.9480   -1.3930    3.9860 hc        1 ACD      0.048200
     49 H191        3.2350   -1.5200    6.1450 hc        1 ACD      0.030200
     50 H192        4.0560    0.0380    5.7480 hc        1 ACD      0.030200
     51 H201        5.4860   -1.9180    5.1460 hc        1 ACD      0.037367
     52 H202        4.1880   -2.5560    4.0540 hc        1 ACD      0.037367
     53 H203        5.0120   -0.9960    3.6590 hc        1 ACD      0.037367
@<TRIPOS>BOND
     1    1    2 1   
     2    1   21 1   
     3    1   22 1   
     4    2    3 1   
     5    2   23 1   
     6    2   24 1   
     7    3    4 1   
     8    3   25 1   
     9    3   26 1   
    10    4    5 1   
    11    4   27 1   
    12    4   28 1   
    13    5    6 2   
    14    5   29 1   
    15    6    7 1   
    16    6   30 1   
    17    7    8 1   
    18    7   31 1   
    19    7   32 1   
    20    8    9 2   
    21    8   33 1   
    22    9   10 1   
    23    9   34 1   
    24   10   11 1   
    25   10   35 1   
    26   10   36 1   
    27   11   12 2   
    28   11   37 1   
    29   12   13 1   
    30   12   38 1   
    31   13   14 1   
    32   13   39 1   
    33   13   40 1   
    34   14   15 2   
    35   14   41 1   
    36   15   16 1   
    37   15   42 1   
    38   16   17 1   
    39   16   43 1   
    40   16   44 1   
    41   17   18 1   
    42   17   45 1   
    43   17   46 1   
    44   18   19 1   
    45   18   47 1   
    46   18   48 1   
    47   19   20 1   
    48   19   49 1   
    49   19   50 1   
    50   20   51 1   
    51   20   52 1   
    52   20   53 1   
@<TRIPOS>SUBSTRUCTURE
     1 ACD         1 TEMP              0 ****  ****    0 ROOT
