@<TRIPOS>MOLECULE
ACE
    7     6     1     0     0
SMALL
bcc


@<TRIPOS>ATOM
      1 C          -0.1430    0.4260   -0.0000 c         1 ACE      0.563900
      2 O          -1.1660   -0.2600    0.0000 o         1 ACE     -0.528100
      3 CH3         1.2300   -0.1530    0.0000 c3        1 ACE     -0.221100
      4 H          -0.1980    1.5390   -0.0000 h4        1 ACE     -0.008800
      5 H1          1.3720   -0.7950    0.9050 hc        1 ACE      0.065033
      6 H2          1.3720   -0.7950   -0.9050 hc        1 ACE      0.065033
      7 H3          2.0040    0.6490    0.0000 hc        1 ACE      0.065033
@<TRIPOS>BOND
     1    1    2 2   
     2    1    3 1   
     3    1    4 1   
     4    3    5 1   
     5    3    6 1   
     6    3    7 1   
@<TRIPOS>SUBSTRUCTURE
     1 ACE         1 TEMP              0 ****  ****    0 ROOT
