@<TRIPOS>MOLECULE
ACE
    7     6     1     0     0
SMALL
bcc


@<TRIPOS>ATOM
      1 C           0.0310   -0.0150    0.0200 c         1 ACE      0.561900
      2 O           1.1080    0.5630   -0.1320 o         1 ACE     -0.526100
      3 CH3        -0.7440    0.0080    1.2920 c3        1 ACE     -0.221100
      4 H          -0.4310   -0.6010   -0.8070 h4        1 ACE     -0.009800
      5 H1         -0.8760   -1.0360    1.6680 hc        1 ACE      0.065033
      6 H2         -0.2240    0.6110    2.0760 hc        1 ACE      0.065033
      7 H3         -1.7540    0.4490    1.1070 hc        1 ACE      0.065033
@<TRIPOS>BOND
     1    1    2 2   
     2    1    3 1   
     3    1    4 1   
     4    3    5 1   
     5    3    6 1   
     6    3    7 1   
@<TRIPOS>SUBSTRUCTURE
     1 ACE         1 TEMP              0 ****  ****    0 ROOT
