@<TRIPOS>MOLECULE
ACE
    7     6     1     0     0
SMALL
bcc


@<TRIPOS>ATOM
      1 C           0.0280   -0.0060    0.0180 c         1 ACE      0.561900
      2 O           1.1940    0.3780   -0.0750 o         1 ACE     -0.526100
      3 CH3        -0.7410    0.0000    1.2940 c3        1 ACE     -0.221100
      4 H          -0.5260   -0.3890   -0.8690 h4        1 ACE     -0.009800
      5 H1         -1.0670   -1.0400    1.5380 hc        1 ACE      0.065033
      6 H2         -0.1270    0.3950    2.1390 hc        1 ACE      0.065033
      7 H3         -1.6510    0.6400    1.1780 hc        1 ACE      0.065033
@<TRIPOS>BOND
     1    1    2 2   
     2    1    3 1   
     3    1    4 1   
     4    3    5 1   
     5    3    6 1   
     6    3    7 1   
@<TRIPOS>SUBSTRUCTURE
     1 ACE         1 TEMP              0 ****  ****    0 ROOT
