@<TRIPOS>MOLECULE
ACF
   50    52     1     0     0
SMALL
bcc


@<TRIPOS>ATOM
      1 C1          0.3140    0.5820    0.3340 c         1 ACF      0.677100
      2 C2          1.7610    0.0560    0.2680 c3        1 ACF      0.121500
      3 C4          2.1150   -0.7050    1.5660 c3        1 ACF     -0.081400
      4 C5          3.4710   -0.1760    2.0100 c3        1 ACF     -0.087400
      5 C6          3.8320    0.9660    1.0380 c3        1 ACF      0.163500
      6 C9          4.1670    2.2710    1.7820 c3        1 ACF      0.138400
      7 O3          0.0320    1.7970    0.4000 o         1 ACF     -0.636100
      8 N7          2.7320    1.1310    0.0860 n3        1 ACF     -0.813200
      9 N8         -0.7060   -0.3520    0.3700 n         1 ACF     -0.470800
     10 C10         2.6340    3.7550    2.8180 ca        1 ACF      0.093100
     11 O11         3.2240    2.5000    2.8370 os        1 ACF     -0.330900
     12 C12         2.8650    4.6380    3.8880 ca        1 ACF      0.028400
     13 C13         2.1860    5.8630    3.9240 ca        1 ACF     -0.133000
     14 C14         1.3030    6.2050    2.9050 ca        1 ACF     -0.074000
     15 C15         1.0710    5.3210    1.8430 ca        1 ACF     -0.161600
     16 C16         1.7370    4.0960    1.7950 ca        1 ACF     -0.113000
     17 C17        -2.1120    0.0500    0.3000 c3        1 ACF      0.052700
     18 C18        -2.8970   -1.1580   -0.2540 c3        1 ACF     -0.087400
     19 C19        -1.9220   -2.3280   -0.3020 c3        1 ACF     -0.089400
     20 C20        -0.5360   -1.7500    0.0270 c3        1 ACF      0.089000
     21 C21        -2.7040    0.4720    1.6720 c3        1 ACF      0.155800
     22 N22        -2.0740    1.5750    2.3400 n3        1 ACF     -0.895800
     23 C24         0.1260    5.7320    0.7850 c         1 ACF      0.643700
     24 CL23        3.9410    4.2600    5.1430 cl        1 ACF     -0.071400
     25 O25        -0.1380    6.8960    0.4680 o         1 ACF     -0.504000
     26 O26        -0.5620    4.8050    0.0640 oh        1 ACF     -0.582100
     27 H2          1.8070   -0.6590   -0.6100 h1        1 ACF      0.044700
     28 H41         2.1510   -1.8030    1.3660 hc        1 ACF      0.059200
     29 H42         1.3450   -0.5220    2.3560 hc        1 ACF      0.059200
     30 H51         4.2490   -0.9770    1.9640 hc        1 ACF      0.064200
     31 H52         3.4250    0.2020    3.0620 hc        1 ACF      0.064200
     32 H6          4.7820    0.6910    0.4860 h1        1 ACF      0.035700
     33 H91         4.2110    3.1350    1.0720 h1        1 ACF      0.055700
     34 H92         5.1590    2.1420    2.2950 h1        1 ACF      0.055700
     35 HN7         3.0570    1.1740   -0.8580 hn        1 ACF      0.375800
     36 H13         2.3560    6.5590    4.7600 ha        1 ACF      0.154000
     37 H14         0.7820    7.1770    2.9210 ha        1 ACF      0.162000
     38 H16         1.5700    3.3750    0.9730 ha        1 ACF      0.192000
     39 H17        -2.1980    0.9300   -0.4030 h1        1 ACF      0.068700
     40 H181       -3.2840   -0.9210   -1.2760 hc        1 ACF      0.057200
     41 H182       -3.7740   -1.3930    0.3970 hc        1 ACF      0.057200
     42 H191       -1.9140   -2.8060   -1.3110 hc        1 ACF      0.054700
     43 H192       -2.2000   -3.1090    0.4470 hc        1 ACF      0.054700
     44 H201        0.1500   -1.8670   -0.8580 h1        1 ACF      0.041700
     45 H202       -0.0720   -2.2900    0.8980 h1        1 ACF      0.041700
     46 H211       -2.6930   -0.4150    2.3650 h1        1 ACF      0.054200
     47 H212       -3.7790    0.7510    1.4790 h1        1 ACF      0.054200
     48 H221       -0.3450    3.9060    0.3580 ho        1 ACF      0.455000
     49 H222       -2.0180    2.3730    1.7330 hn        1 ACF      0.353800
     50 H223       -1.1430    1.3380    2.6240 hn        1 ACF      0.353800
@<TRIPOS>BOND
     1    1    2 1   
     2    1    7 2   
     3    1    9 1   
     4    2    3 1   
     5    2    8 1   
     6    2   27 1   
     7    3    4 1   
     8    3   28 1   
     9    3   29 1   
    10    4    5 1   
    11    4   30 1   
    12    4   31 1   
    13    5    6 1   
    14    5    8 1   
    15    5   32 1   
    16    6   11 1   
    17    6   33 1   
    18    6   34 1   
    19    8   35 1   
    20    9   17 1   
    21    9   20 1   
    22   10   11 1   
    23   10   12 ar  
    24   10   16 ar  
    25   12   13 ar  
    26   12   24 1   
    27   13   14 ar  
    28   13   36 1   
    29   14   15 ar  
    30   14   37 1   
    31   15   16 ar  
    32   15   23 1   
    33   16   38 1   
    34   17   18 1   
    35   17   21 1   
    36   17   39 1   
    37   18   19 1   
    38   18   40 1   
    39   18   41 1   
    40   19   20 1   
    41   19   42 1   
    42   19   43 1   
    43   20   44 1   
    44   20   45 1   
    45   21   22 1   
    46   21   46 1   
    47   21   47 1   
    48   22   49 1   
    49   22   50 1   
    50   23   25 2   
    51   23   26 1   
    52   26   48 1   
@<TRIPOS>SUBSTRUCTURE
     1 ACF         1 TEMP              0 ****  ****    0 ROOT
