@<TRIPOS>MOLECULE
ACF
   50    52     1     0     0
SMALL
bcc


@<TRIPOS>ATOM
      1 C1          0.2910    0.5590    0.3700 c         1 ACF      0.677100
      2 C2          1.7420    0.0580    0.2410 c3        1 ACF      0.121500
      3 C4          2.1740   -0.6730    1.5330 c3        1 ACF     -0.081400
      4 C5          3.5420   -0.1120    1.8990 c3        1 ACF     -0.087400
      5 C6          3.8320    1.0190    0.8910 c3        1 ACF      0.164500
      6 C9          4.1760    2.3430    1.5970 c3        1 ACF      0.138400
      7 O3         -0.0100    1.7700    0.4260 o         1 ACF     -0.636100
      8 N7          2.6830    1.1480   -0.0070 n3        1 ACF     -0.813200
      9 N8         -0.7080   -0.3920    0.4740 n         1 ACF     -0.470800
     10 C10         2.6670    3.8140    2.6840 ca        1 ACF      0.093100
     11 O11         3.2820    2.5710    2.6930 os        1 ACF     -0.330900
     12 C12         2.9330    4.7200    3.7280 ca        1 ACF      0.028400
     13 C13         2.2330    5.9320    3.7790 ca        1 ACF     -0.133000
     14 C14         1.2950    6.2410    2.8000 ca        1 ACF     -0.074000
     15 C15         1.0280    5.3350    1.7640 ca        1 ACF     -0.161600
     16 C16         1.7160    4.1220    1.7020 ca        1 ACF     -0.113000
     17 C17        -2.1240   -0.0180    0.4660 c3        1 ACF      0.052700
     18 C18        -2.9110   -1.2500   -0.0260 c3        1 ACF     -0.087400
     19 C19        -1.9170   -2.4030   -0.0990 c3        1 ACF     -0.089400
     20 C20        -0.5280   -1.7940    0.1510 c3        1 ACF      0.089000
     21 C21        -2.6560    0.4220    1.8560 c3        1 ACF      0.155800
     22 N22        -2.0160    1.5500    2.4700 n3        1 ACF     -0.895800
     23 C24         0.0250    5.7120    0.7480 c         1 ACF      0.643700
     24 CL23        4.0780    4.3820    4.9340 cl        1 ACF     -0.071400
     25 O25        -0.2770    6.8640    0.4270 o         1 ACF     -0.504000
     26 O26        -0.6800    4.7600    0.0760 oh        1 ACF     -0.582100
     27 H2          1.7590   -0.6720   -0.6250 h1        1 ACF      0.044700
     28 H41         1.4420   -0.4890    2.3570 hc        1 ACF      0.059200
     29 H42         2.2200   -1.7740    1.3500 hc        1 ACF      0.059200
     30 H51         3.5420    0.2820    2.9450 hc        1 ACF      0.064200
     31 H52         4.3310   -0.9000    1.8260 hc        1 ACF      0.064200
     32 H6          4.7590    0.7530    0.2980 h1        1 ACF      0.035700
     33 H91         4.1680    3.1950    0.8720 h1        1 ACF      0.055700
     34 H92         5.1950    2.2420    2.0620 h1        1 ACF      0.055700
     35 HN7         2.9600    1.1800   -0.9660 hn        1 ACF      0.375800
     36 H13         2.4310    6.6450    4.5940 ha        1 ACF      0.154000
     37 H14         0.7560    7.2030    2.8270 ha        1 ACF      0.162000
     38 H16         1.5230    3.3850    0.9000 ha        1 ACF      0.192000
     39 H17        -2.2600    0.8460   -0.2490 h1        1 ACF      0.068700
     40 H181       -3.7510   -1.4890    0.6730 hc        1 ACF      0.057200
     41 H182       -3.3520   -1.0420   -1.0310 hc        1 ACF      0.057200
     42 H191       -1.9480   -2.9010   -1.0990 hc        1 ACF      0.054700
     43 H192       -2.1430   -3.1750    0.6760 hc        1 ACF      0.054700
     44 H201        0.1170   -1.9170   -0.7630 h1        1 ACF      0.041700
     45 H202       -0.0130   -2.3080    1.0100 h1        1 ACF      0.041700
     46 H211       -3.7440    0.6770    1.7100 h1        1 ACF      0.054200
     47 H212       -2.5940   -0.4510    2.5650 h1        1 ACF      0.054200
     48 H221       -0.4310    3.8700    0.3730 ho        1 ACF      0.455000
     49 H222       -1.0670    1.3360    2.7130 hn        1 ACF      0.353800
     50 H223       -2.0040    2.3360    1.8460 hn        1 ACF      0.353800
@<TRIPOS>BOND
     1    1    2 1   
     2    1    7 2   
     3    1    9 1   
     4    2    3 1   
     5    2    8 1   
     6    2   27 1   
     7    3    4 1   
     8    3   28 1   
     9    3   29 1   
    10    4    5 1   
    11    4   30 1   
    12    4   31 1   
    13    5    6 1   
    14    5    8 1   
    15    5   32 1   
    16    6   11 1   
    17    6   33 1   
    18    6   34 1   
    19    8   35 1   
    20    9   17 1   
    21    9   20 1   
    22   10   11 1   
    23   10   12 ar  
    24   10   16 ar  
    25   12   13 ar  
    26   12   24 1   
    27   13   14 ar  
    28   13   36 1   
    29   14   15 ar  
    30   14   37 1   
    31   15   16 ar  
    32   15   23 1   
    33   16   38 1   
    34   17   18 1   
    35   17   21 1   
    36   17   39 1   
    37   18   19 1   
    38   18   40 1   
    39   18   41 1   
    40   19   20 1   
    41   19   42 1   
    42   19   43 1   
    43   20   44 1   
    44   20   45 1   
    45   21   22 1   
    46   21   46 1   
    47   21   47 1   
    48   22   49 1   
    49   22   50 1   
    50   23   25 2   
    51   23   26 1   
    52   26   48 1   
@<TRIPOS>SUBSTRUCTURE
     1 ACF         1 TEMP              0 ****  ****    0 ROOT
