@<TRIPOS>MOLECULE
ACF
   49    51     1     0     0
SMALL
bcc


@<TRIPOS>ATOM
      1 C1         15.3720   -3.2620   33.9510 c         1 ACF      0.661100
      2 C2         16.1690   -2.8000   35.1810 c3        1 ACF      0.132500
      3 C4         15.8440   -3.5280   36.5020 c3        1 ACF     -0.077400
      4 C5         16.0350   -2.4820   37.5960 c3        1 ACF     -0.087400
      5 C6         16.1360   -1.1250   36.8710 c3        1 ACF      0.163500
      6 C9         15.1430   -0.0830   37.4190 c3        1 ACF      0.137400
      7 O3         15.0700   -2.4750   33.0340 o         1 ACF     -0.589100
      8 N7         15.9680   -1.3760   35.4380 n3        1 ACF     -0.804200
      9 N8         14.9900   -4.6020   33.8420 n         1 ACF     -0.465800
     10 C10        13.3850   -0.8040   38.8540 ca        1 ACF      0.076100
     11 O11        13.8240   -0.6110   37.5470 os        1 ACF     -0.318900
     12 C12        12.6620   -1.9720   39.1490 ca        1 ACF     -0.019600
     13 C13        12.1350   -2.1520   40.4340 ca        1 ACF     -0.141000
     14 C14        12.3450   -1.1920   41.4170 ca        1 ACF     -0.117000
     15 C15        13.0660   -0.0270   41.1320 ca        1 ACF     -0.101600
     16 C16        13.5680    0.1710   39.8460 ca        1 ACF     -0.149000
     17 C17        14.3770   -5.0610   32.5920 c3        1 ACF      0.047700
     18 C18        14.6980   -6.5620   32.4410 c3        1 ACF     -0.092400
     19 C19        15.6310   -6.9250   33.5890 c3        1 ACF     -0.094400
     20 C20        15.7080   -5.6820   34.4910 c3        1 ACF      0.084000
     21 C21        12.8520   -4.7930   32.5330 c3        1 ACF      0.156800
     22 N22        12.0590   -5.2070   33.6550 n3        1 ACF     -0.901800
     23 C24        13.3130    1.0160   42.2160 c         1 ACF      0.908200
     24 CL23       12.3760   -3.1850   37.9780 cl        1 ACF     -0.137400
     25 O25        14.0450    2.0030   41.9230 o         1 ACF     -0.824800
     26 O26        12.7800    0.8280   43.3440 o         1 ACF     -0.824800
     27 H2         17.2480   -3.0260   34.9040 h1        1 ACF      0.021700
     28 H41        14.7860   -3.8910   36.5040 hc        1 ACF      0.055700
     29 H42        16.5260   -4.3980   36.6520 hc        1 ACF      0.055700
     30 H51        15.1680   -2.4890   38.3050 hc        1 ACF      0.063700
     31 H52        16.9660   -2.6750   38.1820 hc        1 ACF      0.063700
     32 H6         17.1630   -0.6880   37.0680 h1        1 ACF      0.016700
     33 H91        15.5480    0.2910   38.3950 h1        1 ACF      0.059700
     34 H92        15.0360    0.7720   36.6970 h1        1 ACF      0.059700
     35 HN7        16.5500   -0.8030   34.8680 hn        1 ACF      0.374800
     36 H13        11.5560   -3.0590   40.6610 ha        1 ACF      0.124000
     37 H14        11.9470   -1.3220   42.4370 ha        1 ACF      0.159000
     38 H16        14.1040    1.1110   39.6370 ha        1 ACF      0.164000
     39 H17        14.8330   -4.4900   31.7270 h1        1 ACF      0.063700
     40 H181       15.1840   -6.7490   31.4530 hc        1 ACF      0.049700
     41 H182       13.7640   -7.1740   32.4810 hc        1 ACF      0.049700
     42 H191       15.2430   -7.7990   34.1660 hc        1 ACF      0.046700
     43 H192       16.6480   -7.1910   33.2090 hc        1 ACF      0.046700
     44 H201       15.2220   -5.8960   35.4840 h1        1 ACF      0.044700
     45 H202       16.7800   -5.4000   34.6810 h1        1 ACF      0.044700
     46 H211       12.7060   -3.6850   32.3790 h1        1 ACF      0.058700
     47 H212       12.4680   -5.3300   31.6190 h1        1 ACF      0.058700
     48 H221       12.3270   -6.1200   33.9660 hn        1 ACF      0.350300
     49 H222       12.1590   -4.5680   34.4210 hn        1 ACF      0.350300
@<TRIPOS>BOND
     1    1    2 1   
     2    1    7 2   
     3    1    9 1   
     4    2    3 1   
     5    2    8 1   
     6    2   27 1   
     7    3    4 1   
     8    3   28 1   
     9    3   29 1   
    10    4    5 1   
    11    4   30 1   
    12    4   31 1   
    13    5    6 1   
    14    5    8 1   
    15    5   32 1   
    16    6   11 1   
    17    6   33 1   
    18    6   34 1   
    19    8   35 1   
    20    9   17 1   
    21    9   20 1   
    22   10   11 1   
    23   10   12 ar  
    24   10   16 ar  
    25   12   13 ar  
    26   12   24 1   
    27   13   14 ar  
    28   13   36 1   
    29   14   15 ar  
    30   14   37 1   
    31   15   16 ar  
    32   15   23 1   
    33   16   38 1   
    34   17   18 1   
    35   17   21 1   
    36   17   39 1   
    37   18   19 1   
    38   18   40 1   
    39   18   41 1   
    40   19   20 1   
    41   19   42 1   
    42   19   43 1   
    43   20   44 1   
    44   20   45 1   
    45   21   22 1   
    46   21   46 1   
    47   21   47 1   
    48   22   48 1   
    49   22   49 1   
    50   23   25 1   
    51   23   26 1   
@<TRIPOS>SUBSTRUCTURE
     1 ACF         1 TEMP              0 ****  ****    0 ROOT
