@<TRIPOS>MOLECULE
ACF
   49    47     1     0     0
SMALL
bcc


@<TRIPOS>ATOM
      1 C1          0.5570   -1.4970   -0.5050 c1        1 ACF      0.310000
      2 C2          1.9700   -1.7410   -0.5100 c2        1 ACF     -0.037000
      3 C4          2.3580   -2.1150    0.7060 c3        1 ACF     -0.165000
      4 C5          2.7100   -0.8050    1.4640 c3        1 ACF     -0.177000
      5 C6          2.7750    0.3020    0.4050 c3        1 ACF     -0.056000
      6 C9          1.5070    1.2410    0.5190 c3        1 ACF     -0.013000
      7 O3          0.1080   -0.5750    0.1390 o         1 ACF     -0.417000
      8 N7          2.7780   -0.2990   -0.7250 n3        1 ACF     -0.293000
      9 N8         -0.2950   -2.2530   -1.3460 n3        1 ACF     -0.297000
     10 C10         0.8920    3.1950    1.7610 c1        1 ACF      0.050000
     11 O11         1.5250    1.9170    1.7780 o         1 ACF     -0.219000
     12 C12         1.6630    4.3550    1.9340 c2        1 ACF     -0.102000
     13 C13         1.0380    5.5900    2.0870 c1        1 ACF     -0.132000
     14 C14        -0.3560    5.6740    2.0690 c1        1 ACF     -0.124000
     15 C15        -1.1260    4.5180    1.8960 c1        1 ACF     -0.077000
     16 C16        -0.5020    3.2810    1.7420 c1        1 ACF     -0.172000
     17 C17        -1.8620   -2.0310   -1.5700 c3        1 ACF     -0.015000
     18 C18        -2.0920   -2.2780   -2.8450 c3        1 ACF     -0.167000
     19 C19        -0.9900   -3.2640   -3.2650 c3        1 ACF     -0.189000
     20 C20         0.0430   -3.2620   -2.0920 c3        1 ACF     -0.020000
     21 C21        -2.6640   -2.9940   -0.6960 c3        1 ACF     -0.099000
     22 N22        -4.0320   -2.4540   -0.4920 n3        1 ACF     -0.337000
     23 C24        -2.6740    4.6140    1.8560 c2        1 ACF      0.361000
     24 CL23        3.4000    4.2280    2.1080 cl        1 ACF     -0.054000
     25 O25        -3.3600    4.3610    2.9080 o         1 ACF     -0.563000
     26 O26        -3.2480    4.9810    0.8120 o         1 ACF     -0.563000
     27 H2          2.0450   -2.4260   -1.2460 h4        1 ACF      0.095000
     28 H41         1.6250   -2.5870    1.1670 hc        1 ACF      0.096500
     29 H42         3.1680   -2.7070    0.6440 hc        1 ACF      0.096500
     30 H51         3.5730   -0.8940    1.9070 hc        1 ACF      0.109500
     31 H52         2.0310   -0.6070    2.1060 hc        1 ACF      0.109500
     32 H6          3.6200    0.8380    0.5160 h1        1 ACF      0.074000
     33 H91         1.5230    1.8970   -0.2050 h1        1 ACF      0.100500
     34 H92         0.6740    0.6880    0.4490 h1        1 ACF      0.100500
     35 HN7         3.6280   -0.4670   -0.9720 hn        1 ACF      0.158000
     36 H13         1.5820    6.4160    2.1440 ha        1 ACF      0.126000
     37 H14        -0.8020    6.5550    2.1780 ha        1 ACF      0.159000
     38 H16        -1.0520    2.4540    1.6180 ha        1 ACF      0.163000
     39 H17        -2.0990   -1.1220   -1.3630 h1        1 ACF      0.090000
     40 H181       -2.0250   -1.4240   -3.3860 hc        1 ACF      0.083500
     41 H182       -2.9570   -2.6770   -2.9560 hc        1 ACF      0.083500
     42 H191       -1.3730   -4.1810   -3.3870 hc        1 ACF      0.129000
     43 H192       -0.5510   -2.9530   -4.1160 hc        1 ACF      0.129000
     44 H201        0.9790   -3.1330   -2.4480 h1        1 ACF      0.093500
     45 H202       -0.0170   -4.1240   -1.5670 h1        1 ACF      0.093500
     46 H211       -2.2120   -3.0960    0.1870 h1        1 ACF      0.103500
     47 H212       -2.7210   -3.8850   -1.1460 h1        1 ACF      0.103500
     48 H221       -4.1120   -2.1350    0.3620 hn        1 ACF      0.135000
     49 H222       -4.6470   -3.1180   -0.6270 hn        1 ACF      0.135000
@<TRIPOS>BOND
     1    1    7 1   
     2    1    9 1   
     3    2    3 1   
     4    2    8 1   
     5    2   27 1   
     6    3    4 1   
     7    3   28 1   
     8    3   29 1   
     9    4    5 1   
    10    4   30 1   
    11    4   31 1   
    12    5    6 1   
    13    5    8 1   
    14    5   32 1   
    15    6   11 1   
    16    6   33 1   
    17    6   34 1   
    18    8   35 1   
    19    9   17 1   
    20    9   20 1   
    21   10   12 1   
    22   10   16 1   
    23   12   13 1   
    24   12   24 1   
    25   13   36 1   
    26   14   15 1   
    27   14   37 1   
    28   15   23 1   
    29   16   38 1   
    30   17   18 1   
    31   17   21 1   
    32   17   39 1   
    33   18   19 1   
    34   18   40 1   
    35   18   41 1   
    36   19   20 1   
    37   19   42 1   
    38   19   43 1   
    39   20   44 1   
    40   20   45 1   
    41   21   22 1   
    42   21   46 1   
    43   21   47 1   
    44   22   48 1   
    45   22   49 1   
    46   23   25 1   
    47   23   26 1   
@<TRIPOS>SUBSTRUCTURE
     1 ACF         1 TEMP              0 ****  ****    0 ROOT
