@<TRIPOS>MOLECULE
ACF
   50    52     1     0     0
SMALL
bcc


@<TRIPOS>ATOM
      1 C1          0.3170    0.5270    0.4820 c         1 ACF      0.667100
      2 C2          1.7810    0.0620    0.4450 c3        1 ACF      0.099500
      3 C4          2.1260   -0.7450    1.7200 c3        1 ACF     -0.092400
      4 C5          3.3960   -0.1190    2.2800 c3        1 ACF     -0.097400
      5 C6          3.8220    0.9620    1.2640 c3        1 ACF      0.137500
      6 C9          4.2970    2.2410    1.9640 c3        1 ACF      0.116400
      7 O3          0.0320    1.7430    0.6010 o         1 ACF     -0.677100
      8 N7          2.7450    1.1560    0.2870 n7        1 ACF     -0.779200
      9 N8         -0.6840   -0.4120    0.4280 n         1 ACF     -0.453800
     10 C10         2.7610    3.9850    2.5080 ca        1 ACF      0.092100
     11 O11         3.2670    2.7360    2.8300 os        1 ACF     -0.336900
     12 C12         3.5190    5.1670    2.5970 ca        1 ACF      0.011400
     13 C13         2.8940    6.4020    2.3880 ca        1 ACF     -0.125000
     14 C14         1.5320    6.4630    2.1100 ca        1 ACF     -0.074000
     15 C15         0.7770    5.2850    2.0220 ca        1 ACF     -0.156600
     16 C16         1.3900    4.0470    2.2190 ca        1 ACF     -0.100000
     17 C17        -2.0980   -0.0420    0.3260 c3        1 ACF      0.052700
     18 C18        -2.8340   -1.2620   -0.2670 c3        1 ACF     -0.087400
     19 C19        -1.8210   -2.3980   -0.3410 c3        1 ACF     -0.089400
     20 C20        -0.4650   -1.7990    0.0630 c3        1 ACF      0.087000
     21 C21        -2.7430    0.3480    1.6840 c3        1 ACF      0.158800
     22 N22        -2.2640    1.5380    2.3240 n8        1 ACF     -0.902800
     23 C24        -0.6720    5.3930    1.7540 c         1 ACF      0.644700
     24 Cl23        5.1760    5.1430    2.9680 cl        1 ACF     -0.074400
     25 O25        -1.3900    6.3530    2.0410 o         1 ACF     -0.494000
     26 O26        -1.3400    4.3780    1.1360 oh        1 ACF     -0.587100
     27 H2          1.9140   -0.5920   -0.4670 h1        1 ACF      0.081700
     28 H41         1.2960   -0.6960    2.4670 hc        1 ACF      0.056200
     29 H42         2.2850   -1.8180    1.4550 hc        1 ACF      0.056200
     30 H51         4.2050   -0.8800    2.3980 hc        1 ACF      0.061700
     31 H52         3.2030    0.3430    3.2800 hc        1 ACF      0.061700
     32 H6          4.7070    0.5800    0.6710 h1        1 ACF      0.069700
     33 H91         5.1550    1.9900    2.6450 h1        1 ACF      0.065700
     34 H92         4.6160    3.0090    1.2140 h1        1 ACF      0.065700
     35 HN7         2.2950    2.0460    0.4290 hn        1 ACF      0.375800
     36 H13         3.4810    7.3320    2.4570 ha        1 ACF      0.156000
     37 H14         1.0330    7.4360    1.9680 ha        1 ACF      0.164000
     38 H16         0.8140    3.1060    2.1700 ha        1 ACF      0.176000
     39 H17        -2.1820    0.8440   -0.3700 h1        1 ACF      0.067700
     40 H181       -3.7060   -1.5470    0.3720 hc        1 ACF      0.057700
     41 H182       -3.2240   -1.0100   -1.2840 hc        1 ACF      0.057700
     42 H191       -1.7660   -2.8220   -1.3730 hc        1 ACF      0.056200
     43 H192       -2.0980   -3.2260    0.3570 hc        1 ACF      0.056200
     44 H201       -0.0280   -2.3470    0.9440 h1        1 ACF      0.046700
     45 H202        0.2650   -1.8760   -0.7900 h1        1 ACF      0.046700
     46 H211       -2.6220   -0.5100    2.4030 h1        1 ACF      0.055200
     47 H212       -3.8450    0.4820    1.4830 h1        1 ACF      0.055200
     48 H221       -2.4210    2.3490    1.7560 hn        1 ACF      0.357800
     49 H222       -1.2830    1.4770    2.5210 hn        1 ACF      0.357800
     50 H223       -0.7210    3.6950    0.8340 ho        1 ACF      0.454000
@<TRIPOS>BOND
     1    1    2 1   
     2    1    7 2   
     3    1    9 1   
     4    2    3 1   
     5    2    8 1   
     6    2   27 1   
     7    3    4 1   
     8    3   28 1   
     9    3   29 1   
    10    4    5 1   
    11    4   30 1   
    12    4   31 1   
    13    5    6 1   
    14    5    8 1   
    15    5   32 1   
    16    6   11 1   
    17    6   33 1   
    18    6   34 1   
    19    8   35 1   
    20    9   17 1   
    21    9   20 1   
    22   10   11 1   
    23   10   12 ar  
    24   10   16 ar  
    25   12   13 ar  
    26   12   24 1   
    27   13   14 ar  
    28   13   36 1   
    29   14   15 ar  
    30   14   37 1   
    31   15   16 ar  
    32   15   23 1   
    33   16   38 1   
    34   17   18 1   
    35   17   21 1   
    36   17   39 1   
    37   18   19 1   
    38   18   40 1   
    39   18   41 1   
    40   19   20 1   
    41   19   42 1   
    42   19   43 1   
    43   20   44 1   
    44   20   45 1   
    45   21   22 1   
    46   21   46 1   
    47   21   47 1   
    48   22   48 1   
    49   22   49 1   
    50   23   25 2   
    51   23   26 1   
    52   26   50 1   
@<TRIPOS>SUBSTRUCTURE
     1 ACF         1 TEMP              0 ****  ****    0 ROOT
