@<TRIPOS>MOLECULE
ACH
   26    25     1     0     0
SMALL
bcc


@<TRIPOS>ATOM
      1 N1         -1.8240    0.1660   -0.1270 n4        1 ACH     -0.596800
      2 C2         -0.9430   -0.8040    0.6160 c3        1 ACH      0.076800
      3 C3          0.3220   -1.2700   -0.1050 c3        1 ACH      0.121400
      4 O4          1.2010   -0.2000   -0.4180 os        1 ACH     -0.469900
      5 C5          2.0700    0.2290    0.5760 c         1 ACH      0.638100
      6 O7          1.8150   -0.1520    1.7160 o         1 ACH     -0.520000
      7 C6          3.1520    1.1040    0.0650 c3        1 ACH     -0.154100
      8 C8         -1.9930   -0.2510   -1.5500 c3        1 ACH      0.086433
      9 C9         -3.1640    0.1890    0.5390 c3        1 ACH      0.086433
     10 C10        -1.2420    1.5410   -0.0810 c3        1 ACH      0.086433
     11 H21        -1.5620   -1.7210    0.8400 hx        1 ACH      0.115200
     12 H22        -0.6440   -0.3150    1.5910 hx        1 ACH      0.115200
     13 H31         0.1020   -1.7480   -1.0980 h1        1 ACH      0.100700
     14 H32         0.8270   -2.0130    0.5760 h1        1 ACH      0.100700
     15 H61         4.0980    0.5050    0.0140 hc        1 ACH      0.095367
     16 H62         2.9130    1.4920   -0.9550 hc        1 ACH      0.095367
     17 H63         3.3030    1.9570    0.7730 hc        1 ACH      0.095367
     18 H81        -2.3220   -1.3220   -1.5870 hx        1 ACH      0.103033
     19 H82        -2.7670    0.4000   -2.0370 hx        1 ACH      0.103033
     20 H83        -1.0140   -0.1320   -2.0890 hx        1 ACH      0.103033
     21 H91        -3.0340    0.4290    1.6270 hx        1 ACH      0.103033
     22 H92        -3.8060    0.9730    0.0550 hx        1 ACH      0.103033
     23 H93        -3.6540   -0.8150    0.4290 hx        1 ACH      0.103033
     24 H101       -0.2140    1.5220   -0.5370 hx        1 ACH      0.103033
     25 H102       -1.9010    2.2400   -0.6610 hx        1 ACH      0.103033
     26 H103       -1.1760    1.8820    0.9860 hx        1 ACH      0.103033
@<TRIPOS>BOND
     1    1    2 1   
     2    1    8 1   
     3    1    9 1   
     4    1   10 1   
     5    2    3 1   
     6    2   11 1   
     7    2   12 1   
     8    3    4 1   
     9    3   13 1   
    10    3   14 1   
    11    4    5 1   
    12    5    6 2   
    13    5    7 1   
    14    7   15 1   
    15    7   16 1   
    16    7   17 1   
    17    8   18 1   
    18    8   19 1   
    19    8   20 1   
    20    9   21 1   
    21    9   22 1   
    22    9   23 1   
    23   10   24 1   
    24   10   25 1   
    25   10   26 1   
@<TRIPOS>SUBSTRUCTURE
     1 ACH         1 TEMP              0 ****  ****    0 ROOT
