@<TRIPOS>MOLECULE
ACH
   26    25     1     0     0
SMALL
bcc


@<TRIPOS>ATOM
      1 N1         -1.4310   -0.0110   -0.9250 n4        1 ACH     -0.600800
      2 C2          0.0320   -0.0110   -0.9250 c3        1 ACH      0.100800
      3 C3          0.5490   -0.0110    0.5290 c3        1 ACH      0.123400
      4 O4          1.9760   -0.0060    0.5260 os        1 ACH     -0.457900
      5 C5          2.5550   -0.0020    1.8270 c         1 ACH      0.648100
      6 O7          1.8410   -0.0760    2.8110 o         1 ACH     -0.513000
      7 C6          4.0730    0.0660    1.9880 c3        1 ACH     -0.149100
      8 C8         -1.9140   -0.0150   -2.2910 c3        1 ACH      0.087767
      9 C9         -1.9140   -1.1930   -0.2400 c3        1 ACH      0.087767
     10 C10        -1.9140    1.1730   -0.2450 c3        1 ACH      0.087767
     11 H21         0.3580    0.7860   -1.3850 hx        1 ACH      0.112700
     12 H22         0.3580   -0.8080   -1.3850 hx        1 ACH      0.112700
     13 H31         0.2270   -0.8100    0.9880 h1        1 ACH      0.071700
     14 H32         0.2210    0.7840    0.9900 h1        1 ACH      0.071700
     15 H61         4.2980    0.1020    2.9370 hc        1 ACH      0.094033
     16 H62         4.4780   -0.7270    1.5870 hc        1 ACH      0.094033
     17 H63         4.4120    0.8650    1.5420 hc        1 ACH      0.094033
     18 H81        -1.5890   -0.8130   -2.7490 hx        1 ACH      0.104033
     19 H82        -2.8900   -0.0140   -2.2910 hx        1 ACH      0.104033
     20 H83        -1.5890    0.7810   -2.7530 hx        1 ACH      0.104033
     21 H91        -1.8360   -1.0640    0.7250 hx        1 ACH      0.104033
     22 H92        -2.8500   -1.3440   -0.4730 hx        1 ACH      0.104033
     23 H93        -1.3820   -1.9660   -0.5090 hx        1 ACH      0.104033
     24 H101       -2.8400    1.3420   -0.5040 hx        1 ACH      0.104033
     25 H102       -1.3620    1.9390   -0.4940 hx        1 ACH      0.104033
     26 H103       -1.8660    1.0370    0.7200 hx        1 ACH      0.104033
@<TRIPOS>BOND
     1    1    2 1   
     2    1    8 1   
     3    1    9 1   
     4    1   10 1   
     5    2    3 1   
     6    2   11 1   
     7    2   12 1   
     8    3    4 1   
     9    3   13 1   
    10    3   14 1   
    11    4    5 1   
    12    5    6 2   
    13    5    7 1   
    14    7   15 1   
    15    7   16 1   
    16    7   17 1   
    17    8   18 1   
    18    8   19 1   
    19    8   20 1   
    20    9   21 1   
    21    9   22 1   
    22    9   23 1   
    23   10   24 1   
    24   10   25 1   
    25   10   26 1   
@<TRIPOS>SUBSTRUCTURE
     1 ACH         1 TEMP              0 ****  ****    0 ROOT
