@<TRIPOS>MOLECULE
ACH
   26    25     1     0     0
SMALL
bcc


@<TRIPOS>ATOM
      1 N1          0.0460   -0.0740    0.0000 n4        1 ACH     -0.596800
      2 C2          1.4160    0.2440    0.5410 c3        1 ACH      0.076800
      3 C3          1.5210    0.4630    2.0500 c3        1 ACH      0.121400
      4 O4          1.1260   -0.6770    2.7990 os        1 ACH     -0.469900
      5 C5          2.0710   -1.6730    2.9990 c         1 ACH      0.638100
      6 O7          3.0680   -1.6240    2.2810 o         1 ACH     -0.520000
      7 C6          1.6800   -2.6450    4.0480 c3        1 ACH     -0.154100
      8 C8         -0.9870    0.8100    0.6140 c3        1 ACH      0.086433
      9 C9          0.0620    0.1440   -1.4800 c3        1 ACH      0.086433
     10 C10        -0.3040   -1.5010    0.2710 c3        1 ACH      0.086433
     11 H21         1.7680    1.1900    0.0360 hx        1 ACH      0.115200
     12 H22         2.1030   -0.6060    0.2510 hx        1 ACH      0.115200
     13 H31         0.8460    1.2830    2.4160 h1        1 ACH      0.100700
     14 H32         2.5960    0.7250    2.2640 h1        1 ACH      0.100700
     15 H61         0.5900   -2.5730    4.2820 hc        1 ACH      0.095367
     16 H62         1.9310   -3.6800    3.7070 hc        1 ACH      0.095367
     17 H63         2.2660   -2.4200    4.9770 hc        1 ACH      0.095367
     18 H81        -1.1010    0.5490    1.7000 hx        1 ACH      0.103033
     19 H82        -0.6680    1.8810    0.5100 hx        1 ACH      0.103033
     20 H83        -1.9670    0.6560    0.0880 hx        1 ACH      0.103033
     21 H91         0.2310    1.2320   -1.6960 hx        1 ACH      0.103033
     22 H92         0.8880   -0.4640   -1.9360 hx        1 ACH      0.103033
     23 H93        -0.9230   -0.1740   -1.9130 hx        1 ACH      0.103033
     24 H101       -1.3360   -1.7090   -0.1170 hx        1 ACH      0.103033
     25 H102        0.4350   -2.1700   -0.2450 hx        1 ACH      0.103033
     26 H103       -0.2710   -1.6850    1.3790 hx        1 ACH      0.103033
@<TRIPOS>BOND
     1    1    2 1   
     2    1    8 1   
     3    1    9 1   
     4    1   10 1   
     5    2    3 1   
     6    2   11 1   
     7    2   12 1   
     8    3    4 1   
     9    3   13 1   
    10    3   14 1   
    11    4    5 1   
    12    5    6 2   
    13    5    7 1   
    14    7   15 1   
    15    7   16 1   
    16    7   17 1   
    17    8   18 1   
    18    8   19 1   
    19    8   20 1   
    20    9   21 1   
    21    9   22 1   
    22    9   23 1   
    23   10   24 1   
    24   10   25 1   
    25   10   26 1   
@<TRIPOS>SUBSTRUCTURE
     1 ACH         1 TEMP              0 ****  ****    0 ROOT
