@<TRIPOS>MOLECULE
ACH
   26    25     1     0     0
SMALL
bcc


@<TRIPOS>ATOM
      1 N1          0.0220   -0.0290    0.0340 n4        1 ACH     -0.596800
      2 C2          1.4180    0.2380    0.5340 c3        1 ACH      0.076800
      3 C3          1.5810    0.4160    2.0440 c3        1 ACH      0.121400
      4 O4          1.1770   -0.7300    2.7790 os        1 ACH     -0.469900
      5 C5          2.0990   -1.7580    2.9220 c         1 ACH      0.638100
      6 O7          3.0710   -1.7200    2.1710 o         1 ACH     -0.520000
      7 C6          1.7150   -2.7440    3.9610 c3        1 ACH     -0.154100
      8 C8         -0.9640    0.8660    0.7060 c3        1 ACH      0.086433
      9 C9         -0.0060    0.2280   -1.4400 c3        1 ACH      0.086433
     10 C10        -0.3570   -1.4530    0.2800 c3        1 ACH      0.086433
     11 H21         2.0710   -0.6230    0.2000 hx        1 ACH      0.115200
     12 H22         1.7790    1.1870    0.0410 hx        1 ACH      0.115200
     13 H31         0.9430    1.2460    2.4520 h1        1 ACH      0.100700
     14 H32         2.6700    0.6410    2.2270 h1        1 ACH      0.100700
     15 H61         2.3360   -2.5550    4.8750 hc        1 ACH      0.095367
     16 H62         1.9270   -3.7770    3.5880 hc        1 ACH      0.095367
     17 H63         0.6350   -2.6480    4.2310 hc        1 ACH      0.095367
     18 H81        -1.0480    0.5790    1.7890 hx        1 ACH      0.102922
     19 H82        -1.9660    0.7510    0.2110 hx        1 ACH      0.102922
     20 H83        -0.6210    1.9300    0.6180 hx        1 ACH      0.102922
     21 H91        -1.0140   -0.0530   -1.8460 hx        1 ACH      0.102922
     22 H92         0.7860   -0.3890   -1.9400 hx        1 ACH      0.102922
     23 H93         0.1840    1.3170   -1.6340 hx        1 ACH      0.102922
     24 H101        0.3450   -2.1270   -0.2800 hx        1 ACH      0.102922
     25 H102       -1.4070   -1.6230   -0.0760 hx        1 ACH      0.102922
     26 H103       -0.2900   -1.6680    1.3810 hx        1 ACH      0.102922
@<TRIPOS>BOND
     1    1    2 1   
     2    1    8 1   
     3    1    9 1   
     4    1   10 1   
     5    2    3 1   
     6    2   11 1   
     7    2   12 1   
     8    3    4 1   
     9    3   13 1   
    10    3   14 1   
    11    4    5 1   
    12    5    6 2   
    13    5    7 1   
    14    7   15 1   
    15    7   16 1   
    16    7   17 1   
    17    8   18 1   
    18    8   19 1   
    19    8   20 1   
    20    9   21 1   
    21    9   22 1   
    22    9   23 1   
    23   10   24 1   
    24   10   25 1   
    25   10   26 1   
@<TRIPOS>SUBSTRUCTURE
     1 ACH         1 TEMP              0 ****  ****    0 ROOT
