@<TRIPOS>MOLECULE
ACH
   26    25     1     0     0
SMALL
bcc


@<TRIPOS>ATOM
      1 N1         -0.0090   -0.0250    0.0530 n4        1 ACH     -0.596800
      2 C2          1.4560    0.0580    0.3960 c3        1 ACH      0.076800
      3 C3          1.8020    0.3270    1.8610 c3        1 ACH      0.121400
      4 O4          1.3170   -0.6830    2.7330 os        1 ACH     -0.469900
      5 C5          2.0900   -1.8260    2.8850 c         1 ACH      0.638100
      6 O7          2.9730   -1.9950    2.0470 o         1 ACH     -0.520000
      7 C6          1.6790   -2.6580    4.0410 c3        1 ACH     -0.154100
      8 C8         -0.7740    1.0670    0.7210 c3        1 ACH      0.086433
      9 C9         -0.1530    0.1120   -1.4300 c3        1 ACH      0.086433
     10 C10        -0.5680   -1.3460    0.4710 c3        1 ACH      0.086433
     11 H21         1.8990    0.8970   -0.2160 hx        1 ACH      0.115200
     12 H22         1.9350   -0.9170    0.0850 hx        1 ACH      0.115200
     13 H31         1.3380    1.2740    2.2480 h1        1 ACH      0.100700
     14 H32         2.9250    0.3970    1.9200 h1        1 ACH      0.100700
     15 H61         1.6950   -3.7360    3.7460 hc        1 ACH      0.095367
     16 H62         2.4160   -2.5000    4.8710 hc        1 ACH      0.095367
     17 H63         0.6600   -2.3750    4.4030 hc        1 ACH      0.095367
     18 H81        -0.7870    0.8870    1.8310 hx        1 ACH      0.103033
     19 H82        -0.2860    2.0530    0.5000 hx        1 ACH      0.103033
     20 H83        -1.8280    1.0730    0.3330 hx        1 ACH      0.103033
     21 H91         0.1770    1.1370   -1.7460 hx        1 ACH      0.103033
     22 H92         0.4810   -0.6630   -1.9370 hx        1 ACH      0.103033
     23 H93        -1.2290   -0.0390   -1.7130 hx        1 ACH      0.103033
     24 H101       -1.6640   -1.3760    0.2290 hx        1 ACH      0.103033
     25 H102       -0.0370   -2.1660   -0.0810 hx        1 ACH      0.103033
     26 H103       -0.4200   -1.4760    1.5770 hx        1 ACH      0.103033
@<TRIPOS>BOND
     1    1    2 1   
     2    1    8 1   
     3    1    9 1   
     4    1   10 1   
     5    2    3 1   
     6    2   11 1   
     7    2   12 1   
     8    3    4 1   
     9    3   13 1   
    10    3   14 1   
    11    4    5 1   
    12    5    6 2   
    13    5    7 1   
    14    7   15 1   
    15    7   16 1   
    16    7   17 1   
    17    8   18 1   
    18    8   19 1   
    19    8   20 1   
    20    9   21 1   
    21    9   22 1   
    22    9   23 1   
    23   10   24 1   
    24   10   25 1   
    25   10   26 1   
@<TRIPOS>SUBSTRUCTURE
     1 ACH         1 TEMP              0 ****  ****    0 ROOT
