@<TRIPOS>MOLECULE
ACI
   26    26     1     0     0
SMALL
bcc


@<TRIPOS>ATOM
      1 C1          0.0050   -0.0110   -0.0040 c3        1 ACI      0.184700
      2 C2          1.5480   -0.0450    0.0620 c3        1 ACI      0.091100
      3 C3          2.0460    0.0780    1.5100 c3        1 ACI      0.081100
      4 C4          1.5770    1.4130    2.1250 c3        1 ACI      0.161300
      5 C5          0.1280    1.6830    1.8360 c2        1 ACI      0.001600
      6 C6         -0.4870    2.7440    2.6920 c3        1 ACI      0.152600
      7 C7         -0.5550    1.0650    0.8590 c2        1 ACI     -0.275200
      8 N1         -0.5960   -1.3430    0.3900 n4        1 ACI     -0.838600
      9 O2          1.9800   -1.2780   -0.4890 oh        1 ACI     -0.633800
     10 O3          3.4600    0.1230    1.5160 oh        1 ACI     -0.582800
     11 O4          1.7490    1.3630    3.5300 oh        1 ACI     -0.583800
     12 O6         -1.8730    2.8200    2.4020 oh        1 ACI     -0.611800
     13 H1         -0.3010    0.1530   -1.0830 hx        1 ACI      0.120700
     14 H2          1.9330    0.8250   -0.5430 h1        1 ACI      0.106700
     15 H3          1.6770   -0.7830    2.1320 h1        1 ACI      0.055700
     16 H4          2.1960    2.2520    1.6870 h1        1 ACI      0.092700
     17 H61        -0.3280    2.4770    3.7760 h1        1 ACI      0.075700
     18 H62         0.0130    3.7290    2.4770 h1        1 ACI      0.075700
     19 H7         -1.5950    1.3660    0.6370 ha        1 ACI      0.186000
     20 HN11       -0.1670   -2.0840   -0.1770 hn        1 ACI      0.462133
     21 HN12       -0.4100   -1.5270    1.3790 hn        1 ACI      0.462133
     22 HO2         2.8690   -1.1430   -0.8480 ho        1 ACI      0.457000
     23 HO3         3.7800   -0.7880    1.4690 ho        1 ACI      0.427000
     24 HO4         2.7040    1.3410    3.6920 ho        1 ACI      0.440000
     25 HO6        -2.2330    3.5260    2.9550 ho        1 ACI      0.432000
     26 H13        -1.6070   -1.3210    0.2370 hn        1 ACI      0.462133
@<TRIPOS>BOND
     1    1    2 1   
     2    1    7 1   
     3    1    8 1   
     4    1   13 1   
     5    2    3 1   
     6    2    9 1   
     7    2   14 1   
     8    3    4 1   
     9    3   10 1   
    10    3   15 1   
    11    4    5 1   
    12    4   11 1   
    13    4   16 1   
    14    5    6 1   
    15    5    7 2   
    16    6   12 1   
    17    6   17 1   
    18    6   18 1   
    19    7   19 1   
    20    8   20 1   
    21    8   21 1   
    22    8   26 1   
    23    9   22 1   
    24   10   23 1   
    25   11   24 1   
    26   12   25 1   
@<TRIPOS>SUBSTRUCTURE
     1 ACI         1 TEMP              0 ****  ****    0 ROOT
