@<TRIPOS>MOLECULE
ACI
   25    25     1     0     0
SMALL
bcc


@<TRIPOS>ATOM
      1 C1         -0.5190    1.7760   -0.0960 c3        1 ACI      0.197700
      2 C2         -1.4410    0.6420   -0.6250 c3        1 ACI      0.107100
      3 C3         -1.1250   -0.6780    0.0890 c3        1 ACI      0.114100
      4 C4          0.3060   -1.1220   -0.2650 c3        1 ACI      0.148300
      5 C5          1.2800    0.0090   -0.1330 c2        1 ACI     -0.179400
      6 C6          2.7170   -0.4050   -0.1080 c3        1 ACI      0.170600
      7 C7          0.9050    1.2930   -0.0780 c2        1 ACI     -0.104200
      8 N1         -0.8970    2.3550    1.1790 n3        1 ACI     -0.886800
      9 O2         -2.7840    1.0310   -0.3970 oh        1 ACI     -0.605800
     10 O3         -2.0670   -1.6310   -0.3770 oh        1 ACI     -0.612800
     11 O4          0.5810   -2.2090    0.6110 oh        1 ACI     -0.604800
     12 O6          3.5370    0.7150   -0.4060 oh        1 ACI     -0.592800
     13 H1         -0.5900    2.6160   -0.8550 h1        1 ACI      0.080700
     14 H2         -1.2740    0.5120   -1.7300 h1        1 ACI      0.053700
     15 H3         -1.2250   -0.5650    1.2040 h1        1 ACI      0.062700
     16 H4          0.3250   -1.4980   -1.3310 h1        1 ACI      0.055700
     17 H61         2.9690   -0.8090    0.9120 h1        1 ACI      0.028200
     18 H62         2.8980   -1.2110   -0.8730 h1        1 ACI      0.028200
     19 H7          1.6610    2.0950   -0.0110 ha        1 ACI      0.161000
     20 HN11       -1.8500    2.6640    1.1320 hn        1 ACI      0.356300
     21 HN12       -0.8150    1.6760    1.9120 hn        1 ACI      0.356300
     22 HO2        -3.3360    0.2730   -0.6360 ho        1 ACI      0.427000
     23 HO3        -1.8470   -2.4670    0.0540 ho        1 ACI      0.424000
     24 HO4         1.4620   -2.5370    0.3950 ho        1 ACI      0.406000
     25 HO6         4.4460    0.4350   -0.2460 ho        1 ACI      0.405000
@<TRIPOS>BOND
     1    1    2 1   
     2    1    7 1   
     3    1    8 1   
     4    1   13 1   
     5    2    3 1   
     6    2    9 1   
     7    2   14 1   
     8    3    4 1   
     9    3   10 1   
    10    3   15 1   
    11    4    5 1   
    12    4   11 1   
    13    4   16 1   
    14    5    6 1   
    15    5    7 2   
    16    6   12 1   
    17    6   17 1   
    18    6   18 1   
    19    7   19 1   
    20    8   20 1   
    21    8   21 1   
    22    9   22 1   
    23   10   23 1   
    24   11   24 1   
    25   12   25 1   
@<TRIPOS>SUBSTRUCTURE
     1 ACI         1 TEMP              0 ****  ****    0 ROOT
