@<TRIPOS>MOLECULE
ACI
   26    26     1     0     0
SMALL
bcc


@<TRIPOS>ATOM
      1 C1         -0.0390    0.0080   -0.0520 c3        1 ACI      0.179700
      2 C2          1.5040   -0.0830   -0.0410 c3        1 ACI      0.130100
      3 C3          2.0460   -0.0210    1.3940 c3        1 ACI      0.115100
      4 C4          1.6600    1.3230    2.0400 c3        1 ACI      0.122300
      5 C5          0.2020    1.6290    1.8420 c2        1 ACI     -0.045400
      6 C6         -0.3590    2.6650    2.7660 c3        1 ACI      0.150600
      7 C7         -0.5410    1.0550    0.8830 c2        1 ACI     -0.253200
      8 N1         -0.6720   -1.3240    0.2850 n4        1 ACI     -0.838600
      9 O2          1.8630   -1.3040   -0.6620 oh        1 ACI     -0.631800
     10 O3          3.4500   -0.1370    1.2740 oh        1 ACI     -0.594800
     11 O4          2.0010    1.1840    3.4090 oh        1 ACI     -0.585800
     12 O6         -1.7380    2.8340    2.4850 oh        1 ACI     -0.602800
     13 H1         -0.3680    0.2430   -1.1120 hx        1 ACI      0.124700
     14 H2          1.9070    0.7860   -0.6380 h1        1 ACI      0.103700
     15 H3          1.6490   -0.8700    2.0170 h1        1 ACI      0.055700
     16 H4          2.2660    2.1500    1.5650 h1        1 ACI      0.088700
     17 H61        -0.2260    2.3170    3.8300 h1        1 ACI      0.062700
     18 H62         0.1940    3.6340    2.6190 h1        1 ACI      0.062700
     19 H7         -1.5890    1.3730    0.7270 ha        1 ACI      0.183000
     20 HN11       -1.6850   -1.2700    0.1540 hn        1 ACI      0.463800
     21 HN12       -0.4700   -1.5670    1.2580 hn        1 ACI      0.463800
     22 HO2         2.8320   -1.3640   -0.6380 ho        1 ACI      0.472000
     23 HO3         3.8180   -0.0740    2.1670 ho        1 ACI      0.448000
     24 HO4         2.0860    2.0710    3.7830 ho        1 ACI      0.428000
     25 HO6        -2.0500    3.5570    3.0460 ho        1 ACI      0.433000
     26 H13        -0.2710   -2.0450   -0.3290 hn        1 ACI      0.463800
@<TRIPOS>BOND
     1    1    2 1   
     2    1    7 1   
     3    1    8 1   
     4    1   13 1   
     5    2    3 1   
     6    2    9 1   
     7    2   14 1   
     8    3    4 1   
     9    3   10 1   
    10    3   15 1   
    11    4    5 1   
    12    4   11 1   
    13    4   16 1   
    14    5    6 1   
    15    5    7 2   
    16    6   12 1   
    17    6   17 1   
    18    6   18 1   
    19    7   19 1   
    20    8   20 1   
    21    8   21 1   
    22    8   26 1   
    23    9   22 1   
    24   10   23 1   
    25   11   24 1   
    26   12   25 1   
@<TRIPOS>SUBSTRUCTURE
     1 ACI         1 TEMP              0 ****  ****    0 ROOT
