@<TRIPOS>MOLECULE
ACI
   26    26     1     0     0
SMALL
bcc


@<TRIPOS>ATOM
      1 C1         -0.0260    0.0020   -0.0520 c3        1 ACI      0.179700
      2 C2          1.5170   -0.0850   -0.0330 c3        1 ACI      0.130100
      3 C3          2.0520   -0.0190    1.4060 c3        1 ACI      0.115100
      4 C4          1.6580    1.3250    2.0480 c3        1 ACI      0.122300
      5 C5          0.2000    1.6260    1.8410 c2        1 ACI     -0.045400
      6 C6         -0.3690    2.6620    2.7600 c3        1 ACI      0.150600
      7 C7         -0.5350    1.0490    0.8790 c2        1 ACI     -0.253200
      8 N1         -0.6570   -1.3310    0.2830 nz        1 ACI     -0.838600
      9 O2          1.8830   -1.3050   -0.6500 oh        1 ACI     -0.631800
     10 O3          3.4560   -0.1320    1.2930 oh        1 ACI     -0.594800
     11 O4          1.9920    1.1870    3.4190 oh        1 ACI     -0.585800
     12 O6         -1.7460    2.8280    2.4700 oh        1 ACI     -0.602800
     13 H1         -0.3490    0.2350   -1.1150 hx        1 ACI      0.124700
     14 H2          1.9210    0.7840   -0.6280 h1        1 ACI      0.103700
     15 H3          1.6530   -0.8690    2.0270 h1        1 ACI      0.055700
     16 H4          2.2650    2.1520    1.5750 h1        1 ACI      0.088700
     17 H61        -0.2410    2.3150    3.8250 h1        1 ACI      0.062700
     18 H62         0.1840    3.6320    2.6150 h1        1 ACI      0.062700
     19 H7         -1.5830    1.3640    0.7150 ha        1 ACI      0.183000
     20 HN11       -1.6690   -1.2800    0.1460 hn        1 ACI      0.463800
     21 HN12       -0.2500   -2.0510   -0.3280 hn        1 ACI      0.463800
     22 HO2         2.8520   -1.3630   -0.6200 ho        1 ACI      0.472000
     23 HO3         3.8200   -0.0670    2.1890 ho        1 ACI      0.448000
     24 HO4         2.0720    2.0750    3.7920 ho        1 ACI      0.428000
     25 HO6        -2.0620    3.5510    3.0280 ho        1 ACI      0.433000
     26 H13        -0.4600   -1.5720    1.2580 hn        1 ACI      0.463800
@<TRIPOS>BOND
     1    1    2 1   
     2    1    7 1   
     3    1    8 1   
     4    1   13 1   
     5    2    3 1   
     6    2    9 1   
     7    2   14 1   
     8    3    4 1   
     9    3   10 1   
    10    3   15 1   
    11    4    5 1   
    12    4   11 1   
    13    4   16 1   
    14    5    6 1   
    15    5    7 2   
    16    6   12 1   
    17    6   17 1   
    18    6   18 1   
    19    7   19 1   
    20    8   20 1   
    21    8   21 1   
    22    8   26 1   
    23    9   22 1   
    24   10   23 1   
    25   11   24 1   
    26   12   25 1   
@<TRIPOS>SUBSTRUCTURE
     1 ACI         1 TEMP              0 ****  ****    0 ROOT
