@<TRIPOS>MOLECULE
ACI
   25    25     1     0     0
SMALL
bcc


@<TRIPOS>ATOM
      1 C1         -0.8940   -0.5760   -1.4460 c3        1 ACI      0.213700
      2 C2          0.7630   -0.5760   -1.4460 c3        1 ACI      0.116100
      3 C3          1.3230   -0.5760   -0.2800 c3        1 ACI      0.071100
      4 C4          0.9060    0.6690    0.7100 c3        1 ACI      0.189300
      5 C5         -0.5490    0.8310    0.8170 c2        1 ACI     -0.141400
      6 C6         -1.1340    1.7480    1.8700 c3        1 ACI      0.164600
      7 C7         -1.4450    0.4680   -0.5960 c2        1 ACI     -0.154200
      8 N1         -1.4310   -1.8920   -1.0990 n3        1 ACI     -0.907800
      9 O2          1.2280   -1.7960   -2.1860 oh        1 ACI     -0.602800
     10 O3          2.8150   -0.5350   -0.4780 oh        1 ACI     -0.614800
     11 O4          1.5250    0.5440    2.0130 oh        1 ACI     -0.596800
     12 O6         -1.7040    0.9740    2.9040 oh        1 ACI     -0.599800
     13 H1         -1.2280   -0.4770   -2.3580 h1        1 ACI      0.030700
     14 H2          1.0690    0.2130   -1.9320 h1        1 ACI      0.050700
     15 H3          1.0950   -1.4130    0.1690 h1        1 ACI      0.087700
     16 H4          1.3120    1.4980    0.3940 h1        1 ACI      0.054700
     17 H61        -1.8220    2.3100    1.4670 h1        1 ACI      0.067700
     18 H62        -0.4280    2.3130    2.2380 h1        1 ACI      0.067700
     19 H7         -2.3970    0.6790   -0.6380 ha        1 ACI      0.141000
     20 HN11       -2.2530   -1.7930   -0.7150 hn        1 ACI      0.360800
     21 HN12       -1.5080   -2.3980   -1.8540 hn        1 ACI      0.360800
     22 HO2         1.5210   -1.5610   -2.9900 ho        1 ACI      0.410000
     23 HO3         3.1910   -1.2080   -0.0380 ho        1 ACI      0.411000
     24 HO4         2.2450    1.0620    2.0490 ho        1 ACI      0.417000
     25 HO6        -2.2010    1.4950    3.4240 ho        1 ACI      0.403000
@<TRIPOS>BOND
     1    1    2 1   
     2    1    7 1   
     3    1    8 1   
     4    1   13 1   
     5    2    3 1   
     6    2    9 1   
     7    2   14 1   
     8    3    4 1   
     9    3   10 1   
    10    3   15 1   
    11    4    5 1   
    12    4   11 1   
    13    4   16 1   
    14    5    6 1   
    15    5    7 2   
    16    6   12 1   
    17    6   17 1   
    18    6   18 1   
    19    7   19 1   
    20    8   20 1   
    21    8   21 1   
    22    9   22 1   
    23   10   23 1   
    24   11   24 1   
    25   12   25 1   
@<TRIPOS>SUBSTRUCTURE
     1 ACI         1 TEMP              0 ****  ****    0 ROOT
