@<TRIPOS>MOLECULE
ACJ
   30    31     1     0     0
SMALL
bcc


@<TRIPOS>ATOM
      1 O3         -0.2890   -0.3540   -0.1780 o         1 ACJ     -0.791800
      2 C11         0.8240    0.2260   -0.1800 c         1 ACJ      0.916200
      3 O2          1.2230    1.0920    0.6410 o         1 ACJ     -0.791800
      4 C9          2.5660    0.9490   -1.8390 ca        1 ACJ     -0.123000
      5 C14         1.8700   -1.3510   -1.9700 ca        1 ACJ     -0.131200
      6 C8          3.3720    0.7460   -2.9550 ca        1 ACJ      0.066100
      7 N1          1.1100   -2.5340   -1.4670 no        1 ACJ      0.335200
      8 C13         2.6820   -1.5490   -3.1040 ca        1 ACJ     -0.102000
      9 O5          0.3850   -3.1120   -2.2370 o         1 ACJ     -0.213500
     10 C12         3.4340   -0.4970   -3.6060 ca        1 ACJ     -0.155000
     11 O1          4.2590    1.7360   -3.4060 os        1 ACJ     -0.235200
     12 C7          3.7030    2.8400   -4.0160 ca        1 ACJ      0.180100
     13 O4          1.3040   -2.9350   -0.3560 o         1 ACJ     -0.213500
     14 C6          2.3200    3.0380   -4.1600 ca        1 ACJ     -0.188000
     15 C10         1.7790   -0.1020   -1.3420 ca        1 ACJ     -0.063600
     16 C4          4.6090    3.8020   -4.5190 ca        1 ACJ     -0.028600
     17 C5          1.8430    4.1780   -4.7950 ca        1 ACJ     -0.043000
     18 C2          2.7390    5.1270   -5.2930 ca        1 ACJ     -0.211300
     19 CL1         6.2920    3.6190   -4.3750 cl        1 ACJ     -0.072400
     20 C3          4.1160    4.9430   -5.1540 ca        1 ACJ     -0.057000
     21 C1          2.2200    6.3790   -5.9780 c3        1 ACJ      0.694200
     22 F1          2.0560    7.4610   -5.1460 f         1 ACJ     -0.242967
     23 F2          3.0270    6.8620   -6.9820 f         1 ACJ     -0.242967
     24 F3          0.9930    6.2400   -6.5820 f         1 ACJ     -0.242967
     25 H9          2.5300    1.9180   -1.3140 ha        1 ACJ      0.181000
     26 H13         2.7170   -2.5320   -3.6010 ha        1 ACJ      0.144000
     27 H12         4.0780   -0.6290   -4.4860 ha        1 ACJ      0.141000
     28 H6          1.6140    2.2920   -3.7590 ha        1 ACJ      0.179000
     29 H5          0.7570    4.3330   -4.9060 ha        1 ACJ      0.156000
     30 H3          4.8120    5.6990   -5.5520 ha        1 ACJ      0.156000
@<TRIPOS>BOND
     1    1    2 1   
     2    2    3 1   
     3    2   15 1   
     4    4    6 ar  
     5    4   15 ar  
     6    4   25 1   
     7    5    7 1   
     8    5    8 ar  
     9    5   15 ar  
    10    6   10 ar  
    11    6   11 1   
    12    7    9 1   
    13    7   13 1   
    14    8   10 ar  
    15    8   26 1   
    16   10   27 1   
    17   11   12 1   
    18   12   14 ar  
    19   12   16 ar  
    20   14   17 ar  
    21   14   28 1   
    22   16   19 1   
    23   16   20 ar  
    24   17   18 ar  
    25   17   29 1   
    26   18   20 ar  
    27   18   21 1   
    28   20   30 1   
    29   21   22 1   
    30   21   23 1   
    31   21   24 1   
@<TRIPOS>SUBSTRUCTURE
     1 ACJ         1 TEMP              0 ****  ****    0 ROOT
