@<TRIPOS>MOLECULE
ACJ
   30    25     1     0     0
SMALL
bcc


@<TRIPOS>ATOM
      1 O3         -2.0900   -1.8610    3.7660 o         1 ACJ     -0.538000
      2 C11        -0.8580   -1.9490    3.7390 c1        1 ACJ      0.367000
      3 O2         -0.2240   -1.9310    4.7770 os        1 ACJ     -0.516000
      4 C9          0.1750   -0.8360    1.9300 c1        1 ACJ     -0.125000
      5 C14         0.3150   -3.2230    1.7260 c1        1 ACJ     -0.088000
      6 C8          0.9330   -0.6970    0.7760 c1        1 ACJ      0.023000
      7 N1          0.0390   -4.4790    2.2250 n2        1 ACJ      0.480400
      8 C13         1.0680   -3.0900    0.5790 c2        1 ACJ     -0.101000
      9 O5          0.4920   -5.5910    1.5640 o         1 ACJ     -0.309200
     10 C12         1.3810   -1.8310    0.0990 c1        1 ACJ     -0.155000
     11 O1          1.3060    0.5650    0.3410 os        1 ACJ     -0.146000
     12 C7          0.3820    1.0130   -0.6510 c2        1 ACJ      0.133000
     13 O4         -0.6620   -4.6000    3.2000 o         1 ACJ     -0.309200
     14 C6         -0.7870    0.8120   -1.3650 c2        1 ACJ     -0.186000
     15 C10        -0.1330   -2.0960    2.4030 c1        1 ACJ     -0.042000
     16 C4          1.0860    2.1940   -0.7990 c1        1 ACJ     -0.107000
     17 C5         -1.2540    1.7990   -2.2340 c1        1 ACJ     -0.043000
     18 C2         -0.5500    2.9780   -2.3820 c1        1 ACJ     -0.203000
     19 CL1         2.5230    2.4460    0.0860 cl        1 ACJ      0.005000
     20 C3          0.6170    3.1840   -1.6710 c2        1 ACJ     -0.058000
     21 C1         -1.0680    4.0540   -3.3310 c3        1 ACJ      0.473000
     22 F1         -1.9530    4.8240   -2.6950 f         1 ACJ     -0.171667
     23 F2         -0.0270    4.8180   -3.7620 f         1 ACJ     -0.171667
     24 F3         -1.6710    3.4590   -4.3990 f         1 ACJ     -0.171667
     25 H9         -0.1050   -0.0180    2.4560 ha        1 ACJ      0.179000
     26 H13         1.3870   -3.8950    0.1020 ha        1 ACJ      0.144000
     27 H12         1.9000   -1.7400   -0.6920 ha        1 ACJ      0.142000
     28 H6         -1.2540    0.0170   -1.2760 ha        1 ACJ      0.184000
     29 H5         -2.0770    1.6580   -2.7380 ha        1 ACJ      0.157000
     30 H3          1.1100    4.0160   -1.7750 ha        1 ACJ      0.156000
@<TRIPOS>BOND
     1    1    2 1   
     2    2   15 1   
     3    4    6 1   
     4    4   25 1   
     5    5    8 1   
     6    5   15 1   
     7    6   11 1   
     8    7    9 2   
     9    7   13 2   
    10    8   10 1   
    11    8   26 1   
    12   10   27 1   
    13   11   12 1   
    14   12   14 1   
    15   12   16 1   
    16   14   17 1   
    17   14   28 1   
    18   16   20 1   
    19   17   29 1   
    20   18   20 1   
    21   18   21 1   
    22   20   30 1   
    23   21   22 1   
    24   21   23 1   
    25   21   24 1   
@<TRIPOS>SUBSTRUCTURE
     1 ACJ         1 TEMP              0 ****  ****    0 ROOT
