@<TRIPOS>MOLECULE
ACJ
   30    31     1     0     0
SMALL
bcc


@<TRIPOS>ATOM
      1 O3          4.4660    1.4930   -1.6170 o         1 ACJ     -0.791800
      2 C11         3.7280    0.4820   -1.7090 c         1 ACJ      0.916200
      3 O2          3.3880   -0.1080   -2.7660 o         1 ACJ     -0.791800
      4 C9          1.8120   -0.5670   -0.4680 ca        1 ACJ     -0.123000
      5 C14         3.7490   -0.0160    0.8480 ca        1 ACJ     -0.131200
      6 C8          1.1640   -0.9740    0.6950 ca        1 ACJ      0.066100
      7 N1          5.1580    0.4590    0.9950 no        1 ACJ      0.335200
      8 C13         3.0870   -0.4220    2.0240 ca        1 ACJ     -0.102000
      9 O5          5.3760    1.3570    1.7680 o         1 ACJ     -0.213500
     10 C12         1.7850   -0.8980    1.9520 ca        1 ACJ     -0.155000
     11 O1         -0.0920   -1.5970    0.6510 os        1 ACJ     -0.235200
     12 C7         -1.1720   -0.8030    0.3320 ca        1 ACJ      0.180100
     13 O4          6.0400   -0.1150    0.4250 o         1 ACJ     -0.213500
     14 C6         -1.0700    0.5600    0.0080 ca        1 ACJ     -0.188000
     15 C10         3.1180   -0.0570   -0.4020 ca        1 ACJ     -0.063600
     16 C4         -2.4400   -1.4300    0.3480 ca        1 ACJ     -0.028600
     17 C5         -2.2120    1.2910   -0.2970 ca        1 ACJ     -0.043000
     18 C2         -3.4630    0.6700   -0.2780 ca        1 ACJ     -0.211300
     19 CL1        -2.6280   -3.0740    0.7310 cl        1 ACJ     -0.072400
     20 C3         -3.5780   -0.6840    0.0400 ca        1 ACJ     -0.057000
     21 C1         -4.7120    1.4640   -0.6200 c3        1 ACJ      0.694200
     22 F1         -5.0770    1.4140   -1.9450 f         1 ACJ     -0.242967
     23 F2         -5.8480    1.0640    0.0440 f         1 ACJ     -0.242967
     24 F3         -4.6320    2.8100   -0.3530 f         1 ACJ     -0.242967
     25 H9          1.3340   -0.6440   -1.4600 ha        1 ACJ      0.181000
     26 H13         3.5910   -0.3540    3.0010 ha        1 ACJ      0.144000
     27 H12         1.2500   -1.2240    2.8540 ha        1 ACJ      0.141000
     28 H6         -0.0800    1.0460   -0.0140 ha        1 ACJ      0.179000
     29 H5         -2.1300    2.3600   -0.5510 ha        1 ACJ      0.156000
     30 H3         -4.5720   -1.1610    0.0520 ha        1 ACJ      0.156000
@<TRIPOS>BOND
     1    1    2 1   
     2    2    3 1   
     3    2   15 1   
     4    4    6 ar  
     5    4   15 ar  
     6    4   25 1   
     7    5    7 1   
     8    5    8 ar  
     9    5   15 ar  
    10    6   10 ar  
    11    6   11 1   
    12    7    9 1   
    13    7   13 1   
    14    8   10 ar  
    15    8   26 1   
    16   10   27 1   
    17   11   12 1   
    18   12   14 ar  
    19   12   16 ar  
    20   14   17 ar  
    21   14   28 1   
    22   16   19 1   
    23   16   20 ar  
    24   17   18 ar  
    25   17   29 1   
    26   18   20 ar  
    27   18   21 1   
    28   20   30 1   
    29   21   22 1   
    30   21   23 1   
    31   21   24 1   
@<TRIPOS>SUBSTRUCTURE
     1 ACJ         1 TEMP              0 ****  ****    0 ROOT
