@<TRIPOS>MOLECULE
ACJ
   30    31     1     0     0
SMALL
bcc


@<TRIPOS>ATOM
      1 O3         -0.2670   -0.3550   -0.1610 o         1 ACJ     -0.791800
      2 C11         0.8480    0.2220   -0.1710 c         1 ACJ      0.916200
      3 O2          1.2560    1.0860    0.6470 o         1 ACJ     -0.791800
      4 C9          2.5770    0.9450   -1.8450 ca        1 ACJ     -0.123000
      5 C14         1.8750   -1.3530   -1.9740 ca        1 ACJ     -0.131200
      6 C8          3.3740    0.7410   -2.9680 ca        1 ACJ      0.066100
      7 N1          1.1170   -2.5360   -1.4660 no        1 ACJ      0.335200
      8 C13         2.6770   -1.5520   -3.1150 ca        1 ACJ     -0.102000
      9 O5          0.3850   -3.1110   -2.2310 o         1 ACJ     -0.213500
     10 C12         3.4270   -0.5000   -3.6220 ca        1 ACJ     -0.155000
     11 O1          4.2580    1.7310   -3.4240 os        1 ACJ     -0.235200
     12 C7          3.7000    2.8380   -4.0260 ca        1 ACJ      0.180100
     13 O4          1.3190   -2.9400   -0.3570 o         1 ACJ     -0.213500
     14 C6          2.3160    3.0400   -4.1560 ca        1 ACJ     -0.188000
     15 C10         1.7920   -0.1060   -1.3420 ca        1 ACJ     -0.063600
     16 C4          4.6040    3.8000   -4.5320 ca        1 ACJ     -0.028600
     17 C5          1.8360    4.1840   -4.7820 ca        1 ACJ     -0.043000
     18 C2          2.7310    5.1320   -5.2850 ca        1 ACJ     -0.211300
     19 CL1         6.2870    3.6120   -4.4050 cl        1 ACJ     -0.072400
     20 C3          4.1080    4.9440   -5.1590 ca        1 ACJ     -0.057000
     21 C1          2.2080    6.3880   -5.9610 c3        1 ACJ      0.694200
     22 F1          2.0530    7.4670   -5.1230 f         1 ACJ     -0.242967
     23 F2          3.0080    6.8730   -6.9700 f         1 ACJ     -0.242967
     24 F3          0.9760    6.2540   -6.5560 f         1 ACJ     -0.242967
     25 H9          2.5480    1.9130   -1.3170 ha        1 ACJ      0.181000
     26 H13         2.7050   -2.5330   -3.6140 ha        1 ACJ      0.144000
     27 H12         4.0630   -0.6320   -4.5070 ha        1 ACJ      0.141000
     28 H6          1.6120    2.2940   -3.7510 ha        1 ACJ      0.179000
     29 H5          0.7500    4.3420   -4.8830 ha        1 ACJ      0.156000
     30 H3          4.8020    5.7000   -5.5610 ha        1 ACJ      0.156000
@<TRIPOS>BOND
     1    1    2 1   
     2    2    3 1   
     3    2   15 1   
     4    4    6 ar  
     5    4   15 ar  
     6    4   25 1   
     7    5    7 1   
     8    5    8 ar  
     9    5   15 ar  
    10    6   10 ar  
    11    6   11 1   
    12    7    9 1   
    13    7   13 1   
    14    8   10 ar  
    15    8   26 1   
    16   10   27 1   
    17   11   12 1   
    18   12   14 ar  
    19   12   16 ar  
    20   14   17 ar  
    21   14   28 1   
    22   16   19 1   
    23   16   20 ar  
    24   17   18 ar  
    25   17   29 1   
    26   18   20 ar  
    27   18   21 1   
    28   20   30 1   
    29   21   22 1   
    30   21   23 1   
    31   21   24 1   
@<TRIPOS>SUBSTRUCTURE
     1 ACJ         1 TEMP              0 ****  ****    0 ROOT
