@<TRIPOS>MOLECULE
ACJ
   30    31     1     0     0
SMALL
bcc


@<TRIPOS>ATOM
      1 O3         -0.2930   -0.3730   -0.1950 o         1 ACJ     -0.791800
      2 C11         0.8150    0.2170   -0.1900 c         1 ACJ      0.916200
      3 O2          1.2010    1.0880    0.6320 o         1 ACJ     -0.791800
      4 C9          2.5630    0.9520   -1.8390 ca        1 ACJ     -0.123000
      5 C14         1.8880   -1.3540   -1.9700 ca        1 ACJ     -0.131200
      6 C8          3.3790    0.7530   -2.9480 ca        1 ACJ      0.066100
      7 N1          1.1340   -2.5420   -1.4700 no        1 ACJ      0.335200
      8 C13         2.7100   -1.5480   -3.0980 ca        1 ACJ     -0.102000
      9 O5          0.4210   -3.1290   -2.2440 o         1 ACJ     -0.213500
     10 C12         3.4570   -0.4900   -3.5960 ca        1 ACJ     -0.155000
     11 O1          4.2600    1.7510   -3.3940 os        1 ACJ     -0.235200
     12 C7          3.6990    2.8490   -4.0100 ca        1 ACJ      0.180100
     13 O4          1.3240   -2.9400   -0.3560 o         1 ACJ     -0.213500
     14 C6          2.3160    3.0350   -4.1640 ca        1 ACJ     -0.188000
     15 C10         1.7820   -0.1050   -1.3450 ca        1 ACJ     -0.063600
     16 C4          4.6010    3.8180   -4.5070 ca        1 ACJ     -0.028600
     17 C5          1.8330    4.1710   -4.8030 ca        1 ACJ     -0.043000
     18 C2          2.7250    5.1260   -5.2960 ca        1 ACJ     -0.211300
     19 Cl1         6.2840    3.6500   -4.3520 cl        1 ACJ     -0.072400
     20 C3          4.1020    4.9540   -5.1470 ca        1 ACJ     -0.057000
     21 C1          2.2000    6.3730   -5.9860 c3        1 ACJ      0.694200
     22 F1          2.0190    7.4540   -5.1550 f         1 ACJ     -0.242967
     23 F2          3.0100    6.8630   -6.9840 f         1 ACJ     -0.242967
     24 F3          0.9790    6.2230   -6.5990 f         1 ACJ     -0.242967
     25 H9          2.5150    1.9220   -1.3150 ha        1 ACJ      0.181000
     26 H13         2.7570   -2.5310   -3.5920 ha        1 ACJ      0.144000
     27 H12         4.1080   -0.6180   -4.4710 ha        1 ACJ      0.141000
     28 H6          1.6130    2.2840   -3.7660 ha        1 ACJ      0.179000
     29 H5          0.7470    4.3160   -4.9220 ha        1 ACJ      0.156000
     30 H3          4.7950    5.7160   -5.5410 ha        1 ACJ      0.156000
@<TRIPOS>BOND
     1    1    2 1   
     2    2    3 1   
     3    2   15 1   
     4    4    6 ar  
     5    4   15 ar  
     6    4   25 1   
     7    5    7 1   
     8    5    8 ar  
     9    5   15 ar  
    10    6   10 ar  
    11    6   11 1   
    12    7    9 1   
    13    7   13 1   
    14    8   10 ar  
    15    8   26 1   
    16   10   27 1   
    17   11   12 1   
    18   12   14 ar  
    19   12   16 ar  
    20   14   17 ar  
    21   14   28 1   
    22   16   19 1   
    23   16   20 ar  
    24   17   18 ar  
    25   17   29 1   
    26   18   20 ar  
    27   18   21 1   
    28   20   30 1   
    29   21   22 1   
    30   21   23 1   
    31   21   24 1   
@<TRIPOS>SUBSTRUCTURE
     1 ACJ         1 TEMP              0 ****  ****    0 ROOT
