@<TRIPOS>MOLECULE
ACK
   34    32     1     0     0
SMALL
bcc


@<TRIPOS>ATOM
      1 O3P        -3.4930   -1.6270   -2.3460 o         1 ACK     -0.801600
      2 P          -2.0120   -1.6100   -2.3350 p3        1 ACK      1.890800
      3 O1P        -1.7810   -2.9580   -3.1270 o         1 ACK     -0.785000
      4 O2P        -1.4300   -1.5720   -1.0500 os        1 ACK     -0.534900
      5 O5'        -1.3190   -0.2510   -3.0420 os        1 ACK     -0.539900
      6 C5'        -1.2350    0.6320   -2.1440 c3        1 ACK      0.121100
      7 C4'         0.0830    1.4610   -2.2920 c3        1 ACK      0.067100
      8 O4'         0.6630    1.4000   -1.1030 os        1 ACK     -0.414600
      9 C3'        -0.2370    2.8930   -2.6470 c3        1 ACK      0.122400
     10 O3'         0.9530    3.5680   -2.9920 oh        1 ACK     -0.584800
     11 C1'         0.1590    0.0200   -0.4270 c3        1 ACK      0.239800
     12 N9          0.2560    0.1020    0.9630 n3        1 ACK     -0.133400
     13 C8         -0.0810    1.1450    1.7530 c1        1 ACK      0.158400
     14 N7          0.3330    0.8690    3.0110 ne        1 ACK     -0.372400
     15 C5          0.9300   -0.3520    2.9980 cg        1 ACK     -0.198000
     16 C6          1.5270   -1.1050    3.9970 c1        1 ACK      0.629600
     17 N6          1.6070   -0.8400    5.3890 n3        1 ACK     -0.821400
     18 N1          2.0570   -2.3040    3.7080 n1        1 ACK     -0.592800
     19 C2          2.0090   -2.7830    2.4300 c1        1 ACK      0.415300
     20 N3          1.4220   -2.0430    1.4460 n1        1 ACK     -0.534800
     21 C4          0.8830   -0.8260    1.7360 c1        1 ACK      0.035700
     22 C2'        -1.1050   -0.1270   -0.7870 c3        1 ACK      0.112100
     23 HO1        -2.1790   -2.9090   -3.9190 ho        1 ACK      0.292000
     24 H5'        -2.0200    1.2140   -2.1460 h1        1 ACK      0.100700
     25 H4'         0.6600    1.0620   -2.9720 h1        1 ACK      0.117700
     26 H3'1       -0.8540    2.9110   -3.4070 h1        1 ACK      0.051200
     27 H3'2       -0.6520    3.3360   -1.8780 h1        1 ACK      0.051200
     28 H3'         0.7550    4.3770   -3.3050 ho        1 ACK      0.419000
     29 H1'         0.6920   -0.7310   -0.7590 h2        1 ACK      0.147700
     30 H8         -0.5370    1.9590    1.4650 DU        1 ACK      0.195000
     31 H6N1        1.6300    0.0230    5.6890 hn        1 ACK      0.451800
     32 H6N2        1.6280   -1.5320    5.9860 hn        1 ACK      0.451800
     33 H2          2.3950   -3.6540    2.2210 ha        1 ACK      0.135500
     34 H2'        -1.7070    0.2520   -0.1160 h1        1 ACK      0.106700
@<TRIPOS>BOND
     1    1    2 1   
     2    2    4 1   
     3    2    5 1   
     4    3   23 1   
     5    4   22 1   
     6    5    6 1   
     7    6    7 1   
     8    6   22 1   
     9    6   24 1   
    10    7    8 1   
    11    7    9 1   
    12    7   25 1   
    13    8   11 1   
    14    9   10 1   
    15    9   26 1   
    16    9   27 1   
    17   10   28 1   
    18   11   12 1   
    19   11   22 1   
    20   11   29 1   
    21   12   13 2   
    22   12   21 1   
    23   13   14 2   
    24   14   15 1   
    25   15   21 3   
    26   16   17 1   
    27   16   18 3   
    28   17   31 1   
    29   17   32 1   
    30   19   20 3   
    31   19   33 1   
    32   22   34 1   
@<TRIPOS>SUBSTRUCTURE
     1 ACK         1 TEMP              0 ****  ****    0 ROOT
