@<TRIPOS>MOLECULE
ACK
   35    38     1     0     0
SMALL
bcc


@<TRIPOS>ATOM
      1 O3P         0.5050   -0.8470   -1.2370 o         1 ACK     -0.745300
      2 P           1.5420   -0.0620   -0.6120 p5        1 ACK      1.605500
      3 O1P         2.9930   -0.2960   -1.1960 oh        1 ACK     -0.758400
      4 O2P         1.7850   -0.2130    0.9950 os        1 ACK     -0.520200
      5 O5'         1.4160    1.5580   -0.5750 os        1 ACK     -0.524200
      6 C5'         1.5860    2.1450    0.6880 c3        1 ACK      0.131100
      7 C4'         2.8670    2.9950    0.7470 c3        1 ACK      0.066100
      8 O4'         3.8360    2.2870    1.5450 os        1 ACK     -0.394600
      9 C3'         2.6130    4.3800    1.3450 c3        1 ACK      0.112400
     10 O3'         3.7610    4.8740    2.0010 oh        1 ACK     -0.602800
     11 C1'         3.2400    1.2290    2.2870 c3        1 ACK      0.235800
     12 N9          3.2470    1.5650    3.7060 na        1 ACK     -0.278000
     13 C8          3.7050    2.7580    4.3100 cc        1 ACK      0.521700
     14 N7          3.7290    2.7150    5.6580 nd        1 ACK     -0.595100
     15 C5          3.2840    1.4330    5.9850 ca        1 ACK     -0.130200
     16 C6          3.0830    0.7400    7.1910 ca        1 ACK      0.511200
     17 N6          3.3780    1.4360    8.4570 n4        1 ACK     -0.814300
     18 N1          2.6350   -0.5410    7.2200 nb        1 ACK     -0.677000
     19 C2          2.3880   -1.1300    6.0160 ca        1 ACK      0.668900
     20 N3          2.5280   -0.6090    4.7680 nb        1 ACK     -0.611000
     21 C4          2.9750    0.6690    4.7510 ca        1 ACK      0.450800
     22 C2'         1.8060    0.9900    1.7070 c3        1 ACK      0.121100
     23 HO1         3.0820   -0.9120   -1.9240 ho        1 ACK      0.503000
     24 H5'         0.6720    2.7630    0.9090 h1        1 ACK      0.110700
     25 H4'         3.3490    3.0810   -0.2680 h1        1 ACK      0.121700
     26 H3'1        1.8270    4.3480    2.1470 h1        1 ACK      0.067200
     27 H3'2        2.2870    5.0780    0.5290 h1        1 ACK      0.067200
     28 H3'         4.4780    4.9120    1.3540 ho        1 ACK      0.425000
     29 H1'         3.8980    0.3180    2.1380 h2        1 ACK      0.139700
     30 H8          4.0050    3.6300    3.6880 h5        1 ACK      0.144800
     31 H6N1        2.8270    2.3040    8.4870 hn        1 ACK      0.477800
     32 H6N2        4.3780    1.6720    8.4730 hn        1 ACK      0.477800
     33 H2          2.0220   -2.1840    6.0660 h5        1 ACK      0.102100
     34 H2'         1.0200    0.9430    2.5090 h1        1 ACK      0.109700
     35 H63         3.1470    0.8480    9.2680 hn        1 ACK      0.477800
@<TRIPOS>BOND
     1    1    2 2   
     2    2    3 1   
     3    2    4 1   
     4    2    5 1   
     5    3   23 1   
     6    4   22 1   
     7    5    6 1   
     8    6    7 1   
     9    6   22 1   
    10    6   24 1   
    11    7    8 1   
    12    7    9 1   
    13    7   25 1   
    14    8   11 1   
    15    9   10 1   
    16    9   26 1   
    17    9   27 1   
    18   10   28 1   
    19   11   12 1   
    20   11   22 1   
    21   11   29 1   
    22   12   13 1   
    23   12   21 1   
    24   13   14 2   
    25   13   30 1   
    26   14   15 1   
    27   15   16 ar  
    28   15   21 ar  
    29   16   17 1   
    30   16   18 ar  
    31   17   31 1   
    32   17   32 1   
    33   17   35 1   
    34   18   19 ar  
    35   19   20 ar  
    36   19   33 1   
    37   20   21 ar  
    38   22   34 1   
@<TRIPOS>SUBSTRUCTURE
     1 ACK         1 TEMP              0 ****  ****    0 ROOT
