@<TRIPOS>MOLECULE
ACK
   34    37     1     0     0
SMALL
bcc


@<TRIPOS>ATOM
      1 O3P        -4.6220    2.3210   -1.0890 o         1 ACK     -0.768300
      2 P          -3.6440    1.5900   -0.3120 p5        1 ACK      1.599500
      3 O1P        -3.6640    2.0090    1.2170 oh        1 ACK     -0.752400
      4 O2P        -2.0760    1.6830   -0.7250 os        1 ACK     -0.525200
      5 O5'        -3.7000   -0.0280   -0.2780 os        1 ACK     -0.532200
      6 C5'        -2.4720   -0.6650   -0.5360 c3        1 ACK      0.113100
      7 C4'        -1.9350   -1.3810    0.7180 c3        1 ACK      0.073100
      8 O4'        -0.8300   -0.6230    1.2200 os        1 ACK     -0.400600
      9 C3'        -1.4810   -2.8140    0.4260 c3        1 ACK      0.110400
     10 O3'        -2.4380   -3.5180   -0.3340 oh        1 ACK     -0.594800
     11 C1'        -0.3240    0.2980    0.2360 c3        1 ACK      0.237800
     12 N9          0.9410   -0.1330   -0.2940 na        1 ACK     -0.289000
     13 C8          1.1970   -1.1500   -1.2560 cc        1 ACK      0.393700
     14 N7          2.4960   -1.4230   -1.4200 nd        1 ACK     -0.529100
     15 C5          3.1650   -0.5820   -0.5160 ca        1 ACK     -0.241200
     16 C6          4.5540   -0.3920   -0.2090 ca        1 ACK      0.768200
     17 N6          5.5120   -1.1160   -0.8630 nh        1 ACK     -0.959500
     18 N1          4.8980    0.5340    0.7520 nb        1 ACK     -0.794000
     19 C2          3.8910    1.2190    1.3530 ca        1 ACK      0.693900
     20 N3          2.5500    1.1490    1.1660 nb        1 ACK     -0.734000
     21 C4          2.2020    0.2300    0.2180 ca        1 ACK      0.481800
     22 C2'        -1.4320    0.4440   -0.8580 c3        1 ACK      0.113100
     23 HO1        -4.2750    2.7030    1.4610 ho        1 ACK      0.492000
     24 H5'        -2.6310   -1.3970   -1.3770 h1        1 ACK      0.120700
     25 H4'        -2.7030   -1.3730    1.5420 h1        1 ACK      0.100700
     26 H3'1       -0.5500   -2.8180   -0.2030 h1        1 ACK      0.064700
     27 H3'2       -1.2700   -3.3380    1.3950 h1        1 ACK      0.064700
     28 H3'        -3.2350   -3.6020    0.2050 ho        1 ACK      0.409000
     29 H1'        -0.1670    1.2700    0.7980 h2        1 ACK      0.147700
     30 H8          0.3790   -1.6230   -1.8130 h5        1 ACK      0.070800
     31 H6N1        6.4720   -0.9920   -0.6560 hn        1 ACK      0.451300
     32 H6N2        5.2340   -1.7780   -1.5430 hn        1 ACK      0.451300
     33 H2          4.2230    1.9530    2.1200 h5        1 ACK      0.055100
     34 H2'        -1.0170    0.3770   -1.9000 h1        1 ACK      0.107700
@<TRIPOS>BOND
     1    1    2 2   
     2    2    3 1   
     3    2    4 1   
     4    2    5 1   
     5    3   23 1   
     6    4   22 1   
     7    5    6 1   
     8    6    7 1   
     9    6   22 1   
    10    6   24 1   
    11    7    8 1   
    12    7    9 1   
    13    7   25 1   
    14    8   11 1   
    15    9   10 1   
    16    9   26 1   
    17    9   27 1   
    18   10   28 1   
    19   11   12 1   
    20   11   22 1   
    21   11   29 1   
    22   12   13 1   
    23   12   21 1   
    24   13   14 2   
    25   13   30 1   
    26   14   15 1   
    27   15   16 ar  
    28   15   21 ar  
    29   16   17 1   
    30   16   18 ar  
    31   17   31 1   
    32   17   32 1   
    33   18   19 ar  
    34   19   20 ar  
    35   19   33 1   
    36   20   21 ar  
    37   22   34 1   
@<TRIPOS>SUBSTRUCTURE
     1 ACK         1 TEMP              0 ****  ****    0 ROOT
