@<TRIPOS>MOLECULE
ACK
   34    37     1     0     0
SMALL
bcc


@<TRIPOS>ATOM
      1 O3P         0.2400    0.1730   -1.7670 o         1 ACK     -0.768300
      2 P           1.3370    0.4460   -0.8630 p5        1 ACK      1.599500
      3 O1P         2.6120   -0.4390   -1.1900 oh        1 ACK     -0.752400
      4 O2P         1.1170    0.2440    0.7330 os        1 ACK     -0.525200
      5 O5'         1.9210    1.9530   -0.7510 os        1 ACK     -0.532200
      6 C5'         2.0550    2.4350    0.5650 c3        1 ACK      0.113100
      7 C4'         3.5360    2.6080    0.9530 c3        1 ACK      0.073100
      8 O4'         3.8780    1.5630    1.8670 os        1 ACK     -0.400600
      9 C3'         3.8170    3.9660    1.6020 c3        1 ACK      0.110400
     10 O3'         3.2340    5.0220    0.8700 oh        1 ACK     -0.594800
     11 C1'         2.7080    0.9440    2.4330 c3        1 ACK      0.237800
     12 N9          2.5220    1.3170    3.8090 na        1 ACK     -0.289000
     13 C8          2.0110    2.5360    4.3330 cc        1 ACK      0.393700
     14 N7          2.1160    2.6380    5.6630 nd        1 ACK     -0.529100
     15 C5          2.7500    1.4540    6.0730 ca        1 ACK     -0.241200
     16 C6          3.1440    0.9560    7.3600 ca        1 ACK      0.768200
     17 N6          2.9060    1.6920    8.4880 nh        1 ACK     -0.959500
     18 N1          3.7610   -0.2740    7.4330 nb        1 ACK     -0.794000
     19 C2          3.9560   -0.9480    6.2710 ca        1 ACK      0.693900
     20 N3          3.6390   -0.6080    4.9970 nb        1 ACK     -0.734000
     21 C4          3.0310    0.6110    4.9170 ca        1 ACK      0.481800
     22 C2'         1.5020    1.3400    1.5190 c3        1 ACK      0.113100
     23 HO1         2.5220   -1.0680   -1.9050 ho        1 ACK      0.492000
     24 H5'         1.5060    3.4150    0.6320 h1        1 ACK      0.120700
     25 H4'         4.2030    2.4550    0.0590 h1        1 ACK      0.100700
     26 H3'1        4.9260    4.1060    1.6990 h1        1 ACK      0.064700
     27 H3'2        3.3490    4.0270    2.6220 h1        1 ACK      0.064700
     28 H3'         3.6660    5.0520    0.0070 ho        1 ACK      0.409000
     29 H1'         2.9140   -0.1700    2.3860 h2        1 ACK      0.147700
     30 H8          1.5540    3.2880    3.6790 h5        1 ACK      0.070800
     31 H6N1        3.1750    1.3570    9.3790 hn        1 ACK      0.451300
     32 H6N2        2.4670    2.5740    8.4030 hn        1 ACK      0.451300
     33 H2          4.4570   -1.9340    6.3850 h5        1 ACK      0.055100
     34 H2'         0.6070    1.6750    2.1120 h1        1 ACK      0.107700
@<TRIPOS>BOND
     1    1    2 2   
     2    2    3 1   
     3    2    4 1   
     4    2    5 1   
     5    3   23 1   
     6    4   22 1   
     7    5    6 1   
     8    6    7 1   
     9    6   22 1   
    10    6   24 1   
    11    7    8 1   
    12    7    9 1   
    13    7   25 1   
    14    8   11 1   
    15    9   10 1   
    16    9   26 1   
    17    9   27 1   
    18   10   28 1   
    19   11   12 1   
    20   11   22 1   
    21   11   29 1   
    22   12   13 1   
    23   12   21 1   
    24   13   14 2   
    25   13   30 1   
    26   14   15 1   
    27   15   16 ar  
    28   15   21 ar  
    29   16   17 1   
    30   16   18 ar  
    31   17   31 1   
    32   17   32 1   
    33   18   19 ar  
    34   19   20 ar  
    35   19   33 1   
    36   20   21 ar  
    37   22   34 1   
@<TRIPOS>SUBSTRUCTURE
     1 ACK         1 TEMP              0 ****  ****    0 ROOT
