@<TRIPOS>MOLECULE
ACK
   34    37     1     0     0
SMALL
bcc


@<TRIPOS>ATOM
      1 O3P         0.0610   -0.0880   -1.6590 o         1 ACK     -0.766300
      2 P           1.1760    0.3210   -0.8330 p5        1 ACK      1.600500
      3 O1P         2.5270   -0.3980   -1.2420 oh        1 ACK     -0.752400
      4 O2P         1.0900    0.1060    0.7750 os        1 ACK     -0.524200
      5 O5'         1.5690    1.8920   -0.7550 os        1 ACK     -0.529200
      6 C5'         1.7470    2.3920    0.5470 c3        1 ACK      0.121100
      7 C4'         3.2200    2.7350    0.8280 c3        1 ACK      0.067100
      8 O4'         3.7360    1.7640    1.7460 os        1 ACK     -0.414600
      9 C3'         3.3850    4.1360    1.4170 c3        1 ACK      0.122400
     10 O3'         4.7460    4.4470    1.6060 oh        1 ACK     -0.584800
     11 C1'         2.6880    1.0030    2.3730 c3        1 ACK      0.239800
     12 N9          2.5410    1.3510    3.7600 na        1 ACK     -0.290000
     13 C8          1.9290    2.5060    4.3220 cc        1 ACK      0.393700
     14 N7          2.0910    2.6120    5.6450 nd        1 ACK     -0.527100
     15 C5          2.8680    1.5020    6.0110 ca        1 ACK     -0.241200
     16 C6          3.3790    1.0440    7.2720 ca        1 ACK      0.769200
     17 N6          3.1170    1.7410    8.4190 nv        1 ACK     -0.958500
     18 N1          4.1290   -0.1120    7.3000 nb        1 ACK     -0.793000
     19 C2          4.3360   -0.7560    6.1230 ca        1 ACK      0.694900
     20 N3          3.9180   -0.4470    4.8710 nb        1 ACK     -0.735000
     21 C4          3.1780    0.6990    4.8340 ca        1 ACK      0.481800
     22 C2'         1.3900    1.2460    1.5360 c3        1 ACK      0.112100
     23 HO1         2.4780   -1.0280   -1.9600 ho        1 ACK      0.493000
     24 H5'         1.0870    3.2950    0.6620 h1        1 ACK      0.100700
     25 H4'         3.8540    2.6310   -0.0980 h1        1 ACK      0.117700
     26 H3'1        2.8300    4.2150    2.3910 h1        1 ACK      0.051200
     27 H3'2        3.0060    4.9070    0.6950 h1        1 ACK      0.051200
     28 H3'         5.1270    3.7480    2.1570 ho        1 ACK      0.419000
     29 H1'         3.0260   -0.0770    2.3070 h2        1 ACK      0.147700
     30 H8          1.3630    3.2080    3.6990 h5        1 ACK      0.065800
     31 H6N1        2.5960    2.5800    8.3630 hn        1 ACK      0.451800
     32 H6N2        3.4780    1.4400    9.2890 hn        1 ACK      0.451800
     33 H2          4.9460   -1.6830    6.2020 h5        1 ACK      0.056100
     34 H2'         0.5010    1.4760    2.1840 h1        1 ACK      0.106700
@<TRIPOS>BOND
     1    1    2 2   
     2    2    3 1   
     3    2    4 1   
     4    2    5 1   
     5    3   23 1   
     6    4   22 1   
     7    5    6 1   
     8    6    7 1   
     9    6   22 1   
    10    6   24 1   
    11    7    8 1   
    12    7    9 1   
    13    7   25 1   
    14    8   11 1   
    15    9   10 1   
    16    9   26 1   
    17    9   27 1   
    18   10   28 1   
    19   11   12 1   
    20   11   22 1   
    21   11   29 1   
    22   12   13 1   
    23   12   21 1   
    24   13   14 2   
    25   13   30 1   
    26   14   15 1   
    27   15   16 ar  
    28   15   21 ar  
    29   16   17 1   
    30   16   18 ar  
    31   17   31 1   
    32   17   32 1   
    33   18   19 ar  
    34   19   20 ar  
    35   19   33 1   
    36   20   21 ar  
    37   22   34 1   
@<TRIPOS>SUBSTRUCTURE
     1 ACK         1 TEMP              0 ****  ****    0 ROOT
