@<TRIPOS>MOLECULE
ACL
   28    27     1     0     0
SMALL
bcc


@<TRIPOS>ATOM
      1 N           2.4140    0.0510    1.3400 n3        1 ACL     -0.899800
      2 CA          0.9950    0.3330    1.2710 c3        1 ACL      0.071500
      3 CB          0.2320   -0.2680    0.0770 c3        1 ACL     -0.117400
      4 CG          0.7300    0.2800   -1.2410 c3        1 ACL     -0.089400
      5 CD         -0.2170   -0.1530   -2.3640 c3        1 ACL      0.182800
      6 NE          0.1990    0.3600   -3.6550 nh        1 ACL     -0.795200
      7 CZ         -0.5860   -0.0360   -4.7980 c2        1 ACL      0.744100
      8 NH1        -1.6910   -0.7230   -4.6450 n2        1 ACL     -0.871100
      9 NH2        -0.0430    0.3730   -6.0630 nh        1 ACL     -0.933800
     10 C           0.2770   -0.1460    2.5390 c         1 ACL      0.565100
     11 O           0.4570   -1.2720    2.9990 o         1 ACL     -0.493100
     12 CM         -0.6320    0.8930    3.1270 c3        1 ACL     -0.078000
     13 CL         -1.7730    0.2910    4.3000 cl        1 ACL     -0.144400
     14 H           2.5760   -0.8930    1.6350 hn        1 ACL      0.360800
     15 H2          2.8390    0.1980    0.4450 hn        1 ACL      0.360800
     16 HA          0.9040    1.4600    1.2070 h1        1 ACL      0.069700
     17 HB2         0.3290   -1.3860    0.0920 hc        1 ACL      0.059200
     18 HB3        -0.8570   -0.0250    0.1980 hc        1 ACL      0.059200
     19 HG2         0.7840    1.3990   -1.1930 hc        1 ACL      0.045200
     20 HG3         1.7650   -0.0990   -1.4490 hc        1 ACL      0.045200
     21 HD2        -0.2880   -1.2800   -2.3560 h1        1 ACL      0.057200
     22 HD3        -1.2480    0.2520   -2.1520 h1        1 ACL      0.057200
     23 HE          1.1780    0.2090   -3.8130 hn        1 ACL      0.387800
     24 HH1        -2.2200   -0.8780   -5.4750 hn        1 ACL      0.392400
     25 HH21       -0.7410    0.5440   -6.7540 hn        1 ACL      0.390300
     26 HH22        0.6240    1.1130   -6.0210 hn        1 ACL      0.390300
     27 HM1        -0.0040    1.6640    3.6410 h1        1 ACL      0.091200
     28 HM2        -1.2300    1.3760    2.3140 h1        1 ACL      0.091200
@<TRIPOS>BOND
     1    1    2 1   
     2    1   14 1   
     3    1   15 1   
     4    2    3 1   
     5    2   10 1   
     6    2   16 1   
     7    3    4 1   
     8    3   17 1   
     9    3   18 1   
    10    4    5 1   
    11    4   19 1   
    12    4   20 1   
    13    5    6 1   
    14    5   21 1   
    15    5   22 1   
    16    6    7 1   
    17    6   23 1   
    18    7    8 2   
    19    7    9 1   
    20    8   24 1   
    21    9   25 1   
    22    9   26 1   
    23   10   11 2   
    24   10   12 1   
    25   12   13 1   
    26   12   27 1   
    27   12   28 1   
@<TRIPOS>SUBSTRUCTURE
     1 ACL         1 TEMP              0 ****  ****    0 ROOT
