@<TRIPOS>MOLECULE
ACL
   28    26     1     0     0
SMALL
bcc


@<TRIPOS>ATOM
      1 N          -1.9310   -1.1540   -1.8550 n3        1 ACL     -0.887800
      2 CA         -0.5380   -0.8980   -1.8920 c3        1 ACL      0.079500
      3 CB          0.0120   -0.8700   -0.4680 c3        1 ACL     -0.072400
      4 CG         -0.3560    0.4650    0.1990 c3        1 ACL     -0.080400
      5 CD          0.3210    0.5530    1.5810 c3        1 ACL      0.164800
      6 NE         -0.1180    1.7540    2.2590 nh        1 ACL     -0.754000
      7 CZ          0.5590    2.1960    3.4620 c2        1 ACL      0.292000
      8 NH1         1.5610    3.0360    3.3780 n1        1 ACL     -0.288000
      9 NH2         0.1350    1.7180    4.7350 nh        1 ACL     -0.836600
     10 C           0.1510   -1.9870   -2.6760 c         1 ACL      0.517100
     11 O           0.3360   -3.0800   -2.1680 o         1 ACL     -0.507100
     12 CM          0.6410   -1.7150   -4.0870 c3        1 ACL     -0.077000
     13 CL          1.2410   -3.1920   -4.7840 cl        1 ACL     -0.147400
     14 H          -2.0910   -2.0170   -2.1220 hn        1 ACL      0.359300
     15 H2         -2.3660   -0.5720   -2.4210 hn        1 ACL      0.359300
     16 HA         -0.3770   -0.0420   -2.3190 h1        1 ACL      0.078700
     17 HB2        -0.3760   -1.6100    0.0470 hc        1 ACL      0.053700
     18 HB3         0.9860   -0.9650   -0.4930 hc        1 ACL      0.053700
     19 HG2        -1.3330    0.5190    0.3080 hc        1 ACL      0.060700
     20 HG3        -0.0510    1.2020   -0.3590 hc        1 ACL      0.060700
     21 HD2         1.2950    0.5800    1.4670 h1        1 ACL      0.031200
     22 HD3         0.0760   -0.2310    2.1160 h1        1 ACL      0.031200
     23 HE         -0.8260    2.2300    1.9320 hn        1 ACL      0.385800
     24 HH1         1.8330    3.3430    2.5630 DU        1 ACL      0.166000
     25 HH21        0.3700    2.1770    5.5020 hn        1 ACL      0.391800
     26 HH22       -0.4100    0.9860    4.7900 hn        1 ACL      0.391800
     27 HM1         1.3570   -1.0540   -4.0610 h1        1 ACL      0.087700
     28 HM2        -0.1020   -1.3720   -4.6330 h1        1 ACL      0.087700
@<TRIPOS>BOND
     1    1    2 1   
     2    1   14 1   
     3    1   15 1   
     4    2    3 1   
     5    2   10 1   
     6    2   16 1   
     7    3    4 1   
     8    3   17 1   
     9    3   18 1   
    10    4    5 1   
    11    4   19 1   
    12    4   20 1   
    13    5    6 1   
    14    5   21 1   
    15    5   22 1   
    16    6    7 1   
    17    6   23 1   
    18    7    8 2   
    19    7    9 1   
    20    9   25 1   
    21    9   26 1   
    22   10   11 2   
    23   10   12 1   
    24   12   13 1   
    25   12   27 1   
    26   12   28 1   
@<TRIPOS>SUBSTRUCTURE
     1 ACL         1 TEMP              0 ****  ****    0 ROOT
