@<TRIPOS>MOLECULE
ACN
   10     9     1     0     0
SMALL
bcc


@<TRIPOS>ATOM
      1 C           0.0520   -0.0000   -0.0030 c         1 ACN      0.563100
      2 O           1.2870   -0.0070   -0.0070 o         1 ACN     -0.531100
      3 C1         -0.7420    0.0180    1.2640 c3        1 ACN     -0.204100
      4 C2         -0.7520   -0.0100   -1.2640 c3        1 ACN     -0.204100
      5 H11        -0.0720    0.1230    2.1520 hc        1 ACN      0.062700
      6 H12        -1.3180   -0.9350    1.3580 hc        1 ACN      0.062700
      7 H13        -1.4630    0.8700    1.2500 hc        1 ACN      0.062700
      8 H21        -1.4820   -0.8550   -1.2430 hc        1 ACN      0.062700
      9 H22        -1.3180    0.9490   -1.3530 hc        1 ACN      0.062700
     10 H23        -0.0900   -0.1220   -2.1560 hc        1 ACN      0.062700
@<TRIPOS>BOND
     1    1    2 2   
     2    1    3 1   
     3    1    4 1   
     4    3    5 1   
     5    3    6 1   
     6    3    7 1   
     7    4    8 1   
     8    4    9 1   
     9    4   10 1   
@<TRIPOS>SUBSTRUCTURE
     1 ACN         1 TEMP              0 ****  ****    0 ROOT
