@<TRIPOS>MOLECULE
ACN
   10     9     1     0     0
SMALL
bcc


@<TRIPOS>ATOM
      1 C           0.0520   -0.0000   -0.0000 c         1 ACN      0.563100
      2 O           1.2870   -0.0060    0.0000 o         1 ACN     -0.531100
      3 C1         -0.7470    0.0190    1.2640 c3        1 ACN     -0.204100
      4 C2         -0.7470   -0.0110   -1.2640 c3        1 ACN     -0.204100
      5 H11        -0.0800    0.1150    2.1550 hc        1 ACN      0.062700
      6 H12        -1.3310   -0.9290    1.3510 hc        1 ACN      0.062700
      7 H13        -1.4610    0.8780    1.2500 hc        1 ACN      0.062700
      8 H21        -1.4680   -0.8640   -1.2500 hc        1 ACN      0.062700
      9 H22        -1.3220    0.9420   -1.3510 hc        1 ACN      0.062700
     10 H23        -0.0810   -0.1130   -2.1550 hc        1 ACN      0.062700
@<TRIPOS>BOND
     1    1    2 2   
     2    1    3 1   
     3    1    4 1   
     4    3    5 1   
     5    3    6 1   
     6    3    7 1   
     7    4    8 1   
     8    4    9 1   
     9    4   10 1   
@<TRIPOS>SUBSTRUCTURE
     1 ACN         1 TEMP              0 ****  ****    0 ROOT
