@<TRIPOS>MOLECULE
ACN
   10     9     1     0     0
SMALL
bcc


@<TRIPOS>ATOM
      1 C          -0.0000   -0.1270   -0.0000 c         1 ACN      0.563100
      2 O          -0.0000   -1.3620   -0.0010 o         1 ACN     -0.531100
      3 C1          1.2610    0.6710    0.0880 c3        1 ACN     -0.204100
      4 C2         -1.2610    0.6720   -0.0880 c3        1 ACN     -0.204100
      5 H11         1.4040    1.2510   -0.8570 hc        1 ACN      0.062700
      6 H12         1.1980    1.3890    0.9410 hc        1 ACN      0.062700
      7 H13         2.1450    0.0040    0.2390 hc        1 ACN      0.062700
      8 H21        -1.4030    1.2500    0.8570 hc        1 ACN      0.062700
      9 H22        -1.1970    1.3910   -0.9400 hc        1 ACN      0.062700
     10 H23        -2.1450    0.0060   -0.2400 hc        1 ACN      0.062700
@<TRIPOS>BOND
     1    1    2 2   
     2    1    3 1   
     3    1    4 1   
     4    3    5 1   
     5    3    6 1   
     6    3    7 1   
     7    4    8 1   
     8    4    9 1   
     9    4   10 1   
@<TRIPOS>SUBSTRUCTURE
     1 ACN         1 TEMP              0 ****  ****    0 ROOT
