@<TRIPOS>MOLECULE
ACP
   45    47     1     0     0
SMALL
bcc


@<TRIPOS>ATOM
      1 PG          0.0000    0.0000    0.0000 p5        1 ACP      0.494700
      2 O1G         1.4790    0.0000    0.0000 o         1 ACP     -0.662833
      3 O2G        -0.5370    0.0000    1.5180 o         1 ACP     -0.662833
      4 O3G        -0.5370   -1.3140   -0.7580 o         1 ACP     -0.662833
      5 PB          0.0000    1.4880   -2.5780 p5        1 ACP      0.657600
      6 O1B        -0.4930    0.2800   -3.2750 o         1 ACP     -0.518000
      7 O2B         1.6090    1.4880   -2.5780 o         1 ACP     -0.518000
      8 C3B        -0.6080    1.4880   -0.8600 c3        1 ACP      0.146200
      9 PA          0.0350    2.7380   -4.8400 p5        1 ACP      0.886800
     10 O1A        -0.4600    1.5110   -5.5020 o         1 ACP     -0.663500
     11 O2A         1.6440    2.7170   -4.8020 o         1 ACP     -0.663500
     12 O3A        -0.5360    2.8030   -3.3370 os        1 ACP     -0.494800
     13 O5'        -0.4650    4.0300   -5.6610 os        1 ACP     -0.471200
     14 C5'         0.0710    3.9130   -6.9790 c3        1 ACP      0.248400
     15 C4'        -0.3690    5.1160   -7.8170 c3        1 ACP      0.146100
     16 O4'         0.1340    6.3410   -7.2400 os        1 ACP     -0.353600
     17 C3'         0.2620    5.0550   -9.2250 c3        1 ACP      0.121100
     18 O3'        -0.6670    4.5150  -10.1670 oh        1 ACP     -0.570800
     19 C2'         0.5780    6.5320   -9.5600 c3        1 ACP      0.108100
     20 O2'        -0.1440    6.9470  -10.7220 oh        1 ACP     -0.555800
     21 C1'         0.1030    7.3070   -8.3120 c3        1 ACP      0.149800
     22 N9          1.0120    8.4180   -8.0260 na        1 ACP      0.183000
     23 C8          2.1330    8.3630   -7.2510 cc        1 ACP      0.095700
     24 N7          2.7040    9.5310   -7.2100 nd        1 ACP     -0.539100
     25 C5          1.9920   10.4080   -7.9590 ca        1 ACP     -0.262200
     26 C6          2.1170   11.7720   -8.2710 ca        1 ACP      0.370200
     27 N6          3.1730   12.5170   -7.7760 nv        1 ACP     -0.572500
     28 N1          1.2020   12.3290   -9.0560 nb        1 ACP     -0.694000
     29 C2          0.1910   11.6260   -9.5330 ca        1 ACP      0.424900
     30 N3          0.0300   10.3480   -9.2630 nb        1 ACP     -0.752000
     31 C4          0.8950    9.7040   -8.4870 ca        1 ACP      0.288800
     32 H3B1       -0.2460    2.3730   -0.3490 hc        1 ACP     -0.007300
     33 H3B2       -1.6910    1.4890   -0.8600 hc        1 ACP     -0.007300
     34 H5'1        1.1530    3.8850   -6.9280 h1        1 ACP      0.009700
     35 H5'2       -0.2920    3.0020   -7.4380 h1        1 ACP      0.009700
     36 H4'        -1.4490    5.1540   -7.8920 h1        1 ACP      0.021700
     37 H3'         1.1730    4.4700   -9.2040 h1        1 ACP      0.016700
     38 HO3'       -0.2550    3.8180  -10.6500 ho        1 ACP      0.364000
     39 H2'         1.6440    6.6650   -9.7030 h1        1 ACP      0.012700
     40 HO2'        0.4380    6.9710  -11.4620 ho        1 ACP      0.361000
     41 H1'        -0.9070    7.6700   -8.4600 h2        1 ACP      0.043700
     42 H8          2.4960    7.4770   -6.7440 h5        1 ACP      0.041800
     43 HN61        3.2530   13.4870   -8.0060 hn        1 ACP      0.238300
     44 HN62        3.8580   12.0840   -7.1870 hn        1 ACP      0.238300
     45 H2         -0.5320   12.1210  -10.1690 h5        1 ACP     -0.047900
@<TRIPOS>BOND
     1    1    2 1   
     2    1    3 1   
     3    1    4 1   
     4    1    8 1   
     5    5    6 1   
     6    5    7 1   
     7    5    8 1   
     8    5   12 1   
     9    8   32 1   
    10    8   33 1   
    11    9   10 1   
    12    9   11 1   
    13    9   12 1   
    14    9   13 1   
    15   13   14 1   
    16   14   15 1   
    17   14   34 1   
    18   14   35 1   
    19   15   16 1   
    20   15   17 1   
    21   15   36 1   
    22   16   21 1   
    23   17   18 1   
    24   17   19 1   
    25   17   37 1   
    26   18   38 1   
    27   19   20 1   
    28   19   21 1   
    29   19   39 1   
    30   20   40 1   
    31   21   22 1   
    32   21   41 1   
    33   22   23 1   
    34   22   31 1   
    35   23   24 2   
    36   23   42 1   
    37   24   25 1   
    38   25   26 ar  
    39   25   31 ar  
    40   26   27 1   
    41   26   28 ar  
    42   27   43 1   
    43   27   44 1   
    44   28   29 ar  
    45   29   30 ar  
    46   29   45 1   
    47   30   31 ar  
@<TRIPOS>SUBSTRUCTURE
     1 ACP         1 TEMP              0 ****  ****    0 ROOT
