@<TRIPOS>MOLECULE
ACQ
   49    51     1     0     0
SMALL
bcc


@<TRIPOS>ATOM
      1 PG          0.0000    0.0000    0.0000 p5        1 ACQ      0.713600
      2 O1G         1.4800    0.0000    0.0000 o         1 ACQ     -0.460500
      3 O2G        -0.5360    0.0000    1.5170 o         1 ACQ     -0.460500
      4 O3G        -0.5360    1.3150   -0.7580 os        1 ACQ     -0.483800
      5 PB          0.0000   -2.9770   -0.0020 p5        1 ACQ      0.660600
      6 O1B        -0.4930   -2.9760    1.3940 o         1 ACQ     -0.566500
      7 O2B         1.6100   -2.9770   -0.0000 o         1 ACQ     -0.566500
      8 C3B        -0.6080   -1.4880   -0.8590 c3        1 ACQ      0.026200
      9 PA          0.0350   -5.5620    0.0480 p5        1 ACQ      0.884800
     10 O1A        -0.4590   -5.5210    1.4430 o         1 ACQ     -0.665000
     11 O2A         1.6440   -5.5170    0.0480 o         1 ACQ     -0.665000
     12 O3A        -0.5360   -4.2910   -0.7600 os        1 ACQ     -0.492800
     13 O5'        -0.4650   -6.9160   -0.6600 os        1 ACQ     -0.471200
     14 C5'         0.0710   -8.0010    0.0990 c3        1 ACQ      0.247400
     15 C4'        -0.3680   -9.3270   -0.5240 c3        1 ACQ      0.145100
     16 O4'         0.1340   -9.4400   -1.8730 os        1 ACQ     -0.350600
     17 C3'         0.2630  -10.5170    0.2330 c3        1 ACQ      0.117100
     18 O3'        -0.6660  -11.0620    1.1730 oh        1 ACQ     -0.574800
     19 C2'         0.5790  -11.5460   -0.8780 c3        1 ACQ      0.108100
     20 O2'        -0.1420  -12.7590   -0.6570 oh        1 ACQ     -0.554800
     21 C1'         0.1040  -10.8520   -2.1740 c3        1 ACQ      0.151800
     22 N9          1.0140  -11.1600   -3.2780 na        1 ACQ      0.190000
     23 C8          2.1330  -10.4610   -3.6180 cc        1 ACQ      0.015700
     24 N7          2.7050  -11.0100   -4.6500 nd        1 ACQ     -0.549100
     25 C5          1.9930  -12.0960   -5.0350 ca        1 ACQ     -0.189200
     26 C6          2.1180  -13.0470   -6.0610 ca        1 ACQ      0.157200
     27 N6          3.1740  -12.9910   -6.9530 nv        1 ACQ     -0.582500
     28 N1          1.2030  -14.0070   -6.1510 nb        1 ACQ     -0.647000
     29 C2          0.1920  -14.0680   -5.3030 ca        1 ACQ      0.414900
     30 N3          0.0310  -13.1950   -4.3310 nb        1 ACQ     -0.864000
     31 C4          0.8970  -12.2020   -4.1620 ca        1 ACQ      0.297800
     32 PD          0.0340    2.5850    0.0500 p5        1 ACQ      0.794900
     33 O1D         1.5130    2.5450    0.0490 o         1 ACQ     -0.649500
     34 O2D        -0.4660    3.9410   -0.6590 o         1 ACQ     -0.649500
     35 O3D        -0.5030    2.5410    1.5660 o         1 ACQ     -0.649500
     36 H3B1       -0.2480   -1.4880   -1.8810 hc        1 ACQ      0.004200
     37 H3B2       -1.6910   -1.4890   -0.8580 hc        1 ACQ      0.004200
     38 H5'1        1.1530   -7.9430    0.0980 h1        1 ACQ      0.007200
     39 H5'2       -0.2920   -7.9430    1.1180 h1        1 ACQ      0.007200
     40 H4'        -1.4480   -9.4120   -0.5190 h1        1 ACQ      0.015700
     41 H3'         1.1750  -10.2060    0.7290 h1        1 ACQ      0.013700
     42 HO3'       -0.2540  -11.1300    2.0180 ho        1 ACQ      0.358000
     43 H2'         1.6450  -11.7350   -0.9220 h1        1 ACQ      0.016700
     44 HO2'        0.4450  -13.4170   -0.3250 ho        1 ACQ      0.356000
     45 H1'        -0.9060  -11.1610   -2.4150 h2        1 ACQ      0.039700
     46 H8          2.4950   -9.5780   -3.1040 h5        1 ACQ      0.031800
     47 HN61        4.0190  -13.4930   -6.7600 hn        1 ACQ      0.191800
     48 HN62        3.0760  -12.4900   -7.8140 hn        1 ACQ      0.191800
     49 H2         -0.5320  -14.8670   -5.4120 h5        1 ACQ     -0.071900
@<TRIPOS>BOND
     1    1    2 1   
     2    1    3 1   
     3    1    4 1   
     4    1    8 1   
     5    4   32 1   
     6    5    6 1   
     7    5    7 1   
     8    5    8 1   
     9    5   12 1   
    10    8   36 1   
    11    8   37 1   
    12    9   10 1   
    13    9   11 1   
    14    9   12 1   
    15    9   13 1   
    16   13   14 1   
    17   14   15 1   
    18   14   38 1   
    19   14   39 1   
    20   15   16 1   
    21   15   17 1   
    22   15   40 1   
    23   16   21 1   
    24   17   18 1   
    25   17   19 1   
    26   17   41 1   
    27   18   42 1   
    28   19   20 1   
    29   19   21 1   
    30   19   43 1   
    31   20   44 1   
    32   21   22 1   
    33   21   45 1   
    34   22   23 1   
    35   22   31 1   
    36   23   24 2   
    37   23   46 1   
    38   24   25 1   
    39   25   26 ar  
    40   25   31 ar  
    41   26   27 1   
    42   26   28 ar  
    43   27   47 1   
    44   27   48 1   
    45   28   29 ar  
    46   29   30 ar  
    47   29   49 1   
    48   30   31 ar  
    49   32   33 1   
    50   32   34 1   
    51   32   35 1   
@<TRIPOS>SUBSTRUCTURE
     1 ACQ         1 TEMP              0 ****  ****    0 ROOT
