@<TRIPOS>MOLECULE
ACS
   46    46     1     0     0
SMALL
bcc


@<TRIPOS>ATOM
      1 N1         -0.1050   -0.2360    0.2740 n4        1 ACS     -0.835600
      2 C2          1.2950    0.2750    0.3960 c3        1 ACS     -0.073500
      3 C3          1.5910    0.6320    1.9380 c         1 ACS      0.937600
      4 O4          2.6910    1.1620    2.1540 o         1 ACS     -0.755800
      5 O5          0.6690    0.3080    2.7330 o         1 ACS     -0.755800
      6 C6          1.5680    1.4920   -0.4660 c3        1 ACS     -0.097400
      7 C7          1.4900    1.1860   -1.9440 c3        1 ACS     -0.088400
      8 C10         1.9150    2.3840   -2.7680 c3        1 ACS     -0.146400
      9 C13         1.5820    2.1670   -4.2310 c         1 ACS      0.670100
     10 N16         2.2650    2.9510   -5.1510 n         1 ACS     -0.550900
     11 O17         0.7330    1.3360   -4.6080 o         1 ACS     -0.607100
     12 C18         1.9920    2.9020   -6.5360 cy        1 ACS      0.053700
     13 C19         3.2160    2.6910   -7.4890 c         1 ACS      0.673500
     14 O20         4.0560    1.8260   -7.7110 o         1 ACS     -0.581500
     15 N21         3.0060    3.9560   -8.0750 n         1 ACS     -0.476800
     16 C22         3.3470    4.4180   -9.3840 c3        1 ACS      0.054700
     17 C23         4.8170    4.8490   -9.4730 c         1 ACS      0.625100
     18 C24         3.1030    3.4250  -10.5270 c3        1 ACS     -0.134100
     19 S25         1.4570    3.3510  -11.1480 s4        1 ACS      0.284600
     20 O28         0.6000    3.9020  -10.0560 o         1 ACS     -0.524200
     21 C29         1.5240    4.5960  -12.3520 c3        1 ACS     -0.137800
     22 O35         5.1870    5.9470   -9.8860 o         1 ACS     -0.492000
     23 O36         5.8190    3.9940   -9.1470 oh        1 ACS     -0.568100
     24 C42         1.7930    4.2750   -7.3140 cy        1 ACS      0.139800
     25 S44         1.8570    5.7000   -6.2670 sh        1 ACS     -0.352900
     26 H12        -0.4370   -0.3960    1.2560 hn        1 ACS      0.444800
     27 H11        -0.1410   -1.1020   -0.2540 hn        1 ACS      0.444800
     28 H2          1.9910   -0.5650    0.1220 hx        1 ACS      0.090700
     29 H62         2.6030    1.8400   -0.1880 hc        1 ACS      0.086700
     30 H61         0.8650    2.3260   -0.2030 hc        1 ACS      0.086700
     31 H72         2.1510    0.3140   -2.1930 hc        1 ACS      0.049200
     32 H71         0.4430    0.8990   -2.2350 hc        1 ACS      0.049200
     33 H102        3.0140    2.5650   -2.6280 hc        1 ACS      0.078700
     34 H101        1.3700    3.3040   -2.4250 hc        1 ACS      0.078700
     35 H16         5.4610    3.1560   -8.8090 ho        1 ACS      0.450000
     36 H18         1.1690    2.1690   -6.7590 h1        1 ACS      0.136700
     37 H22         2.7260    5.3480   -9.5840 h1        1 ACS      0.103700
     38 H242        3.7990    3.6790  -11.3680 h1        1 ACS      0.106700
     39 H241        3.3760    2.3890  -10.1930 h1        1 ACS      0.106700
     40 H293        0.5020    4.7540  -12.7730 h1        1 ACS      0.093700
     41 H292        2.2000    4.2980  -13.1860 h1        1 ACS      0.093700
     42 H291        1.8710    5.5860  -11.9730 h1        1 ACS      0.093700
     43 H42         0.8670    4.2940   -7.9470 h2        1 ACS      0.139700
     44 H44         1.6400    6.6350   -7.1810 hs        1 ACS      0.226800
     45 H13        -0.7020    0.4590   -0.1700 hn        1 ACS      0.444800
     46 H162        2.8940    3.6520   -4.8280 hn        1 ACS      0.334500
@<TRIPOS>BOND
     1    1    2 1   
     2    1   26 1   
     3    1   27 1   
     4    1   45 1   
     5    2    3 1   
     6    2    6 1   
     7    2   28 1   
     8    3    4 1   
     9    3    5 1   
    10    6    7 1   
    11    6   29 1   
    12    6   30 1   
    13    7    8 1   
    14    7   31 1   
    15    7   32 1   
    16    8    9 1   
    17    8   33 1   
    18    8   34 1   
    19    9   10 1   
    20    9   11 2   
    21   10   12 1   
    22   10   46 1   
    23   12   13 1   
    24   12   24 1   
    25   12   36 1   
    26   13   14 2   
    27   13   15 1   
    28   15   16 1   
    29   15   24 1   
    30   16   17 1   
    31   16   18 1   
    32   16   37 1   
    33   17   22 2   
    34   17   23 1   
    35   18   19 1   
    36   18   38 1   
    37   18   39 1   
    38   19   20 2   
    39   19   21 1   
    40   21   40 1   
    41   21   41 1   
    42   21   42 1   
    43   23   35 1   
    44   24   25 1   
    45   24   43 1   
    46   25   44 1   
@<TRIPOS>SUBSTRUCTURE
     1 ACS         1 TEMP              0 ****  ****    0 ROOT
