@<TRIPOS>MOLECULE
ACS
   46    46     1     0     0
SMALL
bcc


@<TRIPOS>ATOM
      1 N1         -0.1570   -0.1450    0.3050 n4        1 ACS     -0.835600
      2 C2          1.2660    0.3020    0.4110 c3        1 ACS     -0.073500
      3 C3          1.5950    0.6460    1.9490 c         1 ACS      0.937600
      4 O4          2.7210    1.1260    2.1510 o         1 ACS     -0.755800
      5 O5          0.6700    0.3640    2.7550 o         1 ACS     -0.755800
      6 C6          1.5820    1.5050   -0.4550 c3        1 ACS     -0.097400
      7 C7          1.4720    1.2030   -1.9330 c3        1 ACS     -0.088400
      8 C10         1.9430    2.3790   -2.7620 c3        1 ACS     -0.146400
      9 C13         1.5840    2.1770   -4.2220 c         1 ACS      0.670100
     10 N16         2.2850    2.9380   -5.1490 n         1 ACS     -0.551900
     11 O17         0.7020    1.3780   -4.5890 o         1 ACS     -0.607100
     12 C18         1.9940    2.9000   -6.5300 cy        1 ACS      0.053700
     13 C19         3.1980    2.6490   -7.4980 c         1 ACS      0.673500
     14 O20         4.0050    1.7560   -7.7310 o         1 ACS     -0.581500
     15 N21         3.0240    3.9220   -8.0790 n         1 ACS     -0.476800
     16 C22         3.3650    4.3750   -9.3920 c3        1 ACS      0.054700
     17 C23         4.8480    4.7550   -9.4980 c         1 ACS      0.625100
     18 C24         3.0740    3.3930  -10.5330 c3        1 ACS     -0.134100
     19 S25         1.4190    3.3760  -11.1340 s4        1 ACS      0.284600
     20 O28         0.5940    3.9540  -10.0320 o         1 ACS     -0.524200
     21 C29         1.5140    4.6200  -12.3380 c3        1 ACS     -0.137800
     22 O35         5.2500    5.8400   -9.9140 o         1 ACS     -0.492000
     23 O36         5.8240    3.8660   -9.1840 oh        1 ACS     -0.568100
     24 C42         1.8320    4.2810   -7.3040 cy        1 ACS      0.139800
     25 S44         1.9570    5.7010   -6.2550 sh        1 ACS     -0.352900
     26 H12        -0.2380   -1.0090   -0.2210 hn        1 ACS      0.444800
     27 H11        -0.4840   -0.2900    1.2920 hn        1 ACS      0.444800
     28 H2          1.9200   -0.5680    0.1290 hx        1 ACS      0.090700
     29 H62         2.6360    1.8060   -0.1900 hc        1 ACS      0.086700
     30 H61         0.9210    2.3710   -0.1850 hc        1 ACS      0.086700
     31 H72         0.4100    0.9640   -2.2100 hc        1 ACS      0.049200
     32 H71         2.0890    0.3010   -2.1880 hc        1 ACS      0.049200
     33 H102        3.0500    2.5110   -2.6350 hc        1 ACS      0.078700
     34 H101        1.4440    3.3240   -2.4140 hc        1 ACS      0.078700
     35 H16         2.9420    3.6150   -4.8320 hn        1 ACS      0.334500
     36 H18         1.1430    2.1960   -6.7450 h1        1 ACS      0.136700
     37 H22         2.7740    5.3260   -9.5820 h1        1 ACS      0.103700
     38 H242        3.7680    3.6250  -11.3820 h1        1 ACS      0.106700
     39 H241        3.3150    2.3470  -10.2040 h1        1 ACS      0.106700
     40 H293        2.1690    4.3000  -13.1800 h1        1 ACS      0.093700
     41 H292        1.9000    5.5970  -11.9620 h1        1 ACS      0.093700
     42 H291        0.4930    4.8130  -12.7460 h1        1 ACS      0.093700
     43 H42         0.9000    4.3330   -7.9250 h2        1 ACS      0.139700
     44 H44         1.7620    6.6450   -7.1650 hs        1 ACS      0.226800
     45 H13        -0.7280    0.5760   -0.1310 hn        1 ACS      0.444800
     46 H162        5.4420    3.0400   -8.8440 ho        1 ACS      0.450000
@<TRIPOS>BOND
     1    1    2 1   
     2    1   26 1   
     3    1   27 1   
     4    1   45 1   
     5    2    3 1   
     6    2    6 1   
     7    2   28 1   
     8    3    4 1   
     9    3    5 1   
    10    6    7 1   
    11    6   29 1   
    12    6   30 1   
    13    7    8 1   
    14    7   31 1   
    15    7   32 1   
    16    8    9 1   
    17    8   33 1   
    18    8   34 1   
    19    9   10 1   
    20    9   11 2   
    21   10   12 1   
    22   10   35 1   
    23   12   13 1   
    24   12   24 1   
    25   12   36 1   
    26   13   14 2   
    27   13   15 1   
    28   15   16 1   
    29   15   24 1   
    30   16   17 1   
    31   16   18 1   
    32   16   37 1   
    33   17   22 2   
    34   17   23 1   
    35   18   19 1   
    36   18   38 1   
    37   18   39 1   
    38   19   20 2   
    39   19   21 1   
    40   21   40 1   
    41   21   41 1   
    42   21   42 1   
    43   23   46 1   
    44   24   25 1   
    45   24   43 1   
    46   25   44 1   
@<TRIPOS>SUBSTRUCTURE
     1 ACS         1 TEMP              0 ****  ****    0 ROOT
