@<TRIPOS>MOLECULE
ACS
   44    44     1     0     0
SMALL
bcc


@<TRIPOS>ATOM
      1 N1          6.5990    0.5210   -1.5540 n3        1 ACS     -0.891800
      2 C2          6.4800    0.3270   -0.1140 c3        1 ACS      0.024500
      3 C3          7.6380   -0.5150    0.5170 c         1 ACS      0.886600
      4 O4          7.6090   -0.7210    1.7620 o         1 ACS     -0.850800
      5 O5          8.5650   -0.9250   -0.2440 o         1 ACS     -0.850800
      6 C6          5.1430   -0.2840    0.3110 c3        1 ACS     -0.066400
      7 C7          3.9760    0.6450    0.0520 c3        1 ACS     -0.073400
      8 C10         2.6700    0.0170    0.4980 c3        1 ACS     -0.143400
      9 C13         1.5270    1.0110    0.4310 c         1 ACS      0.668100
     10 N16         0.2560    0.5050    0.2040 n         1 ACS     -0.551900
     11 O17         1.6940    2.2370    0.6010 o         1 ACS     -0.638100
     12 C18        -0.8870    1.3340    0.1620 cy        1 ACS      0.021700
     13 C19        -2.1390    0.7960    0.9270 c         1 ACS      0.681500
     14 O20        -2.4300    0.6360    2.1070 o         1 ACS     -0.584500
     15 N21        -2.9180    0.7360   -0.2740 n         1 ACS     -0.426800
     16 C22        -3.6760   -0.4510   -0.6220 c3        1 ACS     -0.046300
     17 C23        -2.9000   -1.8180   -0.5200 c         1 ACS      0.908600
     18 C24        -4.9440   -0.5750    0.2210 c3        1 ACS     -0.064100
     19 S25        -5.9580    0.8400    0.0330 s4        1 ACS      0.221600
     20 O28        -7.3800    0.3330    0.0900 o         1 ACS     -0.553200
     21 C29        -5.7230    1.6260    1.5740 c3        1 ACS     -0.110800
     22 O35        -3.5550   -2.8540   -0.7950 o         1 ACS     -0.826300
     23 O36        -1.6730   -1.7930   -0.2110 o         1 ACS     -0.826300
     24 C42        -1.8240    1.2370   -1.1250 cy        1 ACS      0.144800
     25 S44        -1.2870    0.3960   -2.5730 sh        1 ACS     -0.444900
     26 H12         7.5820    0.5960   -1.7650 hn        1 ACS      0.328300
     27 H11         6.2740   -0.3080   -2.0190 hn        1 ACS      0.328300
     28 H2          6.5560    1.3550    0.3480 h1        1 ACS      0.042700
     29 H62         4.9770   -1.2570   -0.2210 hc        1 ACS      0.045200
     30 H61         5.2180   -0.5090    1.4090 hc        1 ACS      0.045200
     31 H72         4.1310    1.6120    0.6010 hc        1 ACS      0.052700
     32 H71         3.9140    0.8940   -1.0390 hc        1 ACS      0.052700
     33 H102        2.4560   -0.8890   -0.1260 hc        1 ACS      0.063200
     34 H101        2.7540   -0.3180    1.5670 hc        1 ACS      0.063200
     35 H16         0.1030   -0.4780    0.0940 hn        1 ACS      0.360500
     36 H18        -0.6260    2.3940    0.4200 h1        1 ACS      0.102700
     37 H22        -3.9650   -0.3400   -1.7100 h1        1 ACS      0.063700
     38 H242       -5.4780   -1.4980   -0.1330 h1        1 ACS      0.113700
     39 H241       -4.6560   -0.7700    1.2850 h1        1 ACS      0.113700
     40 H293       -4.6630    1.5320    1.9160 h1        1 ACS      0.079033
     41 H292       -5.9570    2.7080    1.4590 h1        1 ACS      0.079033
     42 H291       -6.3800    1.2160    2.3730 h1        1 ACS      0.079033
     43 H42        -2.0880    2.2570   -1.5060 h2        1 ACS      0.079700
     44 H44        -1.0650   -0.8410   -2.0850 hs        1 ACS      0.296800
@<TRIPOS>BOND
     1    1    2 1   
     2    1   26 1   
     3    1   27 1   
     4    2    3 1   
     5    2    6 1   
     6    2   28 1   
     7    3    4 1   
     8    3    5 1   
     9    6    7 1   
    10    6   29 1   
    11    6   30 1   
    12    7    8 1   
    13    7   31 1   
    14    7   32 1   
    15    8    9 1   
    16    8   33 1   
    17    8   34 1   
    18    9   10 1   
    19    9   11 2   
    20   10   12 1   
    21   10   35 1   
    22   12   13 1   
    23   12   24 1   
    24   12   36 1   
    25   13   14 2   
    26   13   15 1   
    27   15   16 1   
    28   15   24 1   
    29   16   17 1   
    30   16   18 1   
    31   16   37 1   
    32   17   22 1   
    33   17   23 1   
    34   18   19 1   
    35   18   38 1   
    36   18   39 1   
    37   19   20 2   
    38   19   21 1   
    39   21   40 1   
    40   21   41 1   
    41   21   42 1   
    42   24   25 1   
    43   24   43 1   
    44   25   44 1   
@<TRIPOS>SUBSTRUCTURE
     1 ACS         1 TEMP              0 ****  ****    0 ROOT
