@<TRIPOS>MOLECULE
ACS
   46    46     1     0     0
SMALL
bcc


@<TRIPOS>ATOM
      1 N1         -0.2070   -0.1720    0.2650 nz        1 ACS     -0.835600
      2 C2          1.2220    0.2530    0.3760 c3        1 ACS     -0.073500
      3 C3          1.5570    0.5720    1.9170 c         1 ACS      0.937600
      4 O4          2.6900    1.0330    2.1250 o         1 ACS     -0.755800
      5 O5          0.6270    0.2940    2.7200 o         1 ACS     -0.755800
      6 C6          1.5560    1.4610   -0.4760 c3        1 ACS     -0.097400
      7 C7          1.4420    1.1790   -1.9570 c3        1 ACS     -0.088400
      8 C10         1.9290    2.3600   -2.7710 c3        1 ACS     -0.146400
      9 C13         1.5660    2.1820   -4.2330 c         1 ACS      0.670100
     10 N16         2.2840    2.9360   -5.1520 ns        1 ACS     -0.550900
     11 O17         0.6650    1.4070   -4.6090 o         1 ACS     -0.607100
     12 C18         1.9920    2.9200   -6.5340 cy        1 ACS      0.053700
     13 C19         3.1890    2.6490   -7.5040 c         1 ACS      0.673500
     14 O20         3.9740    1.7390   -7.7480 o         1 ACS     -0.581500
     15 N21         3.0470    3.9320   -8.0720 n         1 ACS     -0.476800
     16 C22         3.3990    4.3890   -9.3810 c3        1 ACS      0.054700
     17 C23         4.8910    4.7340   -9.4830 c         1 ACS      0.625100
     18 C24         3.0830    3.4270  -10.5330 c3        1 ACS     -0.134100
     19 S25         1.4280    3.4580  -11.1330 s4        1 ACS      0.284600
     20 O28         0.6190    4.0450  -10.0240 o         1 ACS     -0.524200
     21 C29         1.5550    4.7120  -12.3230 c3        1 ACS     -0.137800
     22 O35         5.3200    5.8130   -9.8880 o         1 ACS     -0.492000
     23 O36         5.8440    3.8170   -9.1800 oh        1 ACS     -0.568100
     24 C42         1.8640    4.3120   -7.2930 cy        1 ACS      0.139800
     25 S44         2.0250    5.7180   -6.2300 sh        1 ACS     -0.352900
     26 H12        -0.3020   -1.0280   -0.2720 hn        1 ACS      0.444800
     27 H11        -0.5370   -0.3240    1.2490 hn        1 ACS      0.444800
     28 H2          1.8630   -0.6240    0.0830 hx        1 ACS      0.090700
     29 H62         0.9080    2.3330   -0.1950 hc        1 ACS      0.086700
     30 H61         2.6140    1.7440   -0.2070 hc        1 ACS      0.086700
     31 H72         0.3770    0.9590   -2.2370 hc        1 ACS      0.049200
     32 H71         2.0470    0.2720   -2.2240 hc        1 ACS      0.049200
     33 H102        1.4440    3.3070   -2.4110 hc        1 ACS      0.078700
     34 H101        3.0380    2.4730   -2.6440 hc        1 ACS      0.078700
     35 H16         5.4420    2.9980   -8.8480 ho        1 ACS      0.450000
     36 H18         1.1230    2.2390   -6.7550 h1        1 ACS      0.136700
     37 H22         2.8320    5.3570   -9.5610 h1        1 ACS      0.103700
     38 H242        3.7840    3.6500  -11.3790 h1        1 ACS      0.106700
     39 H241        3.2990    2.3730  -10.2140 h1        1 ACS      0.106700
     40 H293        0.5390    4.9350  -12.7290 h1        1 ACS      0.093700
     41 H292        1.9650    5.6750  -11.9380 h1        1 ACS      0.093700
     42 H291        2.2010    4.3850  -13.1690 h1        1 ACS      0.093700
     43 H42         0.9330    4.3930   -7.9140 h2        1 ACS      0.139700
     44 H44         1.8520    6.6750   -7.1300 hs        1 ACS      0.226800
     45 H13        -0.7670    0.5630   -0.1630 hn        1 ACS      0.444800
     46 H162        2.9560    3.5940   -4.8290 hn        1 ACS      0.334500
@<TRIPOS>BOND
     1    1    2 1   
     2    1   26 1   
     3    1   27 1   
     4    1   45 1   
     5    2    3 1   
     6    2    6 1   
     7    2   28 1   
     8    3    4 1   
     9    3    5 1   
    10    6    7 1   
    11    6   29 1   
    12    6   30 1   
    13    7    8 1   
    14    7   31 1   
    15    7   32 1   
    16    8    9 1   
    17    8   33 1   
    18    8   34 1   
    19    9   10 1   
    20    9   11 2   
    21   10   12 1   
    22   10   46 1   
    23   12   13 1   
    24   12   24 1   
    25   12   36 1   
    26   13   14 2   
    27   13   15 1   
    28   15   16 1   
    29   15   24 1   
    30   16   17 1   
    31   16   18 1   
    32   16   37 1   
    33   17   22 2   
    34   17   23 1   
    35   18   19 1   
    36   18   38 1   
    37   18   39 1   
    38   19   20 2   
    39   19   21 1   
    40   21   40 1   
    41   21   41 1   
    42   21   42 1   
    43   23   35 1   
    44   24   25 1   
    45   24   43 1   
    46   25   44 1   
@<TRIPOS>SUBSTRUCTURE
     1 ACS         1 TEMP              0 ****  ****    0 ROOT
