@<TRIPOS>MOLECULE
ACT
    7     6     1     0     0
SMALL
bcc


@<TRIPOS>ATOM
      1 C           0.0120   -0.0010    0.0190 c         1 ACT      0.901600
      2 O           1.2780    0.0050   -0.0190 o         1 ACT     -0.861300
      3 OXT        -0.6530    0.0050    1.0970 o         1 ACT     -0.861300
      4 CH3        -0.7530   -0.0080   -1.3030 c3        1 ACT     -0.200100
      5 H1         -1.7330   -0.5230   -1.1820 hc        1 ACT      0.007033
      6 H2         -0.9370    1.0440   -1.6220 hc        1 ACT      0.007033
      7 H3         -0.1590   -0.5230   -2.0920 hc        1 ACT      0.007033
@<TRIPOS>BOND
     1    1    2 1   
     2    1    3 1   
     3    1    4 1   
     4    4    5 1   
     5    4    6 1   
     6    4    7 1   
@<TRIPOS>SUBSTRUCTURE
     1 ACT         1 TEMP              0 ****  ****    0 ROOT
