@<TRIPOS>MOLECULE
ACT
    7     6     1     0     0
SMALL
bcc


@<TRIPOS>ATOM
      1 C          -0.0930   -0.0000   -0.0010 c         1 ACT      0.901600
      2 O          -0.6940    1.1150    0.0050 o         1 ACT     -0.861300
      3 OXT        -0.6940   -1.1150    0.0050 o         1 ACT     -0.861300
      4 CH3         1.4340    0.0000   -0.0080 c3        1 ACT     -0.200100
      5 H1          1.8030    0.0000    1.0440 hc        1 ACT      0.007033
      6 H2          1.8200   -0.9090   -0.5230 hc        1 ACT      0.007033
      7 H3          1.8200    0.9090   -0.5230 hc        1 ACT      0.007033
@<TRIPOS>BOND
     1    1    2 1   
     2    1    3 1   
     3    1    4 1   
     4    4    5 1   
     5    4    6 1   
     6    4    7 1   
@<TRIPOS>SUBSTRUCTURE
     1 ACT         1 TEMP              0 ****  ****    0 ROOT
