@<TRIPOS>MOLECULE
ACU
    7     6     1     0     0
SMALL
bcc


@<TRIPOS>ATOM
      1 CA          0.0170    0.0140    0.0010 c3        1 ACU     -0.221100
      2 C           1.5060   -0.0240    0.0380 c         1 ACU      0.561900
      3 O           2.1800    0.5630    0.8850 o         1 ACU     -0.526100
      4 HA         -0.3970    0.6360    0.8320 hc        1 ACU      0.065033
      5 HA1        -0.3220    0.4410   -0.9740 hc        1 ACU      0.065033
      6 HA2        -0.3850   -1.0250    0.0920 hc        1 ACU      0.065033
      7 H           1.9860   -0.6280   -0.7650 h4        1 ACU     -0.009800
@<TRIPOS>BOND
     1    1    2 1   
     2    1    4 1   
     3    1    5 1   
     4    1    6 1   
     5    2    3 2   
     6    2    7 1   
@<TRIPOS>SUBSTRUCTURE
     1 ACU         1 TEMP              0 ****  ****    0 ROOT
