@<TRIPOS>MOLECULE
ACU
    7     6     1     0     0
SMALL
bcc


@<TRIPOS>ATOM
      1 CA         -0.6660    0.0000   -0.0300 c3        1 ACU     -0.221100
      2 C           0.8470    0.0000   -0.0300 c         1 ACU      0.563900
      3 O           1.4560    0.0000    1.0240 o         1 ACU     -0.528100
      4 HA         -0.9910   -0.7970    0.4300 hc        1 ACU      0.065033
      5 HA1        -0.9910    0.7970    0.4300 hc        1 ACU      0.065033
      6 HA2        -0.9910    0.0000   -0.9500 hc        1 ACU      0.065033
      7 H           1.3350   -0.0000   -0.8750 h4        1 ACU     -0.008800
@<TRIPOS>BOND
     1    1    2 1   
     2    1    4 1   
     3    1    5 1   
     4    1    6 1   
     5    2    3 2   
     6    2    7 1   
@<TRIPOS>SUBSTRUCTURE
     1 ACU         1 TEMP              0 ****  ****    0 ROOT
