@<TRIPOS>MOLECULE
ACU
    7     6     1     0     0
SMALL
bcc


@<TRIPOS>ATOM
      1 CA          1.2300   -0.1530    0.0000 c3        1 ACU     -0.221100
      2 C          -0.1430    0.4270   -0.0000 c         1 ACU      0.563900
      3 O          -1.1660   -0.2600    0.0000 o         1 ACU     -0.528100
      4 HA          1.3720   -0.7950    0.9050 hc        1 ACU      0.065033
      5 HA1         1.3720   -0.7950   -0.9050 hc        1 ACU      0.065033
      6 HA2         2.0040    0.6490    0.0000 hc        1 ACU      0.065033
      7 H          -0.1980    1.5390   -0.0000 h4        1 ACU     -0.008800
@<TRIPOS>BOND
     1    1    2 1   
     2    1    4 1   
     3    1    5 1   
     4    1    6 1   
     5    2    3 2   
     6    2    7 1   
@<TRIPOS>SUBSTRUCTURE
     1 ACU         1 TEMP              0 ****  ****    0 ROOT
