@<TRIPOS>MOLECULE
ACU
    7     6     1     0     0
SMALL
bcc


@<TRIPOS>ATOM
      1 CA          0.0180   -0.0410   -0.0100 c3        1 ACU     -0.221100
      2 C           1.5040    0.0490    0.0540 c         1 ACU      0.561900
      3 O           2.1180    0.4780    1.0310 o         1 ACU     -0.526100
      4 HA         -0.4540    0.3270    0.9320 hc        1 ACU      0.065033
      5 HA1        -0.3570    0.5720   -0.8660 hc        1 ACU      0.065033
      6 HA2        -0.2850   -1.1040   -0.1760 hc        1 ACU      0.065033
      7 H           2.0410   -0.3030   -0.8570 h4        1 ACU     -0.009800
@<TRIPOS>BOND
     1    1    2 1   
     2    1    4 1   
     3    1    5 1   
     4    1    6 1   
     5    2    3 2   
     6    2    7 1   
@<TRIPOS>SUBSTRUCTURE
     1 ACU         1 TEMP              0 ****  ****    0 ROOT
