@<TRIPOS>MOLECULE
ACV
   47    46     1     0     0
SMALL
bcc


@<TRIPOS>ATOM
      1 C1         -0.3010    0.9440   -6.9470 c         1 ACV      0.886600
      2 C2          0.3860    0.7360   -5.5570 c3        1 ACV      0.022500
      3 C3         -0.6760    0.2730   -4.5580 c3        1 ACV     -0.065400
      4 C4         -0.0760   -0.2410   -3.2660 c3        1 ACV     -0.073400
      5 C7         -1.1570   -0.8000   -2.3630 c3        1 ACV     -0.150400
      6 C10        -0.5910   -1.4230   -1.1010 c         1 ACV      0.660100
      7 N11        -0.0270   -0.5810   -0.1640 n         1 ACV     -0.560900
      8 C12         0.3520   -1.0180    1.1570 c3        1 ACV      0.024700
      9 C13        -0.1300   -0.0030    2.2420 c         1 ACV      0.631100
     10 N14         1.1580    1.8820   -5.0910 n3        1 ACV     -0.891800
     11 O15        -0.6120   -2.6610   -0.9190 o         1 ACV     -0.645100
     12 C16         1.8680   -1.1540    1.3390 c3        1 ACV      0.009700
     13 S17         2.5690   -2.6240    0.6380 sh        1 ACV     -0.444900
     14 O18        -0.2800    1.2050    1.9410 o         1 ACV     -0.655100
     15 O19        -1.0080    0.0020   -7.4010 o         1 ACV     -0.848300
     16 O20        -0.0950    2.0330   -7.5590 o         1 ACV     -0.848300
     17 N29        -0.3720   -0.5100    3.4810 n         1 ACV     -0.514900
     18 C30        -0.6830    0.2970    4.6420 c3        1 ACV     -0.028300
     19 C31        -1.1280   -0.6160    5.8440 c         1 ACV      0.917600
     20 C32         0.4840    1.2160    5.0730 c3        1 ACV     -0.068700
     21 C33        -0.0050    2.1970    6.1170 c3        1 ACV     -0.087600
     22 C37         1.6610    0.4170    5.5890 c3        1 ACV     -0.087600
     23 O42        -1.9550   -0.1170    6.6540 o         1 ACV     -0.832800
     24 O43        -0.6410   -1.7780    5.9320 o         1 ACV     -0.832800
     25 H2          1.1260   -0.1050   -5.6970 h1        1 ACV      0.042700
     26 H31        -1.2640   -0.5420   -5.0610 hc        1 ACV      0.047200
     27 H32A       -1.3860    1.1110   -4.3360 hc        1 ACV      0.047200
     28 H41         0.4700    0.5870   -2.7420 hc        1 ACV      0.046700
     29 H42         0.6750   -1.0430   -3.4940 hc        1 ACV      0.046700
     30 H71        -1.7240   -1.6030   -2.9050 hc        1 ACV      0.065700
     31 H72        -1.8840    0.0090   -2.0900 hc        1 ACV      0.065700
     32 HNB        -0.0810    0.4050   -0.2980 hn        1 ACV      0.334500
     33 H12        -0.1240   -2.0300    1.3420 h1        1 ACV      0.099700
     34 HNE1        1.6110    2.2830   -5.8970 hn        1 ACV      0.330300
     35 HNE2        0.5210    2.5810   -4.7500 hn        1 ACV      0.330300
     36 H161        2.3930   -0.2630    0.9180 h1        1 ACV      0.081200
     37 H162        2.1070   -1.2150    2.4320 h1        1 ACV      0.081200
     38 HS7         1.6950   -2.8650   -0.3400 hs        1 ACV      0.254800
     39 HNT        -0.1850   -1.4710    3.6790 hn        1 ACV      0.335500
     40 H30        -1.5520    0.9660    4.3750 h1        1 ACV      0.059700
     41 H32         0.8180    1.8030    4.1680 hc        1 ACV      0.037700
     42 H331        0.8460    2.8050    6.5080 hc        1 ACV      0.030200
     43 H332       -0.7600    2.8880    5.6710 hc        1 ACV      0.030200
     44 H333       -0.4900    1.6490    6.9640 hc        1 ACV      0.030200
     45 H371        1.3230   -0.3010    6.3780 hc        1 ACV      0.030200
     46 H372        2.1280   -0.1700    4.7610 hc        1 ACV      0.030200
     47 H373        2.4370    1.0960    6.0190 hc        1 ACV      0.030200
@<TRIPOS>BOND
     1    1    2 1   
     2    1   15 1   
     3    1   16 1   
     4    2    3 1   
     5    2   10 1   
     6    2   25 1   
     7    3    4 1   
     8    3   26 1   
     9    3   27 1   
    10    4    5 1   
    11    4   28 1   
    12    4   29 1   
    13    5    6 1   
    14    5   30 1   
    15    5   31 1   
    16    6    7 1   
    17    6   11 2   
    18    7    8 1   
    19    7   32 1   
    20    8    9 1   
    21    8   12 1   
    22    8   33 1   
    23    9   14 2   
    24    9   17 1   
    25   10   34 1   
    26   10   35 1   
    27   12   13 1   
    28   12   36 1   
    29   12   37 1   
    30   13   38 1   
    31   17   18 1   
    32   17   39 1   
    33   18   19 1   
    34   18   20 1   
    35   18   40 1   
    36   19   23 1   
    37   19   24 1   
    38   20   21 1   
    39   20   22 1   
    40   20   41 1   
    41   21   42 1   
    42   21   43 1   
    43   21   44 1   
    44   22   45 1   
    45   22   46 1   
    46   22   47 1   
@<TRIPOS>SUBSTRUCTURE
     1 ACV         1 TEMP              0 ****  ****    0 ROOT
