@<TRIPOS>MOLECULE
ACV
   50    49     1     0     0
SMALL
bcc


@<TRIPOS>ATOM
      1 C1          3.2760    0.2840    2.6800 c         1 ACV      0.894600
      2 C2          2.8070   -0.3520    1.3350 c3        1 ACV     -0.020500
      3 C3          3.9910   -0.4600    0.3650 c3        1 ACV     -0.083400
      4 C4          5.3170   -0.6380    1.0880 c3        1 ACV     -0.083400
      5 C7          5.9830    0.7000    1.3760 c3        1 ACV     -0.166400
      6 C10         6.7550    0.7020    2.6690 c         1 ACV      0.575100
      7 N11         5.9550    0.8940    3.9190 ny        1 ACV     -0.701800
      8 C12         6.7720    1.2030    5.1350 c3        1 ACV      0.061500
      9 C13         7.3530   -0.1240    5.6960 c         1 ACV      0.639100
     10 N14         1.6930    0.4830    0.7810 nz        1 ACV     -0.827600
     11 O15         7.9720    0.5940    2.7780 o         1 ACV     -0.469100
     12 C16         5.9290    1.8640    6.2240 c3        1 ACV     -0.041300
     13 S17         5.0820    3.2590    5.5530 sh        1 ACV     -0.335900
     14 O18         6.5970   -0.9010    6.3010 o         1 ACV     -0.542100
     15 O19         3.5570   -0.4990    3.6190 o         1 ACV     -0.792300
     16 O20         3.4100    1.5410    2.7130 o         1 ACV     -0.792300
     17 N29         8.6800   -0.3660    5.4580 ns        1 ACV     -0.550900
     18 C30         9.2810   -1.6560    5.7180 c3        1 ACV      0.010700
     19 C31         9.1350   -2.6090    4.5280 c         1 ACV      0.600100
     20 C32        10.7670   -1.5540    6.1330 c3        1 ACV     -0.070700
     21 C33        11.2060   -2.8790    6.7250 c3        1 ACV     -0.109100
     22 C37        11.6620   -1.1600    4.9800 c3        1 ACV     -0.109100
     23 O42         8.8530   -3.8010    4.6110 o         1 ACV     -0.454000
     24 O43         9.2720   -2.1660    3.2410 oh        1 ACV     -0.587100
     25 H2          2.3970   -1.3830    1.5480 hx        1 ACV      0.124700
     26 H31         4.0540    0.4440   -0.2980 hc        1 ACV      0.067200
     27 H32A        3.8250   -1.3510   -0.2990 hc        1 ACV      0.067200
     28 H41         5.1600   -1.2300    2.0300 hc        1 ACV      0.089700
     29 H42         6.0000   -1.2470    0.4350 hc        1 ACV      0.089700
     30 H71         5.2180    1.5280    1.4020 hc        1 ACV      0.114700
     31 H72         6.7210    0.9400    0.5590 hc        1 ACV      0.114700
     32 HNB         5.2550    1.6760    3.7770 hn        1 ACV      0.515300
     33 H12         7.5900    1.9190    4.8200 hx        1 ACV      0.116700
     34 HNE1        0.8260    0.2630    1.2760 hn        1 ACV      0.459467
     35 HNE2        1.9300    1.4740    0.9550 hn        1 ACV      0.459467
     36 H161        6.6270    2.2210    7.0260 h1        1 ACV      0.125200
     37 H162        5.2370    1.1180    6.6930 h1        1 ACV      0.125200
     38 HS7         3.8210    2.8910    5.7580 hs        1 ACV      0.244800
     39 HNT         9.6550   -1.2780    3.2240 ho        1 ACV      0.428000
     40 H30         8.7100   -2.1390    6.5750 h1        1 ACV      0.131700
     41 H32        10.8470   -0.7660    6.9370 hc        1 ACV      0.071700
     42 H331       11.0360   -3.7130    6.0010 hc        1 ACV      0.051867
     43 H332       12.2930   -2.8390    6.9760 hc        1 ACV      0.051867
     44 H333       10.6340   -3.0990    7.6590 hc        1 ACV      0.051867
     45 H371       12.7150   -1.0520    5.3410 hc        1 ACV      0.051867
     46 H372       11.6500   -1.9420    4.1810 hc        1 ACV      0.051867
     47 H373       11.3500   -0.1850    4.5340 hc        1 ACV      0.051867
     48 H112        5.3850    0.0340    4.0970 hn        1 ACV      0.515300
     49 H143        1.5720    0.3240   -0.2200 hn        1 ACV      0.459467
     50 H292        9.2240    0.3050    4.9660 hn        1 ACV      0.328500
@<TRIPOS>BOND
     1    1    2 1   
     2    1   15 1   
     3    1   16 1   
     4    2    3 1   
     5    2   10 1   
     6    2   25 1   
     7    3    4 1   
     8    3   26 1   
     9    3   27 1   
    10    4    5 1   
    11    4   28 1   
    12    4   29 1   
    13    5    6 1   
    14    5   30 1   
    15    5   31 1   
    16    6    7 1   
    17    6   11 2   
    18    7    8 1   
    19    7   32 1   
    20    7   48 1   
    21    8    9 1   
    22    8   12 1   
    23    8   33 1   
    24    9   14 2   
    25    9   17 1   
    26   10   34 1   
    27   10   35 1   
    28   10   49 1   
    29   12   13 1   
    30   12   36 1   
    31   12   37 1   
    32   13   38 1   
    33   17   18 1   
    34   17   50 1   
    35   18   19 1   
    36   18   20 1   
    37   18   40 1   
    38   19   23 2   
    39   19   24 1   
    40   20   21 1   
    41   20   22 1   
    42   20   41 1   
    43   21   42 1   
    44   21   43 1   
    45   21   44 1   
    46   22   45 1   
    47   22   46 1   
    48   22   47 1   
    49   24   39 1   
@<TRIPOS>SUBSTRUCTURE
     1 ACV         1 TEMP              0 ****  ****    0 ROOT
