@<TRIPOS>MOLECULE
ACV
   50    49     1     0     0
SMALL
bcc


@<TRIPOS>ATOM
      1 C1          3.2810    0.3090    2.6870 c         1 ACV      0.894600
      2 C2          2.8240   -0.2700    1.3120 c3        1 ACV     -0.020500
      3 C3          4.0130   -0.3270    0.3450 c3        1 ACV     -0.083400
      4 C4          5.3370   -0.5270    1.0660 c3        1 ACV     -0.083400
      5 C7          5.9930    0.8000    1.4170 c3        1 ACV     -0.166400
      6 C10         6.7570    0.7510    2.7130 c         1 ACV      0.575100
      7 N11         5.9490    0.8820    3.9660 n4        1 ACV     -0.701800
      8 C12         6.7580    1.1420    5.1980 c3        1 ACV      0.061500
      9 C13         7.3430   -0.2040    5.7050 c         1 ACV      0.639100
     10 N14         1.7070    0.5820    0.7890 n4        1 ACV     -0.827600
     11 O15         7.9740    0.6450    2.8240 o         1 ACV     -0.469100
     12 C16         5.9050    1.7500    6.3110 c3        1 ACV     -0.041300
     13 S17         5.0530    3.1680    5.6960 sh        1 ACV     -0.335900
     14 O18         6.5890   -1.0110    6.2720 o         1 ACV     -0.542100
     15 O19         3.5630   -0.5130    3.5910 o         1 ACV     -0.792300
     16 O20         3.4060    1.5650    2.7760 o         1 ACV     -0.792300
     17 N29         8.6730   -0.4290    5.4620 n         1 ACV     -0.550900
     18 C30         9.2800   -1.7260    5.6680 c3        1 ACV      0.010700
     19 C31         9.1450   -2.6270    4.4360 c         1 ACV      0.600100
     20 C32        10.7630   -1.6350    6.0950 c3        1 ACV     -0.070700
     21 C33        11.2060   -2.9820    6.6300 c3        1 ACV     -0.109100
     22 C37        11.6620   -1.1850    4.9650 c3        1 ACV     -0.109100
     23 O42         8.8680   -3.8220    4.4650 o         1 ACV     -0.454000
     24 O43         9.2860   -2.1260    3.1710 oh        1 ACV     -0.587100
     25 H2          2.4200   -1.3120    1.4760 hx        1 ACV      0.124700
     26 H31         4.0740    0.6070   -0.2770 hc        1 ACV      0.067200
     27 H32A        3.8570   -1.1880   -0.3590 hc        1 ACV      0.067200
     28 H41         6.0280   -1.1020    0.3900 hc        1 ACV      0.089700
     29 H42         5.1790   -1.1620    1.9800 hc        1 ACV      0.089700
     30 H71         5.2210    1.6220    1.4760 hc        1 ACV      0.114700
     31 H72         6.7320    1.0810    0.6150 hc        1 ACV      0.114700
     32 HNB         5.2450    1.6650    3.8540 hn        1 ACV      0.515300
     33 H12         7.5730    1.8760    4.9200 hx        1 ACV      0.116700
     34 HNE1        1.9360    1.5660    1.0080 hn        1 ACV      0.459467
     35 HNE2        1.5920    0.4670   -0.2180 hn        1 ACV      0.459467
     36 H161        5.2150    0.9810    6.7430 h1        1 ACV      0.125200
     37 H162        6.5960    2.0760    7.1310 h1        1 ACV      0.125200
     38 HS7         3.7940    2.7840    5.8780 hs        1 ACV      0.244800
     39 HNT         9.6650   -1.2370    3.1950 ho        1 ACV      0.428000
     40 H30         8.7080   -2.2500    6.5000 h1        1 ACV      0.131700
     41 H32        10.8350   -0.8830    6.9330 hc        1 ACV      0.071700
     42 H331       10.6310   -3.2470    7.5500 hc        1 ACV      0.051867
     43 H332       11.0440   -3.7840    5.8680 hc        1 ACV      0.051867
     44 H333       12.2930   -2.9480    6.8870 hc        1 ACV      0.051867
     45 H371       11.6590   -1.9310    4.1320 hc        1 ACV      0.051867
     46 H372       12.7120   -1.0870    5.3360 hc        1 ACV      0.051867
     47 H373       11.3460   -0.1930    4.5610 hc        1 ACV      0.051867
     48 H112        5.3840    0.0110    4.1020 hn        1 ACV      0.515300
     49 H143        0.8390    0.3340    1.2690 hn        1 ACV      0.459467
     50 H292        9.2160    0.2660    5.0030 hn        1 ACV      0.328500
@<TRIPOS>BOND
     1    1    2 1   
     2    1   15 1   
     3    1   16 1   
     4    2    3 1   
     5    2   10 1   
     6    2   25 1   
     7    3    4 1   
     8    3   26 1   
     9    3   27 1   
    10    4    5 1   
    11    4   28 1   
    12    4   29 1   
    13    5    6 1   
    14    5   30 1   
    15    5   31 1   
    16    6    7 1   
    17    6   11 2   
    18    7    8 1   
    19    7   32 1   
    20    7   48 1   
    21    8    9 1   
    22    8   12 1   
    23    8   33 1   
    24    9   14 2   
    25    9   17 1   
    26   10   34 1   
    27   10   35 1   
    28   10   49 1   
    29   12   13 1   
    30   12   36 1   
    31   12   37 1   
    32   13   38 1   
    33   17   18 1   
    34   17   50 1   
    35   18   19 1   
    36   18   20 1   
    37   18   40 1   
    38   19   23 2   
    39   19   24 1   
    40   20   21 1   
    41   20   22 1   
    42   20   41 1   
    43   21   42 1   
    44   21   43 1   
    45   21   44 1   
    46   22   45 1   
    47   22   46 1   
    48   22   47 1   
    49   24   39 1   
@<TRIPOS>SUBSTRUCTURE
     1 ACV         1 TEMP              0 ****  ****    0 ROOT
