@<TRIPOS>MOLECULE
ACV
   50    49     1     0     0
SMALL
bcc


@<TRIPOS>ATOM
      1 C1          3.3060    0.3150    2.6100 c         1 ACV      0.894600
      2 C2          2.8890   -0.2300    1.2080 c3        1 ACV     -0.020500
      3 C3          4.1040   -0.2520    0.2720 c3        1 ACV     -0.083400
      4 C4          5.4100   -0.4630    1.0220 c3        1 ACV     -0.083400
      5 C7          6.0460    0.8590    1.4260 c3        1 ACV     -0.166400
      6 C10         6.7770    0.7780    2.7400 c         1 ACV      0.575100
      7 N11         5.9350    0.8700    3.9740 n4        1 ACV     -0.701800
      8 C12         6.7090    1.1020    5.2340 c3        1 ACV      0.061500
      9 C13         7.2920   -0.2540    5.7190 c         1 ACV      0.639100
     10 N14         1.7800    0.6280    0.6790 n4        1 ACV     -0.827600
     11 O15         7.9910    0.6780    2.8800 o         1 ACV     -0.469100
     12 C16         5.8230    1.6730    6.3400 c3        1 ACV     -0.041300
     13 S17         4.9770    3.1010    5.7420 sh        1 ACV     -0.335900
     14 O18         6.5290   -1.0810    6.2430 o         1 ACV     -0.542100
     15 O19         3.5700   -0.5300    3.4980 o         1 ACV     -0.792300
     16 O20         3.4200    1.5680    2.7360 o         1 ACV     -0.792300
     17 N29         8.6300   -0.4620    5.5060 n         1 ACV     -0.550900
     18 C30         9.2420   -1.7590    5.6940 c3        1 ACV      0.010700
     19 C31         9.1460   -2.6270    4.4350 c         1 ACV      0.600100
     20 C32        10.7130   -1.6680    6.1620 c3        1 ACV     -0.070700
     21 C33        11.1520   -3.0260    6.6730 c3        1 ACV     -0.109100
     22 C37        11.6370   -1.1820    5.0690 c3        1 ACV     -0.109100
     23 O42         8.8790   -3.8250    4.4250 o         1 ACV     -0.454000
     24 O43         9.3170   -2.0920    3.1880 oh        1 ACV     -0.587100
     25 H2          2.4900   -1.2790    1.3330 hx        1 ACV      0.124700
     26 H31         4.1740    0.6980   -0.3230 hc        1 ACV      0.067200
     27 H32A        3.9730   -1.0950   -0.4600 hc        1 ACV      0.067200
     28 H41         6.1230   -1.0150    0.3490 hc        1 ACV      0.089700
     29 H42         5.2330   -1.1240    1.9140 hc        1 ACV      0.089700
     30 H71         6.8050    1.1660    0.6520 hc        1 ACV      0.114700
     31 H72         5.2680    1.6730    1.4860 hc        1 ACV      0.114700
     32 HNB         5.3730   -0.0090    4.0720 hn        1 ACV      0.515300
     33 H12         7.5260    1.8490    4.9970 hx        1 ACV      0.116700
     34 HNE1        0.9020    0.3610    1.1290 hn        1 ACV      0.459467
     35 HNE2        1.6920    0.5400   -0.3330 hn        1 ACV      0.459467
     36 H161        5.1280    0.8870    6.7320 h1        1 ACV      0.125200
     37 H162        6.4900    1.9810    7.1870 h1        1 ACV      0.125200
     38 HS7         3.7160    2.7030    5.8800 hs        1 ACV      0.244800
     39 HNT         9.6870   -1.2000    3.2460 ho        1 ACV      0.428000
     40 H30         8.6520   -2.3090    6.4960 h1        1 ACV      0.131700
     41 H32        10.7560   -0.9390    7.0210 hc        1 ACV      0.071700
     42 H331       11.0170   -3.8090    5.8860 hc        1 ACV      0.051867
     43 H332       12.2310   -2.9910    6.9600 hc        1 ACV      0.051867
     44 H333       10.5550   -3.3190    7.5700 hc        1 ACV      0.051867
     45 H371       12.6760   -1.0860    5.4700 hc        1 ACV      0.051867
     46 H372       11.3240   -0.1820    4.6830 hc        1 ACV      0.051867
     47 H373       11.6610   -1.9050    4.2160 hc        1 ACV      0.051867
     48 H112        5.2290    1.6510    3.8650 hn        1 ACV      0.515300
     49 H143        1.9960    1.6070    0.9310 hn        1 ACV      0.459467
     50 H292        9.1790    0.2500    5.0810 hn        1 ACV      0.328500
@<TRIPOS>BOND
     1    1    2 1   
     2    1   15 1   
     3    1   16 1   
     4    2    3 1   
     5    2   10 1   
     6    2   25 1   
     7    3    4 1   
     8    3   26 1   
     9    3   27 1   
    10    4    5 1   
    11    4   28 1   
    12    4   29 1   
    13    5    6 1   
    14    5   30 1   
    15    5   31 1   
    16    6    7 1   
    17    6   11 2   
    18    7    8 1   
    19    7   32 1   
    20    7   48 1   
    21    8    9 1   
    22    8   12 1   
    23    8   33 1   
    24    9   14 2   
    25    9   17 1   
    26   10   34 1   
    27   10   35 1   
    28   10   49 1   
    29   12   13 1   
    30   12   36 1   
    31   12   37 1   
    32   13   38 1   
    33   17   18 1   
    34   17   50 1   
    35   18   19 1   
    36   18   20 1   
    37   18   40 1   
    38   19   23 2   
    39   19   24 1   
    40   20   21 1   
    41   20   22 1   
    42   20   41 1   
    43   21   42 1   
    44   21   43 1   
    45   21   44 1   
    46   22   45 1   
    47   22   46 1   
    48   22   47 1   
    49   24   39 1   
@<TRIPOS>SUBSTRUCTURE
     1 ACV         1 TEMP              0 ****  ****    0 ROOT
