@<TRIPOS>MOLECULE
ACV
   47    45     1     0     0
SMALL
bcc


@<TRIPOS>ATOM
      1 C1         -4.3960    5.3790    1.9480 c1        1 ACV      0.773000
      2 C2         -4.7070    4.2260    1.0220 c2        1 ACV      0.134200
      3 C3         -3.4500    3.8100    0.2950 c3        1 ACV     -0.140700
      4 C4         -3.1550    2.3550    0.5880 c3        1 ACV     -0.074400
      5 C7         -2.0390    1.8750   -0.3150 c3        1 ACV     -0.151400
      6 C10        -1.4390    0.6080    0.2550 c         1 ACV      0.662100
      7 N11        -0.7000   -0.2660   -0.5830 n         1 ACV     -0.562900
      8 C12        -0.1140   -1.4410   -0.0420 c3        1 ACV      0.037700
      9 C13         1.0890   -1.8320   -0.8700 c         1 ACV      0.626100
     10 N14        -5.6910    4.6290    0.0770 nh        1 ACV     -0.478100
     11 O15        -1.5800    0.3460    1.4330 o         1 ACV     -0.632100
     12 C16        -1.1260   -2.5650   -0.0630 c3        1 ACV     -0.006300
     13 S17        -1.2270   -3.3000    1.5470 sh        1 ACV     -0.414900
     14 O18         0.9510   -2.1310   -2.0390 o         1 ACV     -0.655100
     15 O19        -3.8340    6.4120    1.5000 o         1 ACV     -0.816500
     16 O20        -4.6940    5.3040    3.1690 o         1 ACV     -0.816500
     17 N29         2.3740   -1.8900   -0.2710 n         1 ACV     -0.518900
     18 C30         3.4530   -2.5020   -0.9620 c3        1 ACV     -0.037300
     19 C31         3.5730   -1.8990   -2.3440 c         1 ACV      0.911600
     20 C32         4.7370   -2.2720   -0.1970 c3        1 ACV     -0.061700
     21 C33         4.7620   -3.1620    1.0260 c3        1 ACV     -0.091600
     22 C37         5.9180   -2.6000   -1.0840 c3        1 ACV     -0.091600
     23 O42         3.5600   -2.6430   -3.3590 o         1 ACV     -0.830800
     24 O43         3.7130   -0.6540   -2.4770 o         1 ACV     -0.830800
     25 H2         -5.0460    3.4710    1.5440 h4        1 ACV     -0.048200
     26 H31        -3.5750    3.9300   -0.6680 hc        1 ACV      0.047200
     27 H32A       -2.7010    4.3620    0.5970 hc        1 ACV      0.047200
     28 H41        -2.8820    2.2600    1.5220 hc        1 ACV      0.044700
     29 H42        -3.9580    1.8210    0.4260 hc        1 ACV      0.044700
     30 H71        -1.3490    2.5650   -0.3750 hc        1 ACV      0.065200
     31 H72        -2.3980    1.6930   -1.2070 hc        1 ACV      0.065200
     32 HNB        -0.5990   -0.0720   -1.4680 hn        1 ACV      0.330500
     33 H12         0.1660   -1.2720    0.8790 h1        1 ACV      0.103700
     34 HNE1       -6.4470    4.1250    0.1900 hn        1 ACV      0.175200
     35 HNE2       -5.8920    5.5130    0.2040 hn        1 ACV      0.175200
     36 H161       -0.8500   -3.2410   -0.7130 h1        1 ACV      0.084200
     37 H162       -2.0020   -2.2090   -0.3150 h1        1 ACV      0.084200
     38 HS7        -1.8420   -4.3020    1.4830 hs        1 ACV      0.228800
     39 HNT         2.5020   -1.5540    0.5670 hn        1 ACV      0.336500
     40 H30         3.2870   -3.4620   -1.0390 h1        1 ACV      0.065700
     41 H32         4.7880   -1.3370    0.0790 hc        1 ACV      0.046700
     42 H331        4.6150   -4.0930    0.7550 hc        1 ACV      0.028367
     43 H332        5.6330   -3.0840    1.4680 hc        1 ACV      0.028367
     44 H333        4.0540   -2.8860    1.6450 hc        1 ACV      0.028367
     45 H371        6.7190   -2.7130   -0.5320 hc        1 ACV      0.028367
     46 H372        5.7380   -3.4300   -1.5740 hc        1 ACV      0.028367
     47 H373        6.0610   -1.8690   -1.7220 hc        1 ACV      0.028367
@<TRIPOS>BOND
     1    1   15 2   
     2    1   16 2   
     3    2    3 1   
     4    2   10 2   
     5    2   25 1   
     6    3    4 1   
     7    3   26 1   
     8    3   27 1   
     9    4    5 1   
    10    4   28 1   
    11    4   29 1   
    12    5    6 1   
    13    5   30 1   
    14    5   31 1   
    15    6    7 1   
    16    6   11 2   
    17    7    8 1   
    18    7   32 1   
    19    8    9 1   
    20    8   12 1   
    21    8   33 1   
    22    9   14 2   
    23    9   17 1   
    24   10   34 1   
    25   10   35 1   
    26   12   13 1   
    27   12   36 1   
    28   12   37 1   
    29   13   38 1   
    30   17   18 1   
    31   17   39 1   
    32   18   19 1   
    33   18   20 1   
    34   18   40 1   
    35   19   23 1   
    36   19   24 1   
    37   20   21 1   
    38   20   22 1   
    39   20   41 1   
    40   21   42 1   
    41   21   43 1   
    42   21   44 1   
    43   22   45 1   
    44   22   46 1   
    45   22   47 1   
@<TRIPOS>SUBSTRUCTURE
     1 ACV         1 TEMP              0 ****  ****    0 ROOT
