@<TRIPOS>MOLECULE
ACW
   48    47     1     0     0
SMALL
bcc


@<TRIPOS>ATOM
      1 C1         -4.6220    5.2690   -3.2610 c1        1 ACW      0.773000
      2 C2         -3.1590    5.0180   -2.9640 c2        1 ACW      0.134200
      3 C3         -3.0340    4.1800   -1.6970 c3        1 ACW     -0.139700
      4 C4         -1.8810    3.1720   -1.8600 c3        1 ACW     -0.074400
      5 C7         -1.7810    2.2980   -0.5960 c3        1 ACW     -0.151400
      6 C10        -0.5090    1.4370   -0.6670 c         1 ACW      0.661100
      7 N11        -0.1160    0.6340    0.4670 n         1 ACW     -0.561900
      8 C12         1.1030   -0.1000    0.4320 c3        1 ACW      0.036700
      9 C13         1.0060   -1.2910    1.3740 c         1 ACW      0.628100
     10 N14        -2.4940    6.2580   -2.7780 nh        1 ACW     -0.478100
     11 O15         0.1430    1.3970   -1.6960 o         1 ACW     -0.632100
     12 C16         2.2440    0.7960    0.8670 c3        1 ACW     -0.007300
     13 S17         3.4140    0.9560   -0.4660 sh        1 ACW     -0.417900
     14 O18         0.5710   -1.1420    2.5040 o         1 ACW     -0.658100
     15 O19        -5.1170    4.8880   -4.3590 o         1 ACW     -0.816500
     16 O20        -5.3340    5.9040   -2.4330 o         1 ACW     -0.816500
     17 N29         1.4640   -2.5920    0.9430 n         1 ACW     -0.515900
     18 C30         1.7340   -3.8690    2.1280 c3        1 ACW     -0.011300
     19 C31         0.1200   -4.4220    2.7940 c         1 ACW      0.919600
     20 C32         2.0800   -4.4600    1.7860 cx        1 ACW     -0.088000
     21 C33         3.1720   -4.3720    1.6450 cx        1 ACW     -0.137900
     22 C37         1.3310   -5.2490    0.6920 c3        1 ACW     -0.062100
     23 O42        -0.9500   -4.0930    2.2100 o         1 ACW     -0.828300
     24 O43         0.0750   -5.0980    3.8610 o         1 ACW     -0.828300
     25 C40         2.7640   -5.0530    2.4130 cx        1 ACW     -0.137900
     26 H2         -2.7500    4.5370   -3.7160 h4        1 ACW     -0.048200
     27 H3C1       -2.8500    4.7680   -0.9320 hc        1 ACW      0.047700
     28 H3C2       -3.8750    3.6930   -1.5420 hc        1 ACW      0.047700
     29 H4C1       -1.0360    3.6590   -1.9890 hc        1 ACW      0.044700
     30 H4C2       -2.0530    2.6000   -2.6410 hc        1 ACW      0.044700
     31 H7C1       -2.5690    1.7130   -0.5380 hc        1 ACW      0.065700
     32 H7C2       -1.7420    2.8740    0.1990 hc        1 ACW      0.065700
     33 H11        -0.6490    0.6040    1.2150 hn        1 ACW      0.328500
     34 H12         1.2670   -0.4180   -0.4820 h1        1 ACW      0.102700
     35 H141       -3.1150    6.9260   -2.6760 hn        1 ACW      0.175200
     36 H142       -1.9690    6.4370   -3.5100 hn        1 ACW      0.175200
     37 H161        2.6900    0.4020    1.6480 h1        1 ACW      0.085200
     38 H162        1.8930    1.6820    1.1030 h1        1 ACW      0.085200
     39 H17         4.2770    1.6970   -0.1470 hs        1 ACW      0.230800
     40 H29         1.6490   -2.7420    0.0570 hn        1 ACW      0.337500
     41 H30         2.3000   -3.5300    2.8620 h1        1 ACW      0.066700
     42 H331        3.5810   -3.5420    1.9840 hc        1 ACW      0.063950
     43 H332        3.5360   -4.8060    0.8370 hc        1 ACW      0.063950
     44 H371        1.9050   -5.3330   -0.1040 hc        1 ACW      0.034033
     45 H372        1.1060   -6.1460    1.0300 hc        1 ACW      0.034033
     46 H373        0.5060   -4.7730    0.4520 hc        1 ACW      0.034033
     47 H401        2.8140   -6.0150    2.2020 hc        1 ACW      0.063950
     48 H402        2.8600   -4.7510    3.3470 hc        1 ACW      0.063950
@<TRIPOS>BOND
     1    1   15 2   
     2    1   16 2   
     3    2    3 1   
     4    2   10 2   
     5    2   26 1   
     6    3    4 1   
     7    3   27 1   
     8    3   28 1   
     9    4    5 1   
    10    4   29 1   
    11    4   30 1   
    12    5    6 1   
    13    5   31 1   
    14    5   32 1   
    15    6    7 1   
    16    6   11 2   
    17    7    8 1   
    18    7   33 1   
    19    8    9 1   
    20    8   12 1   
    21    8   34 1   
    22    9   14 2   
    23    9   17 1   
    24   10   35 1   
    25   10   36 1   
    26   12   13 1   
    27   12   37 1   
    28   12   38 1   
    29   13   39 1   
    30   17   18 1   
    31   17   40 1   
    32   18   19 1   
    33   18   20 1   
    34   18   41 1   
    35   19   23 1   
    36   19   24 1   
    37   20   21 1   
    38   20   22 1   
    39   20   25 1   
    40   21   25 1   
    41   21   42 1   
    42   21   43 1   
    43   22   44 1   
    44   22   45 1   
    45   22   46 1   
    46   25   47 1   
    47   25   48 1   
@<TRIPOS>SUBSTRUCTURE
     1 ACW         1 TEMP              0 ****  ****    0 ROOT
