@<TRIPOS>MOLECULE
ACW
   51    51     1     0     0
SMALL
bcc


@<TRIPOS>ATOM
      1 C1          3.5000   -0.0650    2.4040 c         1 ACW      0.893600
      2 C2          3.5310   -0.8090    1.0320 c3        1 ACW     -0.020500
      3 C3          4.8950   -0.6230    0.3560 c3        1 ACW     -0.082400
      4 C4          6.0270   -0.4930    1.3610 c3        1 ACW     -0.086400
      5 C7          6.3090    0.9620    1.7060 c3        1 ACW     -0.162400
      6 C10         6.7440    1.1540    3.1350 c         1 ACW      0.588100
      7 N11         5.6550    1.0720    4.1600 n4        1 ACW     -0.694800
      8 C12         6.0120    1.5950    5.5180 c3        1 ACW      0.057500
      9 C13         6.5650    0.4230    6.3710 c         1 ACW      0.636100
     10 N14         2.4090   -0.2810    0.1910 n4        1 ACW     -0.828600
     11 O15         7.8820    1.4000    3.5170 o         1 ACW     -0.469100
     12 C16         4.8040    2.2040    6.2280 c3        1 ACW     -0.039300
     13 S17         4.0100    3.3860    5.1880 sh        1 ACW     -0.336900
     14 O18         5.8110   -0.1980    7.1310 o         1 ACW     -0.524100
     15 O19         3.3500    1.1920    2.3730 o         1 ACW     -0.792300
     16 O20         3.6800   -0.7470    3.4390 o         1 ACW     -0.792300
     17 N29         7.9130    0.1270    6.2270 n         1 ACW     -0.516900
     18 C30         8.3130   -1.2650    6.2820 c3        1 ACW      0.041700
     19 C31         7.8920   -2.0030    5.0010 c         1 ACW      0.625100
     20 C32         9.8030   -1.4320    6.5160 cx        1 ACW     -0.163000
     21 C33        10.3160   -1.1660    7.9140 cx        1 ACW     -0.108900
     22 C37        10.6680   -1.0660    5.3560 c3        1 ACW     -0.078100
     23 O42         8.2940   -3.2740    4.7730 oh        1 ACW     -0.545100
     24 O43         7.1570   -1.5360    4.1200 o         1 ACW     -0.580000
     25 C40        10.2290   -2.5740    7.4180 cx        1 ACW     -0.108900
     26 H2          3.3450   -1.9080    1.2140 hx        1 ACW      0.121700
     27 H3C1        4.8920    0.2800   -0.3130 hc        1 ACW      0.062700
     28 H3C2        5.0930   -1.5190   -0.2930 hc        1 ACW      0.062700
     29 H4C1        6.9560   -0.9410    0.9140 hc        1 ACW      0.096200
     30 H4C2        5.7980   -1.1000    2.2810 hc        1 ACW      0.096200
     31 H7C1        7.1410    1.3530    1.0580 hc        1 ACW      0.110200
     32 H7C2        5.3960    1.5990    1.5170 hc        1 ACW      0.110200
     33 H11         5.3560    0.0720    4.2290 hn        1 ACW      0.513300
     34 H12         6.7990    2.3990    5.3870 hx        1 ACW      0.124700
     35 H141        1.5280   -0.6960    0.5020 hn        1 ACW      0.457800
     36 H142        2.5580   -0.4820   -0.7970 hn        1 ACW      0.457800
     37 H161        5.1830    2.7360    7.1400 h1        1 ACW      0.123700
     38 H162        4.1070    1.4010    6.5790 h1        1 ACW      0.123700
     39 H17         2.8370    2.7870    5.0030 hs        1 ACW      0.241800
     40 H29         8.4500    0.6970    5.6060 hn        1 ACW      0.325500
     41 H30         7.7410   -1.7540    7.1340 h1        1 ACW      0.122700
     42 H331       11.3080   -0.6920    8.0260 hc        1 ACW      0.088700
     43 H332        9.6030   -0.8210    8.6860 hc        1 ACW      0.088700
     44 H371       10.3630   -1.6380    4.4440 hc        1 ACW      0.052033
     45 H372       11.7390   -1.3020    5.5760 hc        1 ACW      0.052033
     46 H373       10.5940    0.0270    5.1350 hc        1 ACW      0.052033
     47 H401        9.4590   -3.2450    7.8420 hc        1 ACW      0.088700
     48 H402       11.1590   -3.1170    7.1680 hc        1 ACW      0.088700
     49 H112        4.8190    1.6130    3.8070 hn        1 ACW      0.513300
     50 H143        2.3640    0.7410    0.3410 hn        1 ACW      0.457800
     51 H292        8.8990   -3.5620    5.4790 ho        1 ACW      0.451000
@<TRIPOS>BOND
     1    1    2 1   
     2    1   15 1   
     3    1   16 1   
     4    2    3 1   
     5    2   10 1   
     6    2   26 1   
     7    3    4 1   
     8    3   27 1   
     9    3   28 1   
    10    4    5 1   
    11    4   29 1   
    12    4   30 1   
    13    5    6 1   
    14    5   31 1   
    15    5   32 1   
    16    6    7 1   
    17    6   11 2   
    18    7    8 1   
    19    7   33 1   
    20    7   49 1   
    21    8    9 1   
    22    8   12 1   
    23    8   34 1   
    24    9   14 2   
    25    9   17 1   
    26   10   35 1   
    27   10   36 1   
    28   10   50 1   
    29   12   13 1   
    30   12   37 1   
    31   12   38 1   
    32   13   39 1   
    33   17   18 1   
    34   17   40 1   
    35   18   19 1   
    36   18   20 1   
    37   18   41 1   
    38   19   23 1   
    39   19   24 2   
    40   20   21 1   
    41   20   22 1   
    42   20   25 1   
    43   21   25 1   
    44   21   42 1   
    45   21   43 1   
    46   22   44 1   
    47   22   45 1   
    48   22   46 1   
    49   23   51 1   
    50   25   47 1   
    51   25   48 1   
@<TRIPOS>SUBSTRUCTURE
     1 ACW         1 TEMP              0 ****  ****    0 ROOT
