@<TRIPOS>MOLECULE
ACW
   48    48     1     0     0
SMALL
bcc


@<TRIPOS>ATOM
      1 C1         -7.3250   -0.7240    0.2240 c         1 ACW      0.886600
      2 C2         -5.9270   -0.1070    0.5620 c3        1 ACW      0.022500
      3 C3         -4.8980   -0.6800   -0.4130 c3        1 ACW     -0.065400
      4 C4         -3.5800    0.0650   -0.3730 c3        1 ACW     -0.073400
      5 C7         -2.6390   -0.4600   -1.4390 c3        1 ACW     -0.150400
      6 C10        -1.3470    0.3320   -1.5080 c         1 ACW      0.661100
      7 N11        -0.4630    0.2140   -0.4540 n         1 ACW     -0.561900
      8 C12         0.8740    0.7540   -0.4850 c3        1 ACW      0.026700
      9 C13         1.9060   -0.2760    0.0740 c         1 ACW      0.636100
     10 N14        -5.5360   -0.2380    1.9600 n3        1 ACW     -0.891800
     11 O15        -1.0950    1.0850   -2.4740 o         1 ACW     -0.645100
     12 C16         1.0340    2.0250    0.3570 c3        1 ACW      0.010700
     13 S17         0.4400    3.5060   -0.4180 sh        1 ACW     -0.448900
     14 O18         1.5380   -1.1370    0.9070 o         1 ACW     -0.655100
     15 O19        -8.0030   -1.2220    1.1700 o         1 ACW     -0.848300
     16 O20        -7.7180   -0.6700   -0.9740 o         1 ACW     -0.848300
     17 N29         3.1810   -0.1620   -0.3840 n         1 ACW     -0.514900
     18 C30         4.2930   -0.9540    0.0950 c3        1 ACW     -0.006300
     19 C31         5.4410   -1.0210   -0.9850 c         1 ACW      0.922600
     20 C32         4.8800   -0.4270    1.3990 cx        1 ACW     -0.093000
     21 C33         5.6150   -1.4320    2.2530 cx        1 ACW     -0.136900
     22 C37         5.3800    0.9770    1.3340 c3        1 ACW     -0.064100
     23 O42         5.6520    0.0020   -1.6950 o         1 ACW     -0.829800
     24 O43         6.0720   -2.1060   -1.0600 o         1 ACW     -0.829800
     25 C40         4.2780   -0.9210    2.6950 cx        1 ACW     -0.136900
     26 H2         -6.0190    1.0010    0.3640 h1        1 ACW      0.042700
     27 H3C1       -5.3480   -0.6130   -1.4410 hc        1 ACW      0.047200
     28 H3C2       -4.7240   -1.7660   -0.1950 hc        1 ACW      0.047200
     29 H4C1       -3.1110   -0.0440    0.6390 hc        1 ACW      0.046700
     30 H4C2       -3.7630    1.1590   -0.5400 hc        1 ACW      0.046700
     31 H7C1       -3.1290   -0.3860   -2.4460 hc        1 ACW      0.065700
     32 H7C2       -2.4090   -1.5420   -1.2480 hc        1 ACW      0.065700
     33 H11        -0.6540   -0.4380    0.2750 hn        1 ACW      0.334500
     34 H12         1.1270    1.0020   -1.5620 h1        1 ACW      0.098700
     35 H141       -6.3660   -0.1080    2.5150 hn        1 ACW      0.330300
     36 H142       -5.2350   -1.1830    2.1220 hn        1 ACW      0.330300
     37 H161        0.5320    1.9050    1.3470 h1        1 ACW      0.081200
     38 H162        2.1220    2.2160    0.5400 h1        1 ACW      0.081200
     39 H17        -0.5120    3.0000   -1.2030 hs        1 ACW      0.255800
     40 H29         3.4190    0.5280   -1.0630 hn        1 ACW      0.334500
     41 H30         3.9220   -2.0060    0.2720 h1        1 ACW      0.066700
     42 H331        5.7080   -2.4650    1.8710 hc        1 ACW      0.064200
     43 H332        6.5200   -1.1040    2.7920 hc        1 ACW      0.064200
     44 H371        5.9370    1.1340    0.3730 hc        1 ACW      0.034367
     45 H372        4.5230    1.6940    1.3670 hc        1 ACW      0.034367
     46 H373        6.0580    1.2030    2.1930 hc        1 ACW      0.034367
     47 H401        4.2280   -0.2290    3.5530 hc        1 ACW      0.064200
     48 H402        3.3930   -1.5810    2.6380 hc        1 ACW      0.064200
@<TRIPOS>BOND
     1    1    2 1   
     2    1   15 1   
     3    1   16 1   
     4    2    3 1   
     5    2   10 1   
     6    2   26 1   
     7    3    4 1   
     8    3   27 1   
     9    3   28 1   
    10    4    5 1   
    11    4   29 1   
    12    4   30 1   
    13    5    6 1   
    14    5   31 1   
    15    5   32 1   
    16    6    7 1   
    17    6   11 2   
    18    7    8 1   
    19    7   33 1   
    20    8    9 1   
    21    8   12 1   
    22    8   34 1   
    23    9   14 2   
    24    9   17 1   
    25   10   35 1   
    26   10   36 1   
    27   12   13 1   
    28   12   37 1   
    29   12   38 1   
    30   13   39 1   
    31   17   18 1   
    32   17   40 1   
    33   18   19 1   
    34   18   20 1   
    35   18   41 1   
    36   19   23 1   
    37   19   24 1   
    38   20   21 1   
    39   20   22 1   
    40   20   25 1   
    41   21   25 1   
    42   21   42 1   
    43   21   43 1   
    44   22   44 1   
    45   22   45 1   
    46   22   46 1   
    47   25   47 1   
    48   25   48 1   
@<TRIPOS>SUBSTRUCTURE
     1 ACW         1 TEMP              0 ****  ****    0 ROOT
