@<TRIPOS>MOLECULE
ACW
   51    51     1     0     0
SMALL
bcc


@<TRIPOS>ATOM
      1 C1          3.0270    0.2470    2.4770 c         1 ACW      0.894600
      2 C2          2.3730   -0.2740    1.1570 c3        1 ACW     -0.021500
      3 C3          3.4010   -0.2890    0.0200 c3        1 ACW     -0.083400
      4 C4          4.8240   -0.4890    0.5180 c3        1 ACW     -0.083400
      5 C7          5.5110    0.8390    0.7970 c3        1 ACW     -0.166400
      6 C10         6.4880    0.7760    1.9410 c         1 ACW      0.557100
      7 N11         5.8760    0.7440    3.3100 ny        1 ACW     -0.691800
      8 C12         6.8310    0.9730    4.4370 c3        1 ACW      0.056500
      9 C13         7.4840   -0.3630    4.8820 c         1 ACW      0.655100
     10 N14         1.1950    0.5990    0.8430 nz        1 ACW     -0.828600
     11 O15         7.7070    0.7910    1.8500 o         1 ACW     -0.421100
     12 C16         6.1300    1.6030    5.6420 c3        1 ACW     -0.041300
     13 S17         5.2470    3.0510    5.1540 sh        1 ACW     -0.326900
     14 O18         6.9890   -1.4470    4.5180 o         1 ACW     -0.587100
     15 O19         3.1510    1.4990    2.6060 o         1 ACW     -0.793800
     16 O20         3.4410   -0.6090    3.2930 o         1 ACW     -0.793800
     17 N29         8.5580   -0.2630    5.7310 ns        1 ACW     -0.508900
     18 C30         9.3760   -1.4190    6.0410 c3        1 ACW      0.036700
     19 C31        10.6440   -1.4650    5.1790 c         1 ACW      0.606100
     20 C32         9.7620   -1.4620    7.5120 cx        1 ACW     -0.155000
     21 C33         8.6910   -1.8580    8.5030 cx        1 ACW     -0.113400
     22 C37        10.7760   -0.4450    7.9200 c3        1 ACW     -0.076100
     23 O42        11.5050   -2.5040    5.3350 oh        1 ACW     -0.553100
     24 O43        10.9670   -0.6530    4.3130 o         1 ACW     -0.488000
     25 C40         9.7840   -2.8240    8.1740 cx        1 ACW     -0.113400
     26 H2          1.9920   -1.3220    1.3360 hx        1 ACW      0.121700
     27 H3C1        3.1450   -1.1330   -0.6760 hc        1 ACW      0.065700
     28 H3C2        3.3560    0.6610   -0.5790 hc        1 ACW      0.065700
     29 H4C1        4.8180   -1.1510    1.4260 hc        1 ACW      0.087200
     30 H4C2        5.4050   -1.0350   -0.2740 hc        1 ACW      0.087200
     31 H7C1        4.7490    1.6420    1.0170 hc        1 ACW      0.113200
     32 H7C2        6.0950    1.1610   -0.1100 hc        1 ACW      0.113200
     33 H11         5.1150    1.4720    3.3610 hn        1 ACW      0.511800
     34 H12         7.6390    1.6720    4.0580 hx        1 ACW      0.133700
     35 H141        0.4040    0.3260    1.4310 hn        1 ACW      0.459133
     36 H142        0.9360    0.5330   -0.1410 hn        1 ACW      0.459133
     37 H161        5.4710    0.8570    6.1500 h1        1 ACW      0.113700
     38 H162        6.9170    1.9180    6.3750 h1        1 ACW      0.113700
     39 H17         3.9990    2.6560    5.3850 hs        1 ACW      0.240800
     40 H29         9.0000    0.6220    5.8500 hn        1 ACW      0.330500
     41 H30         8.7730   -2.3500    5.7880 h1        1 ACW      0.117700
     42 H331        8.6860   -1.3660    9.4930 hc        1 ACW      0.085450
     43 H332        7.6690   -2.0580    8.1350 hc        1 ACW      0.085450
     44 H371       11.0790   -0.5980    8.9850 hc        1 ACW      0.052700
     45 H372       11.6900   -0.5250    7.2790 hc        1 ACW      0.052700
     46 H373       10.3600    0.5880    7.8220 hc        1 ACW      0.052700
     47 H401        9.5420   -3.7220    7.5760 hc        1 ACW      0.085450
     48 H402       10.5710   -3.0280    8.9240 hc        1 ACW      0.085450
     49 H112        5.4150   -0.1870    3.4430 hn        1 ACW      0.511800
     50 H143        1.4590    1.5710    1.0760 hn        1 ACW      0.459133
     51 H292       11.2310   -3.0540    6.0850 ho        1 ACW      0.438000
@<TRIPOS>BOND
     1    1    2 1   
     2    1   15 1   
     3    1   16 1   
     4    2    3 1   
     5    2   10 1   
     6    2   26 1   
     7    3    4 1   
     8    3   27 1   
     9    3   28 1   
    10    4    5 1   
    11    4   29 1   
    12    4   30 1   
    13    5    6 1   
    14    5   31 1   
    15    5   32 1   
    16    6    7 1   
    17    6   11 2   
    18    7    8 1   
    19    7   33 1   
    20    7   49 1   
    21    8    9 1   
    22    8   12 1   
    23    8   34 1   
    24    9   14 2   
    25    9   17 1   
    26   10   35 1   
    27   10   36 1   
    28   10   50 1   
    29   12   13 1   
    30   12   37 1   
    31   12   38 1   
    32   13   39 1   
    33   17   18 1   
    34   17   40 1   
    35   18   19 1   
    36   18   20 1   
    37   18   41 1   
    38   19   23 1   
    39   19   24 2   
    40   20   21 1   
    41   20   22 1   
    42   20   25 1   
    43   21   25 1   
    44   21   42 1   
    45   21   43 1   
    46   22   44 1   
    47   22   45 1   
    48   22   46 1   
    49   23   51 1   
    50   25   47 1   
    51   25   48 1   
@<TRIPOS>SUBSTRUCTURE
     1 ACW         1 TEMP              0 ****  ****    0 ROOT
