@<TRIPOS>MOLECULE
ACW
   51    51     1     0     0
SMALL
bcc


@<TRIPOS>ATOM
      1 C1          3.4960   -0.2020    2.4040 c         1 ACW      0.893600
      2 C2          3.5820   -0.8690    0.9950 c3        1 ACW     -0.020500
      3 C3          4.9280   -0.5470    0.3340 c3        1 ACW     -0.082400
      4 C4          6.0480   -0.3860    1.3480 c3        1 ACW     -0.086400
      5 C7          6.2210    1.0660    1.7700 c3        1 ACW     -0.162400
      6 C10         6.6410    1.2140    3.2090 c         1 ACW      0.588100
      7 N11         5.5620    0.9980    4.2250 n4        1 ACW     -0.694800
      8 C12         5.8800    1.4730    5.6090 c3        1 ACW      0.057500
      9 C13         6.5190    0.3030    6.4010 c         1 ACW      0.636100
     10 N14         2.4230   -0.3820    0.1790 n4        1 ACW     -0.828600
     11 O15         7.7580    1.5230    3.6070 o         1 ACW     -0.469100
     12 C16         4.6300    1.9540    6.3460 c3        1 ACW     -0.039300
     13 S17         3.7500    3.1260    5.3670 sh        1 ACW     -0.336900
     14 O18         5.8130   -0.4120    7.1250 o         1 ACW     -0.524100
     15 O19         3.2530    1.0400    2.4390 o         1 ACW     -0.792300
     16 O20         3.7270   -0.9220    3.4020 o         1 ACW     -0.792300
     17 N29         7.8850    0.1150    6.2470 n         1 ACW     -0.516900
     18 C30         8.3870   -1.2440    6.2290 c3        1 ACW      0.041700
     19 C31         8.0210   -1.9430    4.9100 c         1 ACW      0.625100
     20 C32         9.8860   -1.3120    6.4600 cx        1 ACW     -0.163000
     21 C33        10.3780   -1.0830    7.8710 cx        1 ACW     -0.108900
     22 C37        10.7200   -0.8230    5.3230 c3        1 ACW     -0.078100
     23 O42         8.5160   -3.1670    4.6170 oh        1 ACW     -0.545100
     24 O43         7.2530   -1.4850    4.0520 o         1 ACW     -0.580000
     25 C40        10.3960   -2.4650    7.3010 cx        1 ACW     -0.108900
     26 H2          3.4780   -1.9860    1.1180 hx        1 ACW      0.121700
     27 H3C1        4.8570    0.3870   -0.2870 hc        1 ACW      0.062700
     28 H3C2        5.1920   -1.3900   -0.3600 hc        1 ACW      0.062700
     29 H4C1        5.8650   -1.0560    2.2350 hc        1 ACW      0.096200
     30 H4C2        7.0070   -0.7400    0.8820 hc        1 ACW      0.096200
     31 H7C1        7.0220    1.5510    1.1470 hc        1 ACW      0.110200
     32 H7C2        5.2630    1.6420    1.6120 hc        1 ACW      0.110200
     33 H11         5.3380   -0.0240    4.2400 hn        1 ACW      0.513300
     34 H12         6.6050    2.3390    5.5230 hx        1 ACW      0.124700
     35 H141        1.5750   -0.8770    0.4640 hn        1 ACW      0.457800
     36 H142        2.3020    0.6250    0.3820 hn        1 ACW      0.457800
     37 H161        3.9960    1.0830    6.6530 h1        1 ACW      0.123700
     38 H162        4.9690    2.4620    7.2860 h1        1 ACW      0.123700
     39 H17         2.6250    2.4530    5.1470 hs        1 ACW      0.241800
     40 H29         9.1410   -3.4460    5.3090 ho        1 ACW      0.451000
     41 H30         7.8540   -1.8180    7.0530 h1        1 ACW      0.122700
     42 H331       11.3330   -0.5430    8.0110 hc        1 ACW      0.088700
     43 H332        9.6430   -0.8330    8.6580 hc        1 ACW      0.088700
     44 H371       10.5660    0.2720    5.1600 hc        1 ACW      0.052033
     45 H372       10.4580   -1.3670    4.3810 hc        1 ACW      0.052033
     46 H373       11.8060   -0.9900    5.5330 hc        1 ACW      0.052033
     47 H401        9.6780   -3.2130    7.6870 hc        1 ACW      0.088700
     48 H402       11.3640   -2.9240    7.0260 hc        1 ACW      0.088700
     49 H112        4.6880    1.4940    3.8970 hn        1 ACW      0.513300
     50 H143        2.5860   -0.5180   -0.8180 hn        1 ACW      0.457800
     51 H292        8.3780    0.7550    5.6580 hn        1 ACW      0.325500
@<TRIPOS>BOND
     1    1    2 1   
     2    1   15 1   
     3    1   16 1   
     4    2    3 1   
     5    2   10 1   
     6    2   26 1   
     7    3    4 1   
     8    3   27 1   
     9    3   28 1   
    10    4    5 1   
    11    4   29 1   
    12    4   30 1   
    13    5    6 1   
    14    5   31 1   
    15    5   32 1   
    16    6    7 1   
    17    6   11 2   
    18    7    8 1   
    19    7   33 1   
    20    7   49 1   
    21    8    9 1   
    22    8   12 1   
    23    8   34 1   
    24    9   14 2   
    25    9   17 1   
    26   10   35 1   
    27   10   36 1   
    28   10   50 1   
    29   12   13 1   
    30   12   37 1   
    31   12   38 1   
    32   13   39 1   
    33   17   18 1   
    34   17   51 1   
    35   18   19 1   
    36   18   20 1   
    37   18   41 1   
    38   19   23 1   
    39   19   24 2   
    40   20   21 1   
    41   20   22 1   
    42   20   25 1   
    43   21   25 1   
    44   21   42 1   
    45   21   43 1   
    46   22   44 1   
    47   22   45 1   
    48   22   46 1   
    49   23   40 1   
    50   25   47 1   
    51   25   48 1   
@<TRIPOS>SUBSTRUCTURE
     1 ACW         1 TEMP              0 ****  ****    0 ROOT
