@<TRIPOS>MOLECULE
ACY
    7     6     1     0     0
SMALL
bcc


@<TRIPOS>ATOM
      1 C          -0.0060    0.0050    0.0380 c         1 ACY      0.901600
      2 O           1.2600    0.0060    0.0210 o         1 ACY     -0.861300
      3 OXT        -0.6890    0.0110    1.1060 o         1 ACY     -0.861300
      4 CH3        -0.7520    0.0000   -1.2950 c3        1 ACY     -0.200100
      5 H1         -1.2510    0.9860   -1.4420 hc        1 ACY      0.006700
      6 H2         -1.5320   -0.7960   -1.2900 hc        1 ACY      0.006700
      7 H3         -0.0480   -0.1800   -2.1380 hc        1 ACY      0.006700
@<TRIPOS>BOND
     1    1    2 1   
     2    1    3 1   
     3    1    4 1   
     4    4    5 1   
     5    4    6 1   
     6    4    7 1   
@<TRIPOS>SUBSTRUCTURE
     1 ACY         1 TEMP              0 ****  ****    0 ROOT
