@<TRIPOS>MOLECULE
ACY
    7     6     1     0     0
SMALL
bcc


@<TRIPOS>ATOM
      1 C          -0.0030    0.0010    0.0360 c         1 ACY      0.901600
      2 O           1.2620   -0.0600    0.0140 o         1 ACY     -0.861300
      3 OXT        -0.6790    0.0620    1.1060 o         1 ACY     -0.861300
      4 CH3        -0.7540    0.0050   -1.2940 c3        1 ACY     -0.200100
      5 H1         -1.2860    0.9760   -1.4170 hc        1 ACY      0.006700
      6 H2         -1.5080   -0.8160   -1.3020 hc        1 ACY      0.006700
      7 H3         -0.0490   -0.1360   -2.1440 hc        1 ACY      0.006700
@<TRIPOS>BOND
     1    1    2 1   
     2    1    3 1   
     3    1    4 1   
     4    4    5 1   
     5    4    6 1   
     6    4    7 1   
@<TRIPOS>SUBSTRUCTURE
     1 ACY         1 TEMP              0 ****  ****    0 ROOT
