@<TRIPOS>MOLECULE
ACY
    7     6     1     0     0
SMALL
bcc


@<TRIPOS>ATOM
      1 C           0.0470   -0.0440   -0.0010 c         1 ACY      0.901600
      2 O           0.2800   -1.2890    0.0060 o         1 ACY     -0.861300
      3 OXT         0.9580    0.8360    0.0050 o         1 ACY     -0.861300
      4 CH3        -1.4080    0.4210   -0.0080 c3        1 ACY     -0.200100
      5 H1         -1.7610    0.5300    1.0440 hc        1 ACY      0.007033
      6 H2         -1.4990    1.4050   -0.5210 hc        1 ACY      0.007033
      7 H3         -2.0520   -0.3270   -0.5260 hc        1 ACY      0.007033
@<TRIPOS>BOND
     1    1    2 1   
     2    1    3 1   
     3    1    4 1   
     4    4    5 1   
     5    4    6 1   
     6    4    7 1   
@<TRIPOS>SUBSTRUCTURE
     1 ACY         1 TEMP              0 ****  ****    0 ROOT
