@<TRIPOS>MOLECULE
ACZ
   29    29     1     0     0
SMALL
bcc


@<TRIPOS>ATOM
      1 NH          1.2740    0.1260   -4.9080 n3        1 ACZ     -0.898800
      2 CZ          0.1800   -0.3840   -4.0850 c3        1 ACZ      0.235900
      3 CE2        -0.7270    0.7230   -3.6230 c2        1 ACZ     -0.221700
      4 CD2        -1.1700    0.8410   -2.3690 c2        1 ACZ     -0.126200
      5 CG         -0.8210   -0.0930   -1.2620 c3        1 ACZ     -0.021300
      6 CD1         0.1740   -1.1160   -1.6860 c2        1 ACZ     -0.126200
      7 CE1         0.6240   -1.2480   -2.9360 c2        1 ACZ     -0.221700
      8 CX         -0.3330    0.6780   -0.0350 c3        1 ACZ     -0.063400
      9 CB         -0.4170   -0.1530    1.2260 c3        1 ACZ     -0.066400
     10 CA         -0.0910    0.6600    2.4800 c3        1 ACZ      0.017500
     11 N           1.2840    1.1430    2.5150 n3        1 ACZ     -0.891800
     12 C          -0.5100   -0.1890    3.7280 c         1 ACZ      0.887600
     13 O2         -1.6870   -0.6440    3.7530 o         1 ACZ     -0.843300
     14 O           0.3420   -0.3550    4.6470 o         1 ACZ     -0.843300
     15 HNH1        1.7120    0.9050   -4.4550 hn        1 ACZ      0.340800
     16 HNH2        1.9630   -0.5930   -5.0290 hn        1 ACZ      0.340800
     17 HCZ        -0.4330   -1.0480   -4.7770 h1        1 ACZ      0.056700
     18 HE22       -1.0260    1.4380   -4.4040 ha        1 ACZ      0.116500
     19 HD22       -1.8500    1.6610   -2.0860 ha        1 ACZ      0.128500
     20 HCG        -1.7680   -0.6430   -0.9730 hc        1 ACZ      0.072700
     21 HD11        0.5230   -1.7830   -0.8790 ha        1 ACZ      0.128500
     22 HE11        1.3490   -2.0360   -3.1930 ha        1 ACZ      0.116500
     23 HCX1       -0.9660    1.5970    0.0890 hc        1 ACZ      0.043700
     24 HCX2        0.7200    1.0200   -0.2030 hc        1 ACZ      0.043700
     25 HCB1        0.2740   -1.0320    1.1520 hc        1 ACZ      0.046700
     26 HCB2       -1.4580   -0.5540    1.3590 hc        1 ACZ      0.046700
     27 HCA        -0.7500    1.5770    2.4870 h1        1 ACZ      0.040700
     28 HN1         1.4650    1.4530    3.4560 hn        1 ACZ      0.330800
     29 HN2         1.8990    0.3640    2.3550 hn        1 ACZ      0.330800
@<TRIPOS>BOND
     1    1    2 1   
     2    1   15 1   
     3    1   16 1   
     4    2    3 1   
     5    2    7 1   
     6    2   17 1   
     7    3    4 2   
     8    3   18 1   
     9    4    5 1   
    10    4   19 1   
    11    5    6 1   
    12    5    8 1   
    13    5   20 1   
    14    6    7 2   
    15    6   21 1   
    16    7   22 1   
    17    8    9 1   
    18    8   23 1   
    19    8   24 1   
    20    9   10 1   
    21    9   25 1   
    22    9   26 1   
    23   10   11 1   
    24   10   12 1   
    25   10   27 1   
    26   11   28 1   
    27   11   29 1   
    28   12   13 1   
    29   12   14 1   
@<TRIPOS>SUBSTRUCTURE
     1 ACZ         1 TEMP              0 ****  ****    0 ROOT
