@<TRIPOS>MOLECULE
ACZ
   31    31     1     0     0
SMALL
bcc


@<TRIPOS>ATOM
      1 NH          1.8260   -1.1870   -0.4300 n4        1 ACZ     -0.852600
      2 CZ          2.4530    0.0550    0.2000 c3        1 ACZ      0.243900
      3 CE2         1.9750    0.1920    1.6070 c2        1 ACZ     -0.295200
      4 CD2         1.3750    1.2990    2.0620 c2        1 ACZ     -0.026200
      5 CG          1.1260    2.5100    1.2360 c3        1 ACZ     -0.069300
      6 CD1         1.5460    2.3380   -0.1800 c2        1 ACZ     -0.026200
      7 CE1         2.1510    1.2400   -0.6520 c2        1 ACZ     -0.295200
      8 CX         -0.3210    2.9720    1.3770 c3        1 ACZ     -0.052400
      9 CB         -0.5810    4.3720    0.8530 c3        1 ACZ     -0.080400
     10 CA          0.1210    5.4500    1.6680 c3        1 ACZ     -0.086500
     11 N          -0.7380    6.6410    1.9440 n4        1 ACZ     -0.829600
     12 C           1.4600    5.9630    0.9190 c         1 ACZ      0.942600
     13 O2          2.1230    5.0720    0.3560 o         1 ACZ     -0.755300
     14 O           1.6690    7.1930    1.0150 o         1 ACZ     -0.755300
     15 HNH1        0.8100   -1.0760   -0.4650 hn        1 ACZ      0.449800
     16 HNH2        2.0540   -2.0120    0.1260 hn        1 ACZ      0.449800
     17 HCZ         3.5710   -0.1470    0.1940 hx        1 ACZ      0.111700
     18 HE22        2.2050   -0.6490    2.2810 ha        1 ACZ      0.150000
     19 HD22        1.0700    1.3730    3.1220 ha        1 ACZ      0.174000
     20 HCG         1.8010    3.3440    1.6370 hc        1 ACZ      0.159700
     21 HD11        1.4170    3.2370   -0.8180 ha        1 ACZ      0.174000
     22 HE11        2.5330    1.2060   -1.6850 ha        1 ACZ      0.150000
     23 HCX1       -0.6070    2.9230    2.4620 hc        1 ACZ      0.048700
     24 HCX2       -0.9890    2.2610    0.8220 hc        1 ACZ      0.048700
     25 HCB1       -1.6950    4.5220    0.8410 hc        1 ACZ      0.063200
     26 HCB2       -0.2220    4.4470   -0.2100 hc        1 ACZ      0.063200
     27 HCA         0.4580    5.0480    2.6630 hx        1 ACZ      0.086700
     28 HN1        -1.2230    6.5620    2.8330 hn        1 ACZ      0.452133
     29 HN2        -0.0920    7.4660    1.9550 hn        1 ACZ      0.452133
     30 HH3         2.1800   -1.3020   -1.3820 hn        1 ACZ      0.449800
     31 HN3        -1.4150    6.7740    1.1940 hn        1 ACZ      0.452133
@<TRIPOS>BOND
     1    1    2 1   
     2    1   15 1   
     3    1   16 1   
     4    1   30 1   
     5    2    3 1   
     6    2    7 1   
     7    2   17 1   
     8    3    4 2   
     9    3   18 1   
    10    4    5 1   
    11    4   19 1   
    12    5    6 1   
    13    5    8 1   
    14    5   20 1   
    15    6    7 2   
    16    6   21 1   
    17    7   22 1   
    18    8    9 1   
    19    8   23 1   
    20    8   24 1   
    21    9   10 1   
    22    9   25 1   
    23    9   26 1   
    24   10   11 1   
    25   10   12 1   
    26   10   27 1   
    27   11   28 1   
    28   11   29 1   
    29   11   31 1   
    30   12   13 1   
    31   12   14 1   
@<TRIPOS>SUBSTRUCTURE
     1 ACZ         1 TEMP              0 ****  ****    0 ROOT
