@<TRIPOS>MOLECULE
ACZ
   31    31     1     0     0
SMALL
bcc


@<TRIPOS>ATOM
      1 NH          1.8720   -1.1860   -0.4120 nz        1 ACZ     -0.852600
      2 CZ          2.4710    0.0430    0.2680 c3        1 ACZ      0.243900
      3 CE2         1.9070    0.1710    1.6450 c2        1 ACZ     -0.295200
      4 CD2         1.2920    1.2800    2.0720 c2        1 ACZ     -0.026200
      5 CG          1.1080    2.5020    1.2440 c3        1 ACZ     -0.069300
      6 CD1         1.6140    2.3400   -0.1440 c2        1 ACZ     -0.026200
      7 CE1         2.2350    1.2400   -0.5890 c2        1 ACZ     -0.295200
      8 CX         -0.3400    2.9800    1.3000 c3        1 ACZ     -0.052400
      9 CB         -0.5520    4.3870    0.7750 c3        1 ACZ     -0.080400
     10 CA          0.1090    5.4490    1.6430 c3        1 ACZ     -0.086500
     11 N          -0.7520    6.6470    1.8770 nz        1 ACZ     -0.829600
     12 C           1.4980    5.9540    0.9840 c         1 ACZ      0.942600
     13 O2          2.1850    5.0610    0.4540 o         1 ACZ     -0.755300
     14 O           1.7140    7.1810    1.1060 o         1 ACZ     -0.755300
     15 HNH1        2.2830   -1.2960   -1.3410 hn        1 ACZ      0.449800
     16 HNH2        2.0560   -2.0190    0.1490 hn        1 ACZ      0.449800
     17 HCZ         3.5840   -0.1710    0.3310 hx        1 ACZ      0.111700
     18 HE22        2.0860   -0.6790    2.3230 ha        1 ACZ      0.150000
     19 HD22        0.9210    1.3470    3.1110 ha        1 ACZ      0.174000
     20 HCG         1.7650    3.3250    1.6960 hc        1 ACZ      0.159700
     21 HD11        1.5340    3.2460   -0.7790 ha        1 ACZ      0.174000
     22 HE11        2.6810    1.2100   -1.5960 ha        1 ACZ      0.150000
     23 HCX1       -0.9800    2.2820    0.6970 hc        1 ACZ      0.048700
     24 HCX2       -0.6940    2.9230    2.3640 hc        1 ACZ      0.048700
     25 HCB1       -1.6610    4.5500    0.6950 hc        1 ACZ      0.063200
     26 HCB2       -0.1270    4.4690   -0.2630 hc        1 ACZ      0.063200
     27 HCA         0.3790    5.0340    2.6530 hx        1 ACZ      0.086700
     28 HN1        -1.2930    6.5650    2.7330 hn        1 ACZ      0.452133
     29 HN2        -0.0990    7.4650    1.9370 hn        1 ACZ      0.452133
     30 HH3         0.8610   -1.0640   -0.5090 hn        1 ACZ      0.449800
     31 HN3        -1.3790    6.7960    1.0870 hn        1 ACZ      0.452133
@<TRIPOS>BOND
     1    1    2 1   
     2    1   15 1   
     3    1   16 1   
     4    1   30 1   
     5    2    3 1   
     6    2    7 1   
     7    2   17 1   
     8    3    4 2   
     9    3   18 1   
    10    4    5 1   
    11    4   19 1   
    12    5    6 1   
    13    5    8 1   
    14    5   20 1   
    15    6    7 2   
    16    6   21 1   
    17    7   22 1   
    18    8    9 1   
    19    8   23 1   
    20    8   24 1   
    21    9   10 1   
    22    9   25 1   
    23    9   26 1   
    24   10   11 1   
    25   10   12 1   
    26   10   27 1   
    27   11   28 1   
    28   11   29 1   
    29   11   31 1   
    30   12   13 1   
    31   12   14 1   
@<TRIPOS>SUBSTRUCTURE
     1 ACZ         1 TEMP              0 ****  ****    0 ROOT
