@<TRIPOS>MOLECULE
ACZ
   31    31     1     0     0
SMALL
bcc


@<TRIPOS>ATOM
      1 NH          1.7980   -1.2000   -0.4200 n4        1 ACZ     -0.852600
      2 CZ          2.4410    0.0450    0.1870 c3        1 ACZ      0.243900
      3 CE2         1.9920    0.1930    1.6040 c2        1 ACZ     -0.295200
      4 CD2         1.4040    1.3050    2.0630 c2        1 ACZ     -0.026200
      5 CG          1.1410    2.5100    1.2330 c3        1 ACZ     -0.069300
      6 CD1         1.5320    2.3280   -0.1900 c2        1 ACZ     -0.026200
      7 CE1         2.1250    1.2250   -0.6660 c2        1 ACZ     -0.295200
      8 CX         -0.3020    2.9770    1.4000 c3        1 ACZ     -0.052400
      9 CB         -0.5700    4.3730    0.8710 c3        1 ACZ     -0.080400
     10 CA          0.1490    5.4550    1.6640 c3        1 ACZ     -0.086500
     11 N          -0.7020    6.6500    1.9480 n4        1 ACZ     -0.829600
     12 C           1.4740    5.9600    0.8840 c         1 ACZ      0.942600
     13 O2          2.1240    5.0640    0.3150 o         1 ACZ     -0.755300
     14 O           1.6870    7.1910    0.9660 o         1 ACZ     -0.755300
     15 HNH1        2.0360   -2.0220    0.1370 hn        1 ACZ      0.449800
     16 HNH2        0.7820   -1.0870   -0.4350 hn        1 ACZ      0.449800
     17 HCZ         3.5580   -0.1600    0.1610 hx        1 ACZ      0.111700
     18 HE22        2.2350   -0.6430    2.2790 ha        1 ACZ      0.150000
     19 HD22        1.1210    1.3870    3.1280 ha        1 ACZ      0.174000
     20 HCG         1.8250    3.3460    1.6140 hc        1 ACZ      0.159700
     21 HD11        1.3910    3.2230   -0.8310 ha        1 ACZ      0.174000
     22 HE11        2.4860    1.1830   -1.7060 ha        1 ACZ      0.150000
     23 HCX1       -0.9830    2.2630    0.8640 hc        1 ACZ      0.048700
     24 HCX2       -0.5660    2.9360    2.4910 hc        1 ACZ      0.048700
     25 HCB1       -0.2330    4.4400   -0.2000 hc        1 ACZ      0.063200
     26 HCB2       -1.6850    4.5250    0.8800 hc        1 ACZ      0.063200
     27 HCA         0.5060    5.0600    2.6550 hx        1 ACZ      0.086700
     28 HN1        -1.1690    6.5780    2.8480 hn        1 ACZ      0.452133
     29 HN2        -0.0540    7.4740    1.9400 hn        1 ACZ      0.452133
     30 HH3         2.1320   -1.3220   -1.3790 hn        1 ACZ      0.449800
     31 HN3        -1.3940    6.7790    1.2110 hn        1 ACZ      0.452133
@<TRIPOS>BOND
     1    1    2 1   
     2    1   15 1   
     3    1   16 1   
     4    1   30 1   
     5    2    3 1   
     6    2    7 1   
     7    2   17 1   
     8    3    4 2   
     9    3   18 1   
    10    4    5 1   
    11    4   19 1   
    12    5    6 1   
    13    5    8 1   
    14    5   20 1   
    15    6    7 2   
    16    6   21 1   
    17    7   22 1   
    18    8    9 1   
    19    8   23 1   
    20    8   24 1   
    21    9   10 1   
    22    9   25 1   
    23    9   26 1   
    24   10   11 1   
    25   10   12 1   
    26   10   27 1   
    27   11   28 1   
    28   11   29 1   
    29   11   31 1   
    30   12   13 1   
    31   12   14 1   
@<TRIPOS>SUBSTRUCTURE
     1 ACZ         1 TEMP              0 ****  ****    0 ROOT
