@<TRIPOS>MOLECULE
ACZ
   29    28     1     0     0
SMALL
bcc


@<TRIPOS>ATOM
      1 NH         -4.6200   -1.2910   -0.7050 n3        1 ACZ     -0.335000
      2 CZ         -3.1870   -1.5820   -0.8210 c3        1 ACZ      0.040000
      3 CE2        -2.5410   -1.6160    0.5690 c2        1 ACZ     -0.199000
      4 CD2        -1.0630   -1.3260    0.7230 c1        1 ACZ     -0.122000
      5 CG         -0.3290   -0.4610   -0.3300 c2        1 ACZ     -0.065000
      6 CD1        -1.2530    0.1300   -1.4200 c2        1 ACZ     -0.137000
      7 CE1        -2.5200   -0.5970   -1.8130 c2        1 ACZ     -0.183000
      8 CX          0.5240    0.6700    0.3620 c3        1 ACZ     -0.145000
      9 CB          1.9960    0.3920    0.1510 c3        1 ACZ     -0.145000
     10 CA          2.8140    1.4830    0.8040 c3        1 ACZ     -0.130000
     11 N           3.4840    2.2380   -0.1980 n3        1 ACZ     -0.324000
     12 C           3.8320    0.8620    1.7320 c2        1 ACZ      0.307000
     13 O2          3.7630    1.0690    2.9720 o         1 ACZ     -0.579000
     14 O           4.7570    0.1460    1.2640 o         1 ACZ     -0.579000
     15 HNH1       -5.0250   -1.9440   -0.2070 hn        1 ACZ      0.135500
     16 HNH2       -4.9950   -1.2670   -1.5400 hn        1 ACZ      0.135500
     17 HCZ        -3.2130   -2.4820   -1.2030 h1        1 ACZ      0.046000
     18 HE22       -3.0810   -1.8290    1.3530 ha        1 ACZ      0.117000
     19 HD22       -0.5730   -1.6800    1.4900 ha        1 ACZ      0.148000
     20 HCG         0.3770   -0.9880   -0.7510 ha        1 ACZ      0.106000
     21 HD11       -1.0170    0.9700   -1.8570 ha        1 ACZ      0.124000
     22 HE11       -2.9120   -0.4510   -2.6950 ha        1 ACZ      0.115000
     23 HCX1        0.2970    1.5370   -0.0310 hc        1 ACZ      0.083500
     24 HCX2        0.3290    0.6860    1.3200 hc        1 ACZ      0.083500
     25 HCB1        2.1900    0.3690   -0.8070 hc        1 ACZ      0.085000
     26 HCB2        2.2250   -0.4710    0.5510 hc        1 ACZ      0.085000
     27 HCA         2.2230    2.0710    1.3150 h1        1 ACZ      0.081000
     28 HN1         3.1380    3.0850   -0.2240 hn        1 ACZ      0.125000
     29 HN2         4.3780    2.2780   -0.0040 hn        1 ACZ      0.125000
@<TRIPOS>BOND
     1    1    2 1   
     2    1   15 1   
     3    1   16 1   
     4    2    3 1   
     5    2    7 1   
     6    2   17 1   
     7    3    4 1   
     8    3   18 1   
     9    4   19 1   
    10    5    6 1   
    11    5    8 1   
    12    5   20 1   
    13    6    7 1   
    14    6   21 1   
    15    7   22 1   
    16    8    9 1   
    17    8   23 1   
    18    8   24 1   
    19    9   10 1   
    20    9   25 1   
    21    9   26 1   
    22   10   11 1   
    23   10   12 1   
    24   10   27 1   
    25   11   28 1   
    26   11   29 1   
    27   12   13 1   
    28   12   14 1   
@<TRIPOS>SUBSTRUCTURE
     1 ACZ         1 TEMP              0 ****  ****    0 ROOT
