@<TRIPOS>MOLECULE
AD0
   41    42     1     0     0
SMALL
bcc


@<TRIPOS>ATOM
      1 C1          3.2440   -2.6560   -2.9690 c3        1 AD0      0.312900
      2 C2          4.4380   -3.1570   -2.1390 c3        1 AD0      0.092100
      3 C3          5.5310   -3.7130   -3.0680 c3        1 AD0      0.106100
      4 C4          5.8230   -2.7600   -4.2430 c3        1 AD0      0.107100
      5 C5          4.5760   -2.1470   -4.9010 c3        1 AD0      0.001100
      6 C6          3.8900   -3.0410   -5.9660 c         1 AD0      0.901600
      7 O1          2.4370   -1.8510   -2.1290 os        1 AD0     -0.398600
      8 O2          5.0070   -2.1370   -1.3320 oh        1 AD0     -0.608800
      9 O3          5.2400   -5.0240   -3.4940 oh        1 AD0     -0.622800
     10 O4          6.6430   -3.4020   -5.1980 oh        1 AD0     -0.631800
     11 O5          3.6660   -1.6690   -3.9130 os        1 AD0     -0.475600
     12 O6          3.2260   -2.4650   -6.8660 o         1 AD0     -0.833800
     13 C1'         0.1970   -0.2160   -0.1830 c3        1 AD0      0.331900
     14 O60         4.0760   -4.2950   -5.9230 o         1 AD0     -0.833800
     15 C2'         0.8810    0.3930   -1.4200 c3        1 AD0      0.060100
     16 C3'         0.5950   -0.4420   -2.6800 c3        1 AD0      0.091100
     17 C4'         1.0370   -1.8930   -2.4040 c3        1 AD0      0.115100
     18 C5'         0.2470   -2.3960   -1.1880 c3        1 AD0     -0.002900
     19 C6'         0.5580   -3.8810   -0.8070 c         1 AD0      0.943600
     20 O1'        -1.2000   -0.0450   -0.1650 oh        1 AD0     -0.623800
     21 O2'         0.4290    1.7300   -1.5680 oh        1 AD0     -0.613800
     22 O3'         1.2280    0.1600   -3.7890 oh        1 AD0     -0.630800
     23 O5'         0.4640   -1.5920   -0.0310 os        1 AD0     -0.388600
     24 O6'        -0.1840   -4.4120    0.0600 o         1 AD0     -0.822800
     25 OAP         1.4690   -4.4640   -1.4500 o         1 AD0     -0.822800
     26 H1          2.7010   -3.5090   -3.4570 h2        1 AD0      0.111700
     27 H2          4.0700   -3.9520   -1.4290 h1        1 AD0      0.122700
     28 H3          6.4790   -3.8280   -2.4650 h1        1 AD0      0.055700
     29 HA          4.8010   -1.2970   -1.7600 ho        1 AD0      0.403000
     30 H4          6.4600   -1.9190   -3.8410 h1        1 AD0      0.038700
     31 HB          4.4830   -4.9780   -4.1050 ho        1 AD0      0.452000
     32 H5          4.8850   -1.1970   -5.4280 h1        1 AD0      0.058700
     33 HC          6.1230   -4.1410   -5.5600 ho        1 AD0      0.445000
     34 H4'         0.8150   -2.5480   -3.2880 h1        1 AD0      0.084700
     35 H1'         0.5680    0.2720    0.7620 h2        1 AD0      0.087700
     36 H2'         1.9940    0.3990   -1.2410 h1        1 AD0      0.068700
     37 HD         -1.5650   -0.4920   -0.9360 ho        1 AD0      0.398000
     38 H3'        -0.5050   -0.4140   -2.9180 h1        1 AD0      0.051700
     39 HE          0.6490    1.9820   -2.4750 ho        1 AD0      0.409000
     40 HF          2.0920   -0.2670   -3.9070 ho        1 AD0      0.450000
     41 H5'        -0.8460   -2.3520   -1.4630 h1        1 AD0      0.009700
@<TRIPOS>BOND
     1    1    2 1   
     2    1    7 1   
     3    1   11 1   
     4    1   26 1   
     5    2    3 1   
     6    2    8 1   
     7    2   27 1   
     8    3    4 1   
     9    3    9 1   
    10    3   28 1   
    11    4    5 1   
    12    4   10 1   
    13    4   30 1   
    14    5    6 1   
    15    5   11 1   
    16    5   32 1   
    17    6   12 1   
    18    6   14 1   
    19    7   17 1   
    20    8   29 1   
    21    9   31 1   
    22   10   33 1   
    23   13   15 1   
    24   13   20 1   
    25   13   23 1   
    26   13   35 1   
    27   15   16 1   
    28   15   21 1   
    29   15   36 1   
    30   16   17 1   
    31   16   22 1   
    32   16   38 1   
    33   17   18 1   
    34   17   34 1   
    35   18   19 1   
    36   18   23 1   
    37   18   41 1   
    38   19   24 1   
    39   19   25 1   
    40   20   37 1   
    41   21   39 1   
    42   22   40 1   
@<TRIPOS>SUBSTRUCTURE
     1 AD0         1 TEMP              0 ****  ****    0 ROOT
