@<TRIPOS>MOLECULE
AD0
   41    42     1     0     0
SMALL
bcc


@<TRIPOS>ATOM
      1 C1          0.5260    0.0510    0.6240 c3        1 AD0      0.302900
      2 C2          1.8890   -0.5340    0.5970 c3        1 AD0      0.106100
      3 C3          2.5150   -0.5980    1.9300 c3        1 AD0      0.126100
      4 C4          1.6440   -1.2610    2.9440 c3        1 AD0      0.114100
      5 C5          0.2230   -0.6460    3.0150 c3        1 AD0      0.001100
      6 C6          0.2400    0.6850    3.6780 c         1 AD0      0.885600
      7 O1         -0.0610   -0.0840   -0.6700 os        1 AD0     -0.407600
      8 O2          1.8050   -1.9020    0.0480 oh        1 AD0     -0.630800
      9 O3          2.8070    0.7610    2.3780 oh        1 AD0     -0.628800
     10 O4          2.2580   -1.1400    4.2210 oh        1 AD0     -0.637800
     11 O5         -0.3640   -0.5980    1.6250 os        1 AD0     -0.444600
     12 O6         -0.7340    1.4800    3.5220 o         1 AD0     -0.835800
     13 C1'        -1.7770    0.1930   -3.4400 c3        1 AD0      0.303900
     14 O60         1.1540    0.9670    4.4920 o         1 AD0     -0.835800
     15 C2'        -2.1630   -0.5160   -2.1610 c3        1 AD0      0.057100
     16 C3'        -2.3690    0.4620   -0.9580 c3        1 AD0      0.151100
     17 C4'        -0.9310    0.9930   -0.9040 c3        1 AD0      0.099100
     18 C5'        -0.4840    1.7310   -2.2220 c3        1 AD0      0.016100
     19 C6'         1.0170    1.4690   -2.5480 c         1 AD0      0.917600
     20 O1'        -3.0000    0.3150   -4.3200 oh        1 AD0     -0.625800
     21 O2'        -3.3610   -1.2210   -2.3810 oh        1 AD0     -0.611800
     22 O3'        -2.6940   -0.1750    0.1350 oh        1 AD0     -0.611800
     23 O5'        -1.3200    1.3390   -3.2170 os        1 AD0     -0.461600
     24 O6'         1.3420    0.4800   -3.2570 o         1 AD0     -0.834300
     25 OAP         1.8900    2.3160   -2.2120 o         1 AD0     -0.834300
     26 H1          0.5970    0.9930    0.8370 h2        1 AD0      0.084700
     27 H2          2.4490    0.0050    0.0130 h1        1 AD0      0.062700
     28 H3          3.3570   -1.0970    1.8600 h1        1 AD0      0.067700
     29 HA          2.5910   -2.1290   -0.3090 ho        1 AD0      0.461000
     30 H4          1.5660   -2.2100    2.7200 h1        1 AD0      0.059700
     31 HB          3.6750    0.8320    2.5670 ho        1 AD0      0.438000
     32 H5         -0.3550   -1.1500    3.6170 h1        1 AD0      0.061700
     33 HC          2.4990   -1.9460    4.5120 ho        1 AD0      0.446000
     34 H4'        -0.8590    1.6200   -0.1560 h1        1 AD0      0.071700
     35 H1'        -1.1000   -0.3360   -3.9050 h2        1 AD0      0.141700
     36 H2'        -1.4630   -1.1510   -1.9320 h1        1 AD0      0.061700
     37 HD         -2.7560    0.2620   -5.1820 ho        1 AD0      0.405000
     38 H3'        -3.0130    1.1770   -1.1760 h1        1 AD0      0.068700
     39 HE         -3.1770   -2.0680   -2.5620 ho        1 AD0      0.391000
     40 HF         -3.5680   -0.0700    0.2920 ho        1 AD0      0.437000
     41 H5'        -0.4920    2.7030   -2.1160 h1        1 AD0      0.062700
@<TRIPOS>BOND
     1    1    2 1   
     2    1    7 1   
     3    1   11 1   
     4    1   26 1   
     5    2    3 1   
     6    2    8 1   
     7    2   27 1   
     8    3    4 1   
     9    3    9 1   
    10    3   28 1   
    11    4    5 1   
    12    4   10 1   
    13    4   30 1   
    14    5    6 1   
    15    5   11 1   
    16    5   32 1   
    17    6   12 1   
    18    6   14 1   
    19    7   17 1   
    20    8   29 1   
    21    9   31 1   
    22   10   33 1   
    23   13   15 1   
    24   13   20 1   
    25   13   23 1   
    26   13   35 1   
    27   15   16 1   
    28   15   21 1   
    29   15   36 1   
    30   16   17 1   
    31   16   22 1   
    32   16   38 1   
    33   17   18 1   
    34   17   34 1   
    35   18   19 1   
    36   18   23 1   
    37   18   41 1   
    38   19   24 1   
    39   19   25 1   
    40   20   37 1   
    41   21   39 1   
    42   22   40 1   
@<TRIPOS>SUBSTRUCTURE
     1 AD0         1 TEMP              0 ****  ****    0 ROOT
