@<TRIPOS>MOLECULE
AD1
   22    22     1     0     0
SMALL
bcc


@<TRIPOS>ATOM
      1 CAG        -1.4180   -0.6670   -1.1760 c3        1 AD1     -0.053000
      2 NAM         0.0430   -0.6670   -1.1760 n3        1 AD1     -0.236000
      3 CAA         0.8790   -0.8130   -2.3180 c3        1 AD1     -0.091000
      4 CAI         0.4680   -0.6670    0.1670 c2        1 AD1      0.107000
      5 CAF         1.9320   -0.3800    0.5030 c1        1 AD1     -0.299000
      6 CAK         2.2770    0.7660    1.4360 c1        1 AD1      0.230000
      7 OAC         3.4360    1.0980    1.5890 o         1 AD1     -0.240000
      8 CAJ         1.1620    1.5800    2.0740 c2        1 AD1      0.202000
      9 OAB         1.4270    2.5850    2.7020 o         1 AD1     -0.218000
     10 CAE        -0.2860    1.2050    1.8160 c2        1 AD1     -0.175000
     11 CAH        -0.6070   -0.0220    0.9700 c2        1 AD1     -0.090000
     12 CAL        -1.8750   -0.0690    0.1500 c3        1 AD1      0.051000
     13 OAD        -2.8690   -0.8410    0.7610 oh        1 AD1     -0.305000
     14 HAG1       -1.7390   -1.5860   -1.2440 h1        1 AD1      0.110000
     15 HAG2       -1.7390   -0.1070   -1.9090 h1        1 AD1      0.110000
     16 HAA1        1.3880    0.0090   -2.4570 h1        1 AD1      0.087000
     17 HAA2        1.4950   -1.5570   -2.1770 h1        1 AD1      0.087000
     18 HAA3        0.3280   -0.9910   -3.1040 h1        1 AD1      0.087000
     19 HAF         2.6300   -0.9960    0.2080 ha        1 AD1      0.163000
     20 HAE        -1.0030    1.6820    2.2750 ha        1 AD1      0.157000
     21 HAL        -2.3200    0.7950    0.0610 h1        1 AD1      0.103000
     22 HOAD       -3.6080   -0.3570    0.8490 ho        1 AD1      0.212000
@<TRIPOS>BOND
     1    1    2 1   
     2    1   12 1   
     3    1   14 1   
     4    1   15 1   
     5    2    3 1   
     6    2    4 1   
     7    3   16 1   
     8    3   17 1   
     9    3   18 1   
    10    4    5 1   
    11    4   11 1   
    12    5   19 1   
    13    6    7 1   
    14    6    8 1   
    15    8    9 1   
    16    8   10 1   
    17   10   11 1   
    18   10   20 1   
    19   11   12 1   
    20   12   13 1   
    21   12   21 1   
    22   13   22 1   
@<TRIPOS>SUBSTRUCTURE
     1 AD1         1 TEMP              0 ****  ****    0 ROOT
