@<TRIPOS>MOLECULE
AD1
   22    23     1     0     0
SMALL
bcc


@<TRIPOS>ATOM
      1 CAG        -2.6780   -0.0340   -0.0880 c3        1 AD1      0.183800
      2 NAM        -1.7600   -1.1170    0.2720 nh        1 AD1     -0.634400
      3 CAA        -2.1510   -2.4560   -0.0570 c3        1 AD1      0.185100
      4 CAI        -0.4350   -0.6930    0.1010 cc        1 AD1      0.189000
      5 CAF         0.7140   -1.4030    0.2360 cd        1 AD1     -0.318200
      6 CAK         2.0150   -0.7500    0.1250 c         1 AD1      0.488300
      7 OAC         3.0780   -1.3750    0.2140 o         1 AD1     -0.479100
      8 CAJ         2.0440    0.7510   -0.1100 c         1 AD1      0.460300
      9 OAB         3.1090    1.3710   -0.1440 o         1 AD1     -0.457100
     10 CAE         0.7490    1.4370   -0.2960 cd        1 AD1     -0.194200
     11 CAH        -0.3990    0.7600   -0.1940 cc        1 AD1     -0.094200
     12 CAL        -1.8190    1.2410   -0.3560 c3        1 AD1      0.166300
     13 OAD        -2.2110    2.2140    0.5900 oh        1 AD1     -0.577800
     14 HAG1       -3.2790   -0.2880   -1.0020 h1        1 AD1      0.070700
     15 HAG2       -3.3720    0.1470    0.7770 h1        1 AD1      0.070700
     16 HAA1       -2.1870   -2.6360   -1.1670 h1        1 AD1      0.047700
     17 HAA2       -1.4240   -3.1770    0.4030 h1        1 AD1      0.047700
     18 HAA3       -3.1720   -2.6400    0.3710 h1        1 AD1      0.047700
     19 HAF         0.7290   -2.4840    0.4410 ha        1 AD1      0.163000
     20 HAE         0.7930    2.5150   -0.5180 ha        1 AD1      0.157000
     21 HAL        -1.9920    1.6350   -1.3950 h1        1 AD1      0.063700
     22 HOAD       -1.5290    2.8980    0.5950 ho        1 AD1      0.413000
@<TRIPOS>BOND
     1    1    2 1   
     2    1   12 1   
     3    1   14 1   
     4    1   15 1   
     5    2    3 1   
     6    2    4 1   
     7    3   16 1   
     8    3   17 1   
     9    3   18 1   
    10    4    5 2   
    11    4   11 1   
    12    5    6 1   
    13    5   19 1   
    14    6    7 2   
    15    6    8 1   
    16    8    9 2   
    17    8   10 1   
    18   10   11 2   
    19   10   20 1   
    20   11   12 1   
    21   12   13 1   
    22   12   21 1   
    23   13   22 1   
@<TRIPOS>SUBSTRUCTURE
     1 AD1         1 TEMP              0 ****  ****    0 ROOT
