@<TRIPOS>MOLECULE
AD1
   22    23     1     0     0
SMALL
bcc


@<TRIPOS>ATOM
      1 CAG         0.0180    0.1500   -0.0720 c3        1 AD1      0.179800
      2 NAM         1.4700    0.3520   -0.0600 nh        1 AD1     -0.630400
      3 CAA         2.2100   -0.1700   -1.1730 c3        1 AD1      0.180100
      4 CAI         1.9560    0.1840    1.2480 cc        1 AD1      0.184000
      5 CAF         3.2390    0.1990    1.6890 cd        1 AD1     -0.311200
      6 CAK         3.5430    0.1130    3.1150 c         1 AD1      0.487300
      7 OAC         4.7010    0.1280    3.5450 o         1 AD1     -0.478100
      8 CAJ         2.3810   -0.0010    4.0880 c         1 AD1      0.460300
      9 OAB         2.5720   -0.0540    5.3050 o         1 AD1     -0.457100
     10 CAE         1.0180   -0.0450    3.5210 cd        1 AD1     -0.194200
     11 CAH         0.8280    0.0480    2.2010 cc        1 AD1     -0.093200
     12 CAL        -0.4560    0.0340    1.4100 c3        1 AD1      0.164300
     13 OAD        -1.1760   -1.1780    1.5190 oh        1 AD1     -0.582800
     14 HAG1       -0.2760   -0.7760   -0.6370 h1        1 AD1      0.071700
     15 HAG2       -0.4530    1.0450   -0.5570 h1        1 AD1      0.071700
     16 HAA1        3.2790    0.1590   -1.0910 h1        1 AD1      0.048367
     17 HAA2        2.1780   -1.2930   -1.2270 h1        1 AD1      0.048367
     18 HAA3        1.7670    0.2490   -2.1150 h1        1 AD1      0.048367
     19 HAF         4.1020    0.2830    1.0130 ha        1 AD1      0.163000
     20 HAE         0.1920   -0.1550    4.2410 ha        1 AD1      0.157000
     21 HAL        -1.1140    0.8980    1.6960 h1        1 AD1      0.068700
     22 HOAD       -1.3470   -1.3230    2.4580 ho        1 AD1      0.412000
@<TRIPOS>BOND
     1    1    2 1   
     2    1   12 1   
     3    1   14 1   
     4    1   15 1   
     5    2    3 1   
     6    2    4 1   
     7    3   16 1   
     8    3   17 1   
     9    3   18 1   
    10    4    5 2   
    11    4   11 1   
    12    5    6 1   
    13    5   19 1   
    14    6    7 2   
    15    6    8 1   
    16    8    9 2   
    17    8   10 1   
    18   10   11 2   
    19   10   20 1   
    20   11   12 1   
    21   12   13 1   
    22   12   21 1   
    23   13   22 1   
@<TRIPOS>SUBSTRUCTURE
     1 AD1         1 TEMP              0 ****  ****    0 ROOT
