@<TRIPOS>MOLECULE
AD1
   22    23     1     0     0
SMALL
bcc


@<TRIPOS>ATOM
      1 CAG         0.0250    0.1300   -0.0770 c3        1 AD1      0.179800
      2 NAM         1.4780    0.3260   -0.0680 nh        1 AD1     -0.630400
      3 CAA         2.2170   -0.2230   -1.1690 c3        1 AD1      0.180100
      4 CAI         1.9620    0.1830    1.2440 cc        1 AD1      0.184000
      5 CAF         3.2450    0.2020    1.6850 cd        1 AD1     -0.311200
      6 CAK         3.5470    0.1450    3.1130 c         1 AD1      0.487300
      7 OAC         4.7050    0.1630    3.5440 o         1 AD1     -0.478100
      8 CAJ         2.3840    0.0570    4.0870 c         1 AD1      0.460300
      9 OAB         2.5730    0.0300    5.3060 o         1 AD1     -0.457100
     10 CAE         1.0210    0.0060    3.5190 cd        1 AD1     -0.194200
     11 CAH         0.8330    0.0720    2.1980 cc        1 AD1     -0.093200
     12 CAL        -0.4500    0.0460    1.4060 c3        1 AD1      0.164300
     13 OAD        -1.1750   -1.1600    1.5390 oh        1 AD1     -0.582800
     14 HAG1       -0.4410    1.0160   -0.5820 h1        1 AD1      0.071700
     15 HAG2       -0.2710   -0.8070   -0.6240 h1        1 AD1      0.071700
     16 HAA1        3.2880    0.1040   -1.0930 h1        1 AD1      0.048367
     17 HAA2        2.1810   -1.3460   -1.2000 h1        1 AD1      0.048367
     18 HAA3        1.7770    0.1790   -2.1210 h1        1 AD1      0.048367
     19 HAF         4.1090    0.2680    1.0090 ha        1 AD1      0.163000
     20 HAE         0.1940   -0.0860    4.2400 ha        1 AD1      0.157000
     21 HAL        -1.1050    0.9190    1.6720 h1        1 AD1      0.068700
     22 HOAD       -1.3480   -1.2850    2.4810 ho        1 AD1      0.412000
@<TRIPOS>BOND
     1    1    2 1   
     2    1   12 1   
     3    1   14 1   
     4    1   15 1   
     5    2    3 1   
     6    2    4 1   
     7    3   16 1   
     8    3   17 1   
     9    3   18 1   
    10    4    5 2   
    11    4   11 1   
    12    5    6 1   
    13    5   19 1   
    14    6    7 2   
    15    6    8 1   
    16    8    9 2   
    17    8   10 1   
    18   10   11 2   
    19   10   20 1   
    20   11   12 1   
    21   12   13 1   
    22   12   21 1   
    23   13   22 1   
@<TRIPOS>SUBSTRUCTURE
     1 AD1         1 TEMP              0 ****  ****    0 ROOT
