@<TRIPOS>MOLECULE
AD1
   22    23     1     0     0
SMALL
bcc


@<TRIPOS>ATOM
      1 CAG         0.0200    0.1250   -0.0730 c3        1 AD1      0.179800
      2 NAM         1.4710    0.3340   -0.0660 nh        1 AD1     -0.630400
      3 CAA         2.2130   -0.2030   -1.1720 c3        1 AD1      0.180100
      4 CAI         1.9590    0.1890    1.2440 cc        1 AD1      0.184000
      5 CAF         3.2430    0.2170    1.6830 cd        1 AD1     -0.311200
      6 CAK         3.5490    0.1550    3.1100 c         1 AD1      0.487300
      7 OAC         4.7080    0.1820    3.5380 o         1 AD1     -0.478100
      8 CAJ         2.3890    0.0520    4.0860 c         1 AD1      0.460300
      9 OAB         2.5810    0.0200    5.3030 o         1 AD1     -0.457100
     10 CAE         1.0260   -0.0080    3.5210 cd        1 AD1     -0.194200
     11 CAH         0.8330    0.0630    2.2000 cc        1 AD1     -0.093200
     12 CAL        -0.4510    0.0300    1.4110 c3        1 AD1      0.164300
     13 OAD        -1.1650   -1.1830    1.5400 oh        1 AD1     -0.582800
     14 HAG1       -0.2690   -0.8120   -0.6240 h1        1 AD1      0.071700
     15 HAG2       -0.4550    1.0100   -0.5730 h1        1 AD1      0.071700
     16 HAA1        2.1870   -1.3260   -1.2080 h1        1 AD1      0.048367
     17 HAA2        3.2810    0.1340   -1.0970 h1        1 AD1      0.048367
     18 HAA3        1.7670    0.1990   -2.1200 h1        1 AD1      0.048367
     19 HAF         4.1060    0.2940    1.0040 ha        1 AD1      0.163000
     20 HAE         0.2010   -0.1110    4.2430 ha        1 AD1      0.157000
     21 HAL        -1.1130    0.8950    1.6830 h1        1 AD1      0.068700
     22 HOAD       -1.3350   -1.3140    2.4810 ho        1 AD1      0.412000
@<TRIPOS>BOND
     1    1    2 1   
     2    1   12 1   
     3    1   14 1   
     4    1   15 1   
     5    2    3 1   
     6    2    4 1   
     7    3   16 1   
     8    3   17 1   
     9    3   18 1   
    10    4    5 2   
    11    4   11 1   
    12    5    6 1   
    13    5   19 1   
    14    6    7 2   
    15    6    8 1   
    16    8    9 2   
    17    8   10 1   
    18   10   11 2   
    19   10   20 1   
    20   11   12 1   
    21   12   13 1   
    22   12   21 1   
    23   13   22 1   
@<TRIPOS>SUBSTRUCTURE
     1 AD1         1 TEMP              0 ****  ****    0 ROOT
