@<TRIPOS>MOLECULE
AD2
   37    39     1     0     0
SMALL
bcc


@<TRIPOS>ATOM
      1 P1          3.1810    4.7940   -3.1740 p5        1 AD2      1.445800
      2 OP1         4.5580    5.3490   -3.2180 o         1 AD2     -0.869000
      3 OP2         2.5000    5.2290   -1.7570 oh        1 AD2     -0.806400
      4 O5'         3.2640    3.1860   -2.8770 os        1 AD2     -0.607200
      5 P2          1.7010   -2.2910   -2.6480 p5        1 AD2      1.322900
      6 O5P         3.0610   -2.9340   -2.5530 o         1 AD2     -0.941500
      7 O4P         0.5970   -3.0580   -1.9630 o         1 AD2     -0.941500
      8 O6P         1.3360   -1.7320   -3.9990 o         1 AD2     -0.941500
      9 N9         -0.7460    2.2660    0.5700 nh        1 AD2     -0.229200
     10 C4         -0.7700    2.7220    1.9010 ca        1 AD2      0.385800
     11 N3          0.0940    2.6270    2.9350 nb        1 AD2     -0.700000
     12 C2         -0.3740    3.1710    4.0950 ca        1 AD2      0.538900
     13 N1         -1.5500    3.7810    4.3640 nb        1 AD2     -0.769000
     14 C6         -2.4360    3.8970    3.3200 ca        1 AD2      0.489200
     15 N6         -3.6830    4.5790    3.5270 nh        1 AD2     -0.884500
     16 C5         -2.1130    3.3730    2.0450 ca        1 AD2     -0.104200
     17 N7         -2.7940    3.2860    0.8450 ne        1 AD2     -0.724800
     18 C8         -1.9800    2.6260   -0.0330 c1        1 AD2      0.129400
     19 C2'        -0.0900    0.3920   -1.0020 c3        1 AD2     -0.138400
     20 C5'         2.0910    2.4160   -2.9530 c3        1 AD2      0.178400
     21 C4'         1.9460    1.5310   -1.7090 c3        1 AD2      0.089100
     22 O4'         1.3010    2.3100   -0.6780 os        1 AD2     -0.466600
     23 C1'         0.3310    1.4770    0.0050 c3        1 AD2      0.266800
     24 C3'         1.1210    0.2230   -1.9540 c3        1 AD2      0.212100
     25 O3'         1.8740   -0.8820   -1.6460 os        1 AD2     -0.568200
     26 OP3         2.2230    5.0740   -4.2700 o         1 AD2     -0.869000
     27 H2          0.3220    3.0990    4.9510 h5        1 AD2     -0.009900
     28 H61        -4.2400    4.0640    4.1840 hn        1 AD2      0.337800
     29 H62        -4.1750    4.6100    2.6530 hn        1 AD2      0.337800
     30 H8          2.0430    4.5230   -1.3070 ho        1 AD2      0.454000
     31 H2'1       -0.9920    0.7090   -1.5790 hc        1 AD2      0.061700
     32 H2'2       -0.3110   -0.5640   -0.4710 hc        1 AD2      0.061700
     33 H5'1        1.2040    3.0950   -3.0720 h1        1 AD2      0.039200
     34 H5'2        2.1760    1.7340   -3.8460 h1        1 AD2      0.039200
     35 H4'         2.9640    1.2640   -1.3170 h1        1 AD2      0.065700
     36 H1'         0.8890    1.0040    0.8700 h2        1 AD2      0.043700
     37 H3'         0.7680    0.1650   -3.0240 h1        1 AD2      0.069700
@<TRIPOS>BOND
     1    1    2 1   
     2    1    3 1   
     3    1    4 1   
     4    1   26 1   
     5    3   30 1   
     6    4   20 1   
     7    5    6 1   
     8    5    7 1   
     9    5    8 1   
    10    5   25 1   
    11    9   10 1   
    12    9   18 2   
    13    9   23 1   
    14   10   11 ar  
    15   10   16 ar  
    16   11   12 ar  
    17   12   13 ar  
    18   12   27 1   
    19   13   14 ar  
    20   14   15 1   
    21   14   16 ar  
    22   15   28 1   
    23   15   29 1   
    24   16   17 1   
    25   17   18 2   
    26   19   23 1   
    27   19   24 1   
    28   19   31 1   
    29   19   32 1   
    30   20   21 1   
    31   20   33 1   
    32   20   34 1   
    33   21   22 1   
    34   21   24 1   
    35   21   35 1   
    36   22   23 1   
    37   23   36 1   
    38   24   25 1   
    39   24   37 1   
@<TRIPOS>SUBSTRUCTURE
     1 AD2         1 TEMP              0 ****  ****    0 ROOT
