@<TRIPOS>MOLECULE
AD2
   37    31     1     0     0
SMALL
bcc


@<TRIPOS>ATOM
      1 P1          2.9890    4.6240   -0.6240 p3        1 AD2      2.514000
      2 OP1         4.3720    4.9070   -1.2150 o         1 AD2     -1.256500
      3 OP2         3.0250    4.8310    0.8520 os        1 AD2     -1.260500
      4 O5'         2.5890    3.1690   -0.9300 os        1 AD2     -0.749000
      5 P2         -2.4280    2.3890   -2.6010 p3        1 AD2      2.516000
      6 O5P        -2.4880    3.3750   -3.7330 os        1 AD2     -1.260500
      7 O4P        -3.3620    1.3100   -2.8520 o         1 AD2     -1.264000
      8 O6P        -2.7900    3.0690   -1.3260 o         1 AD2     -1.264000
      9 N9         -0.1590   -1.2300    0.5940 n2        1 AD2     -0.157000
     10 C4         -0.1290   -2.5730    0.8350 c1        1 AD2      0.019000
     11 N3         -0.0030   -3.6390    0.0090 n1        1 AD2     -0.150000
     12 C2         -0.1130   -4.9090    0.5060 c1        1 AD2     -0.069000
     13 N1         -0.3520   -5.1040    1.8480 n1        1 AD2     -0.284000
     14 C6         -0.4770   -4.0520    2.6650 c1        1 AD2      0.101000
     15 N6         -0.9600   -4.5840    3.9560 n2        1 AD2     -0.306000
     16 C5         -0.3660   -2.7660    2.1610 c1        1 AD2     -0.191000
     17 N7         -0.5400   -1.5510    2.7370 n1        1 AD2     -0.211000
     18 C8         -0.4130   -0.6010    1.7700 c1        1 AD2      0.039000
     19 C2'        -0.8220   -0.1170   -1.3250 c3        1 AD2     -0.244000
     20 C5'         1.3420    2.6520   -0.3740 c3        1 AD2      0.041000
     21 C4'         1.0180    1.2900   -1.0300 c3        1 AD2     -0.028000
     22 O4'         1.3580    0.3350   -0.2620 os        1 AD2     -0.263000
     23 C1'         0.2960   -0.7840   -0.5190 c2        1 AD2      0.164000
     24 C3'        -0.5770    1.1510   -1.2500 c3        1 AD2      0.109000
     25 O3'        -0.9690    1.8090   -2.4900 os        1 AD2     -0.729000
     26 OP3         1.9730    5.5690   -1.2410 o         1 AD2     -1.256500
     27 H2         -0.0200   -5.6950   -0.1060 ha        1 AD2      0.145000
     28 H61        -1.1060   -5.5160    4.0600 hn        1 AD2      0.168000
     29 H62        -1.1550   -4.0160    4.6360 hn        1 AD2      0.168000
     30 H8         -0.4030    0.3800    1.9180 DU        1 AD2      0.330000
     31 H2'1       -1.7320   -0.3260   -0.9140 hc        1 AD2      0.109500
     32 H2'2       -0.7920   -0.4320   -2.3110 hc        1 AD2      0.109500
     33 H5'1        1.4330    2.5390    0.5580 h1        1 AD2      0.045000
     34 H5'2        0.6270    3.2730   -0.5540 h1        1 AD2      0.045000
     35 H4'         1.4910    1.2120   -1.9030 h1        1 AD2      0.116000
     36 H1'         0.7020   -1.5330   -1.0520 h4        1 AD2      0.098000
     37 H3'        -1.0550    1.5440   -0.4930 h1        1 AD2      0.103000
@<TRIPOS>BOND
     1    1    2 1   
     2    1    4 1   
     3    1   26 1   
     4    4   20 1   
     5    5    7 1   
     6    5    8 1   
     7    5   25 1   
     8    9   10 1   
     9    9   18 1   
    10   10   16 1   
    11   11   12 1   
    12   12   27 1   
    13   13   14 1   
    14   14   16 1   
    15   15   28 1   
    16   15   29 1   
    17   17   18 1   
    18   19   23 1   
    19   19   24 1   
    20   19   31 1   
    21   19   32 1   
    22   20   21 1   
    23   20   33 1   
    24   20   34 1   
    25   21   22 1   
    26   21   24 1   
    27   21   35 1   
    28   22   23 1   
    29   23   36 1   
    30   24   25 1   
    31   24   37 1   
@<TRIPOS>SUBSTRUCTURE
     1 AD2         1 TEMP              0 ****  ****    0 ROOT
