@<TRIPOS>MOLECULE
AD3
   33    35     1     0     0
SMALL
bcc


@<TRIPOS>ATOM
      1 O5'        -0.1860   -0.9460    1.3510 oh        1 AD3     -0.587800
      2 C5'         1.1520   -1.0560    0.9200 c3        1 AD3      0.120400
      3 C4'         2.0470   -0.0540    1.6480 c3        1 AD3      0.085100
      4 O4'         2.0370   -0.3340    3.0540 os        1 AD3     -0.422600
      5 C3'         3.5060   -0.1130    1.1650 c3        1 AD3      0.082100
      6 O3'         3.8700    1.1940    0.7630 oh        1 AD3     -0.586800
      7 C2'         4.3370   -0.5580    2.3910 c3        1 AD3      0.081100
      8 O2'         5.1740    0.4770    2.8460 oh        1 AD3     -0.577800
      9 C1'         3.2780   -0.9250    3.4790 c3        1 AD3      0.218800
     10 N9          3.1490   -2.3370    3.7130 na        1 AD3     -0.192300
     11 C8          3.1750   -3.3860    2.7530 cc        1 AD3      0.395700
     12 N7          2.8810   -4.5830    3.2680 nd        1 AD3     -0.538100
     13 C5          2.6130   -4.3450    4.6320 ca        1 AD3     -0.128900
     14 C6          2.2520   -5.2360    5.6950 ca        1 AD3      0.727200
     15 N6          2.2000   -6.5980    5.4630 nh        1 AD3     -0.944500
     16 N1          2.0180   -4.7350    6.9500 nb        1 AD3     -0.758000
     17 C2          2.1660   -3.4140    7.1630 ca        1 AD3      0.463200
     18 C3          2.5340   -2.4500    6.2150 ca        1 AD3     -0.313300
     19 C4          2.7580   -2.9330    4.9210 ca        1 AD3      0.016800
     20 HO5'       -0.1870   -1.0680    2.3110 ho        1 AD3      0.416000
     21 H5'1        1.1260   -0.8230   -0.1780 h1        1 AD3      0.052700
     22 H5'2        1.5280   -2.1020    1.0830 h1        1 AD3      0.052700
     23 H4'         1.6250    0.9860    1.5520 h1        1 AD3      0.111700
     24 H3'         3.6320   -0.8300    0.3110 h1        1 AD3      0.061700
     25 HO3'        4.8150    1.1730    0.5580 ho        1 AD3      0.421000
     26 H2'         5.0340   -1.4060    2.1550 h1        1 AD3      0.107700
     27 HO2'        4.6290    1.2700    2.9620 ho        1 AD3      0.423000
     28 H1'         3.5120   -0.4260    4.4680 h2        1 AD3      0.113700
     29 H8          3.4430   -3.1950    1.7080 h5        1 AD3      0.063800
     30 HN61        1.7820   -7.1800    6.1490 hn        1 AD3      0.432800
     31 HN62        2.1430   -6.8900    4.5180 hn        1 AD3      0.432800
     32 H2          1.9620   -3.1040    8.2060 h4        1 AD3      0.022100
     33 H3          2.6270   -1.3920    6.4760 ha        1 AD3      0.148000
@<TRIPOS>BOND
     1    1    2 1   
     2    1   20 1   
     3    2    3 1   
     4    2   21 1   
     5    2   22 1   
     6    3    4 1   
     7    3    5 1   
     8    3   23 1   
     9    4    9 1   
    10    5    6 1   
    11    5    7 1   
    12    5   24 1   
    13    6   25 1   
    14    7    8 1   
    15    7    9 1   
    16    7   26 1   
    17    8   27 1   
    18    9   10 1   
    19    9   28 1   
    20   10   11 1   
    21   10   19 1   
    22   11   12 2   
    23   11   29 1   
    24   12   13 1   
    25   13   14 ar  
    26   13   19 ar  
    27   14   15 1   
    28   14   16 ar  
    29   15   30 1   
    30   15   31 1   
    31   16   17 ar  
    32   17   18 ar  
    33   17   32 1   
    34   18   19 ar  
    35   18   33 1   
@<TRIPOS>SUBSTRUCTURE
     1 AD3         1 TEMP              0 ****  ****    0 ROOT
