@<TRIPOS>MOLECULE
AD3
   33    35     1     0     0
SMALL
bcc


@<TRIPOS>ATOM
      1 O5'        -0.1830   -0.8980    1.2630 oh        1 AD3     -0.587800
      2 C5'         1.1600   -0.9960    0.8460 c3        1 AD3      0.121400
      3 C4'         2.0500   -0.0290    1.6270 c3        1 AD3      0.055100
      4 O4'         2.0230   -0.3710    3.0180 os        1 AD3     -0.421600
      5 C3'         3.5130   -0.0590    1.1540 c3        1 AD3      0.087100
      6 O3'         3.9980    1.2170    0.8080 oh        1 AD3     -0.584800
      7 C2'         4.3160   -0.6500    2.3370 c3        1 AD3      0.078100
      8 O2'         5.1730    0.3230    2.9010 oh        1 AD3     -0.588800
      9 C1'         3.2600   -0.9760    3.4380 c3        1 AD3      0.252800
     10 N9          3.1060   -2.3810    3.6920 na        1 AD3     -0.193300
     11 C8          3.0510   -3.4420    2.7460 cc        1 AD3      0.396700
     12 N7          2.7490   -4.6240    3.2920 nd        1 AD3     -0.539100
     13 C5          2.5610   -4.3620    4.6640 ca        1 AD3     -0.127900
     14 C6          2.2310   -5.2290    5.7560 ca        1 AD3      0.726200
     15 N6          2.1270   -6.5920    5.5460 nv        1 AD3     -0.943500
     16 N1          2.0780   -4.7080    7.0160 nb        1 AD3     -0.757000
     17 C2          2.2770   -3.3890    7.2020 ca        1 AD3      0.462200
     18 C3          2.6220   -2.4480    6.2240 ca        1 AD3     -0.312300
     19 C4          2.7630   -2.9520    4.9270 ca        1 AD3      0.016800
     20 HO5'       -0.1980   -1.0620    2.2160 ho        1 AD3      0.417000
     21 H5'1        1.1500   -0.7180   -0.2420 h1        1 AD3      0.052200
     22 H5'2        1.5300   -2.0490    0.9720 h1        1 AD3      0.052200
     23 H4'         1.6190    1.0110    1.5740 h1        1 AD3      0.098700
     24 H3'         3.6360   -0.6720    0.2210 h1        1 AD3      0.097700
     25 HO3'        3.8810    1.7950    1.5760 ho        1 AD3      0.420000
     26 H2'         4.9100   -1.5480    2.0210 h1        1 AD3      0.072700
     27 HO2'        5.7950    0.5840    2.2060 ho        1 AD3      0.426000
     28 H1'         3.5180   -0.4650    4.4150 h2        1 AD3      0.123700
     29 H8          3.2680   -3.2730    1.6850 h5        1 AD3      0.063800
     30 HN61        2.0090   -6.8920    4.6080 hn        1 AD3      0.432300
     31 HN62        1.7270   -7.1520    6.2600 hn        1 AD3      0.432300
     32 H2          2.1370   -3.0610    8.2510 h4        1 AD3      0.022100
     33 H3          2.7620   -1.3900    6.4670 ha        1 AD3      0.149000
@<TRIPOS>BOND
     1    1    2 1   
     2    1   20 1   
     3    2    3 1   
     4    2   21 1   
     5    2   22 1   
     6    3    4 1   
     7    3    5 1   
     8    3   23 1   
     9    4    9 1   
    10    5    6 1   
    11    5    7 1   
    12    5   24 1   
    13    6   25 1   
    14    7    8 1   
    15    7    9 1   
    16    7   26 1   
    17    8   27 1   
    18    9   10 1   
    19    9   28 1   
    20   10   11 1   
    21   10   19 1   
    22   11   12 2   
    23   11   29 1   
    24   12   13 1   
    25   13   14 ar  
    26   13   19 ar  
    27   14   15 1   
    28   14   16 ar  
    29   15   30 1   
    30   15   31 1   
    31   16   17 ar  
    32   17   18 ar  
    33   17   32 1   
    34   18   19 ar  
    35   18   33 1   
@<TRIPOS>SUBSTRUCTURE
     1 AD3         1 TEMP              0 ****  ****    0 ROOT
