@<TRIPOS>MOLECULE
AD3
   33    35     1     0     0
SMALL
bcc


@<TRIPOS>ATOM
      1 O5'         2.0830    0.0200   -4.1260 oh        1 AD3     -0.599800
      2 C5'         1.6610   -0.3950   -2.8420 c3        1 AD3      0.108400
      3 C4'         0.1440   -0.5930   -2.8280 c3        1 AD3      0.066100
      4 O4'        -0.2410   -1.1780   -1.5820 os        1 AD3     -0.405600
      5 C3'        -0.6250    0.7320   -3.0040 c3        1 AD3      0.084100
      6 O3'        -1.3700    0.7560   -4.2040 oh        1 AD3     -0.597800
      7 C2'        -1.6110    0.7950   -1.8170 c3        1 AD3      0.126100
      8 O2'        -2.9300    0.4070   -2.1310 oh        1 AD3     -0.585800
      9 C1'        -1.0800   -0.2880   -0.8220 c3        1 AD3      0.245800
     10 N9         -0.3770    0.2640    0.3030 na        1 AD3     -0.190300
     11 C8          0.6200    1.2790    0.2890 cc        1 AD3      0.397700
     12 N7          1.2080    1.4630    1.4740 nd        1 AD3     -0.542100
     13 C5          0.6120    0.5170    2.3340 ca        1 AD3     -0.126900
     14 C6          0.8200    0.2390    3.7240 ca        1 AD3      0.722200
     15 N6          1.6810    1.0310    4.4630 nh        1 AD3     -0.943500
     16 N1          0.1180   -0.7730    4.3270 nb        1 AD3     -0.758000
     17 C2         -0.7830   -1.4620    3.6010 ca        1 AD3      0.460200
     18 C3         -1.0910   -1.2700    2.2480 ca        1 AD3     -0.310300
     19 C4         -0.3710   -0.2580    1.6050 ca        1 AD3      0.016800
     20 HO5'        2.0720   -0.7570   -4.6980 ho        1 AD3      0.403000
     21 H5'1        1.9670    0.4340   -2.1490 h1        1 AD3      0.064700
     22 H5'2        2.1690   -1.3440   -2.5280 h1        1 AD3      0.064700
     23 H4'        -0.1590   -1.3310   -3.6220 h1        1 AD3      0.079700
     24 H3'         0.0830    1.6050   -2.9750 h1        1 AD3      0.063700
     25 HO3'       -0.7300    0.7790   -4.9260 ho        1 AD3      0.427000
     26 H2'        -1.6300    1.8250   -1.3710 h1        1 AD3      0.072700
     27 HO2'       -3.1450    0.7560   -3.0070 ho        1 AD3      0.436000
     28 H1'        -1.9240   -0.9380   -0.4370 h2        1 AD3      0.126700
     29 H8          0.8360    1.8470   -0.6240 h5        1 AD3      0.063800
     30 HN61        1.9540    0.7170    5.3640 hn        1 AD3      0.430800
     31 HN62        2.3350    1.5740    3.9530 hn        1 AD3      0.430800
     32 H2         -1.3060   -2.2540    4.1730 h4        1 AD3      0.021100
     33 H3         -1.8410   -1.8810    1.7360 ha        1 AD3      0.149000
@<TRIPOS>BOND
     1    1    2 1   
     2    1   20 1   
     3    2    3 1   
     4    2   21 1   
     5    2   22 1   
     6    3    4 1   
     7    3    5 1   
     8    3   23 1   
     9    4    9 1   
    10    5    6 1   
    11    5    7 1   
    12    5   24 1   
    13    6   25 1   
    14    7    8 1   
    15    7    9 1   
    16    7   26 1   
    17    8   27 1   
    18    9   10 1   
    19    9   28 1   
    20   10   11 1   
    21   10   19 1   
    22   11   12 2   
    23   11   29 1   
    24   12   13 1   
    25   13   14 ar  
    26   13   19 ar  
    27   14   15 1   
    28   14   16 ar  
    29   15   30 1   
    30   15   31 1   
    31   16   17 ar  
    32   17   18 ar  
    33   17   32 1   
    34   18   19 ar  
    35   18   33 1   
@<TRIPOS>SUBSTRUCTURE
     1 AD3         1 TEMP              0 ****  ****    0 ROOT
