@<TRIPOS>MOLECULE
AD3
   34    36     1     0     0
SMALL
bcc


@<TRIPOS>ATOM
      1 O5'         0.6560   -1.8210    0.4140 oh        1 AD3     -0.599800
      2 C5'         1.9110   -1.2040    0.2230 c3        1 AD3      0.110400
      3 C4'         2.1600   -0.1140    1.2670 c3        1 AD3      0.083100
      4 O4'         1.4810   -0.4500    2.4900 os        1 AD3     -0.393600
      5 C3'         3.6540    0.0610    1.5860 c3        1 AD3      0.093100
      6 O3'         3.9290    1.4470    1.5800 oh        1 AD3     -0.583800
      7 C2'         3.8430   -0.5080    3.0130 c3        1 AD3      0.081100
      8 O2'         4.4270    0.4070    3.9010 oh        1 AD3     -0.581800
      9 C1'         2.3970   -0.8670    3.4960 c3        1 AD3      0.213800
     10 N9          2.2100   -2.2800    3.7870 na        1 AD3     -0.175300
     11 C8          1.3240   -3.1830    3.1650 cc        1 AD3      0.516700
     12 N7          1.2870   -4.3930    3.7610 nd        1 AD3     -0.613100
     13 C5          2.1790   -4.2920    4.8370 ca        1 AD3     -0.016900
     14 C6          2.5780   -5.2020    5.8340 ca        1 AD3      0.461200
     15 N6          1.9820   -6.5500    5.8130 n4        1 AD3     -0.805300
     16 N1          3.4750   -4.8900    6.8020 nb        1 AD3     -0.641000
     17 C2          4.0010   -3.6500    6.7980 ca        1 AD3      0.415200
     18 C3          3.6990   -2.6350    5.8670 ca        1 AD3     -0.169300
     19 C4          2.7750   -2.9550    4.8750 ca        1 AD3     -0.039200
     20 HO5'       -0.0200   -1.1320    0.3710 ho        1 AD3      0.422000
     21 H5'1        2.6510   -2.0440    0.3160 h1        1 AD3      0.064700
     22 H5'2        1.9820   -0.7550   -0.8030 h1        1 AD3      0.064700
     23 H4'         1.6960    0.8630    0.9500 h1        1 AD3      0.118700
     24 H3'         4.3020   -0.4800    0.8480 h1        1 AD3      0.078700
     25 HO3'        4.8900    1.5510    1.5390 ho        1 AD3      0.430000
     26 H2'         4.5330   -1.3950    3.0150 h1        1 AD3      0.103700
     27 HO2'        4.0160    1.2760    3.7610 ho        1 AD3      0.436000
     28 H1'         2.1280   -0.2830    4.4300 h2        1 AD3      0.112700
     29 H8          0.7400   -2.8860    2.2680 h5        1 AD3      0.136800
     30 HN61        0.9650   -6.4550    5.9120 hn        1 AD3      0.472800
     31 HN62        2.1930   -6.9840    4.9070 hn        1 AD3      0.472800
     32 H2          4.7270   -3.4600    7.6150 h4        1 AD3      0.065100
     33 H3          4.1780   -1.6450    5.9290 ha        1 AD3      0.191000
     34 H63         2.3530   -7.1330    6.5740 hn        1 AD3      0.472800
@<TRIPOS>BOND
     1    1    2 1   
     2    1   20 1   
     3    2    3 1   
     4    2   21 1   
     5    2   22 1   
     6    3    4 1   
     7    3    5 1   
     8    3   23 1   
     9    4    9 1   
    10    5    6 1   
    11    5    7 1   
    12    5   24 1   
    13    6   25 1   
    14    7    8 1   
    15    7    9 1   
    16    7   26 1   
    17    8   27 1   
    18    9   10 1   
    19    9   28 1   
    20   10   11 1   
    21   10   19 1   
    22   11   12 2   
    23   11   29 1   
    24   12   13 1   
    25   13   14 ar  
    26   13   19 ar  
    27   14   15 1   
    28   14   16 ar  
    29   15   30 1   
    30   15   31 1   
    31   15   34 1   
    32   16   17 ar  
    33   17   18 ar  
    34   17   32 1   
    35   18   19 ar  
    36   18   33 1   
@<TRIPOS>SUBSTRUCTURE
     1 AD3         1 TEMP              0 ****  ****    0 ROOT
