@<TRIPOS>MOLECULE
AD3
   33    31     1     0     0
SMALL
bcc


@<TRIPOS>ATOM
      1 O5'        -2.8820    2.2760   -2.9580 oh        1 AD3     -0.593800
      2 C5'        -1.4940    2.2360   -2.9710 c3        1 AD3      0.110400
      3 C4'        -0.9610    2.2390   -1.5260 c3        1 AD3      0.091100
      4 O4'        -1.1840    1.0830   -0.9540 os        1 AD3     -0.404600
      5 C3'         0.5590    2.3950   -1.5280 c3        1 AD3      0.127100
      6 O3'         0.9020    3.5880   -1.0750 oh        1 AD3     -0.586800
      7 C2'         1.1020    1.2580   -0.5650 c3        1 AD3      0.078100
      8 O2'         2.0640    1.8300    0.4160 oh        1 AD3     -0.587800
      9 C1'         0.0750    0.8180    0.0360 c3        1 AD3      0.219800
     10 N9          0.2160   -0.5860    0.2870 n3        1 AD3     -0.146400
     11 C8          0.2210   -1.4500   -0.7480 c1        1 AD3      0.165400
     12 N7          0.1640   -2.7170   -0.2400 ne        1 AD3     -0.386400
     13 C5          0.1230   -2.6220    1.1200 cg        1 AD3     -0.148000
     14 C6          0.0400   -3.5950    2.1310 c1        1 AD3      0.583600
     15 N6          0.2330   -5.0230    2.2500 n3        1 AD3     -0.804400
     16 N1         -0.0080   -3.2190    3.4310 n1        1 AD3     -0.555800
     17 C2          0.0240   -1.9110    3.7550 c1        1 AD3     -0.068500
     18 C3          0.1070   -0.9400    2.7480 c1        1 AD3     -0.068500
     19 C4          0.1540   -1.3140    1.4480 c1        1 AD3      0.003700
     20 HO5'       -3.1830    2.4370   -3.7860 ho        1 AD3      0.407000
     21 H5'1       -1.2050    1.4480   -3.4110 h1        1 AD3      0.058200
     22 H5'2       -1.1650    2.9880   -3.4260 h1        1 AD3      0.058200
     23 H4'        -1.3810    2.9670   -1.0040 h1        1 AD3      0.098700
     24 H3'         0.9170    2.2590   -2.4590 h1        1 AD3      0.077700
     25 HO3'        1.3450    4.0200   -1.6980 ho        1 AD3      0.429000
     26 H2'         1.5080    0.5760   -1.0620 h1        1 AD3      0.065700
     27 HO2'        2.8550    1.4610    0.3020 ho        1 AD3      0.423000
     28 H1'        -0.0540    1.3030    0.8850 h2        1 AD3      0.106700
     29 H8          0.2650   -1.2150   -1.6810 DU        1 AD3      0.197000
     30 HN61        0.3210   -5.5090    1.5360 hn        1 AD3      0.430800
     31 HN62        0.2030   -5.4240    3.0760 hn        1 AD3      0.430800
     32 H2         -0.0110   -1.6400    4.6940 ha        1 AD3      0.095000
     33 H3          0.1300   -0.0190    2.9780 ha        1 AD3      0.095000
@<TRIPOS>BOND
     1    1    2 1   
     2    1   20 1   
     3    2    3 1   
     4    2   21 1   
     5    2   22 1   
     6    3    4 1   
     7    3    5 1   
     8    3   23 1   
     9    4    9 1   
    10    5    6 1   
    11    5    7 1   
    12    5   24 1   
    13    6   25 1   
    14    7    8 1   
    15    7    9 1   
    16    7   26 1   
    17    8   27 1   
    18    9   10 1   
    19    9   28 1   
    20   10   11 2   
    21   10   19 1   
    22   11   12 2   
    23   12   13 1   
    24   13   19 3   
    25   14   15 1   
    26   14   16 3   
    27   15   30 1   
    28   15   31 1   
    29   17   18 3   
    30   17   32 1   
    31   18   33 1   
@<TRIPOS>SUBSTRUCTURE
     1 AD3         1 TEMP              0 ****  ****    0 ROOT
