@<TRIPOS>MOLECULE
AD5
   56    60     1     0     0
SMALL
bcc


@<TRIPOS>ATOM
      1 CAK         0.8120   -0.5760   -0.8530 c3        1 AD5     -0.093900
      2 CAG         1.7450   -0.2740    0.2980 c3        1 AD5     -0.076900
      3 CAF         1.1210    0.7040    1.2760 c3        1 AD5     -0.078400
      4 CAH        -0.3910    0.5810    1.3040 c3        1 AD5     -0.076900
      5 CAL        -0.8350   -0.8410    1.0470 c3        1 AD5     -0.093900
      6 CBB        -0.4720   -1.2880   -0.3840 c3        1 AD5      0.219500
      7 N6         -0.3490   -2.7270   -0.5210 nu        1 AD5     -0.837900
      8 C6         -1.4370   -3.5790   -0.4650 ca        1 AD5      0.778200
      9 N1         -2.7170   -3.1110   -0.5500 nb        1 AD5     -0.815000
     10 C5         -1.2080   -4.9940   -0.3850 ca        1 AD5     -0.259200
     11 N7         -0.0490   -5.7740   -0.2620 nc        1 AD5     -0.534100
     12 C8         -0.4830   -7.0430   -0.2570 cd        1 AD5      0.390700
     13 N9         -1.8880   -7.1600   -0.3720 na        1 AD5     -0.387000
     14 C4         -2.3820   -5.8520   -0.4540 ca        1 AD5      0.486800
     15 N3         -3.6620   -5.4100   -0.5760 nb        1 AD5     -0.790000
     16 C2         -3.7580   -4.0280   -0.5940 ca        1 AD5      0.914900
     17 N2         -5.0840   -3.5230   -0.5910 nu        1 AD5     -0.699300
     18 CAV        -5.3760   -2.2170   -1.0550 ca        1 AD5      0.106600
     19 CAB        -6.2410   -2.0310   -2.1530 ca        1 AD5     -0.114500
     20 CAD        -6.6170   -0.7570   -2.5580 ca        1 AD5     -0.152500
     21 CAA        -4.8950   -1.0750   -0.3840 ca        1 AD5     -0.114500
     22 CAC        -5.2580    0.1970   -0.8030 ca        1 AD5     -0.152500
     23 CAW        -6.1270    0.3900   -1.9020 ca        1 AD5      0.108600
     24 NBC        -6.3970    1.7200   -2.3320 nh        1 AD5     -0.618000
     25 CAM        -7.0660    2.5660   -1.3510 c3        1 AD5      0.142800
     26 CAI        -8.5980    2.5530   -1.4360 c3        1 AD5      0.092900
     27 OAU        -9.0540    2.8010   -2.7620 os        1 AD5     -0.411600
     28 CAJ        -8.4990    1.8980   -3.7120 c3        1 AD5      0.092900
     29 CAN        -6.9660    1.8950   -3.6570 c3        1 AD5      0.142800
     30 HAK1        0.5040    0.3850   -1.3420 hc        1 AD5      0.052450
     31 HAK2        1.3490   -1.1820   -1.6280 hc        1 AD5      0.052450
     32 HAG1        1.9980   -1.2290    0.8300 hc        1 AD5      0.041200
     33 HAG2        2.7050    0.1500   -0.0980 hc        1 AD5      0.041200
     34 HBB        -1.3090   -0.9570   -1.0710 h1        1 AD5      0.081700
     35 HAF1        1.3990    1.7540    0.9950 hc        1 AD5      0.039700
     36 HAF2        1.5370    0.5170    2.3000 hc        1 AD5      0.039700
     37 HAH1       -0.8390    1.2560    0.5280 hc        1 AD5      0.041200
     38 HAH2       -0.7770    0.9180    2.3010 hc        1 AD5      0.041200
     39 HAL1       -1.9450   -0.9250    1.1810 hc        1 AD5      0.052450
     40 HAL2       -0.3530   -1.5140    1.8040 hc        1 AD5      0.052450
     41 H6          0.5190   -3.1210   -0.2280 hn        1 AD5      0.441800
     42 H8          0.1530   -7.9310   -0.1750 h5        1 AD5      0.070800
     43 H9         -2.4210   -7.9880   -0.3900 hn        1 AD5      0.315700
     44 H2         -5.7710   -4.2010   -0.8580 hn        1 AD5      0.431800
     45 HAB        -6.6400   -2.9000   -2.7010 ha        1 AD5      0.143000
     46 HAA        -4.2160   -1.1800    0.4780 ha        1 AD5      0.143000
     47 HAD        -7.3080   -0.6640   -3.4100 ha        1 AD5      0.135500
     48 HAC        -4.8490    1.0680   -0.2660 ha        1 AD5      0.135500
     49 HAM1       -6.7050    3.6160   -1.5430 h1        1 AD5      0.065700
     50 HAM2       -6.7590    2.2670   -0.3120 h1        1 AD5      0.065700
     51 HAN1       -6.6000    2.9010   -4.0140 h1        1 AD5      0.065700
     52 HAN2       -6.5670    1.1130   -4.3570 h1        1 AD5      0.065700
     53 HAI1       -9.0290    3.3950   -0.8340 h1        1 AD5      0.053700
     54 HAI2       -9.0110    1.5730   -1.0770 h1        1 AD5      0.053700
     55 HAJ1       -8.9120    0.8700   -3.5340 h1        1 AD5      0.053700
     56 HAJ2       -8.8540    2.2860   -4.7030 h1        1 AD5      0.053700
@<TRIPOS>BOND
     1    1    2 1   
     2    1    6 1   
     3    1   30 1   
     4    1   31 1   
     5    2    3 1   
     6    2   32 1   
     7    2   33 1   
     8    3    4 1   
     9    3   35 1   
    10    3   36 1   
    11    4    5 1   
    12    4   37 1   
    13    4   38 1   
    14    5    6 1   
    15    5   39 1   
    16    5   40 1   
    17    6    7 1   
    18    6   34 1   
    19    7    8 1   
    20    7   41 1   
    21    8    9 ar  
    22    8   10 ar  
    23    9   16 ar  
    24   10   11 1   
    25   10   14 ar  
    26   11   12 2   
    27   12   13 1   
    28   12   42 1   
    29   13   14 1   
    30   13   43 1   
    31   14   15 ar  
    32   15   16 ar  
    33   16   17 1   
    34   17   18 1   
    35   17   44 1   
    36   18   19 ar  
    37   18   21 ar  
    38   19   20 ar  
    39   19   45 1   
    40   20   23 ar  
    41   20   47 1   
    42   21   22 ar  
    43   21   46 1   
    44   22   23 ar  
    45   22   48 1   
    46   23   24 1   
    47   24   25 1   
    48   24   29 1   
    49   25   26 1   
    50   25   49 1   
    51   25   50 1   
    52   26   27 1   
    53   26   53 1   
    54   26   54 1   
    55   27   28 1   
    56   28   29 1   
    57   28   55 1   
    58   28   56 1   
    59   29   51 1   
    60   29   52 1   
@<TRIPOS>SUBSTRUCTURE
     1 AD5         1 TEMP              0 ****  ****    0 ROOT
