@<TRIPOS>MOLECULE
AD5
   56    60     1     0     0
SMALL
bcc


@<TRIPOS>ATOM
      1 CAK         7.6950    1.3630    1.7210 c3        1 AD5     -0.094400
      2 CAG         6.2440    1.1840    2.1060 c3        1 AD5     -0.076900
      3 CAF         5.9580   -0.2390    2.5450 c3        1 AD5     -0.078400
      4 CAH         7.1780   -0.8900    3.1680 c3        1 AD5     -0.076900
      5 CAL         8.0340    0.1210    3.8970 c3        1 AD5     -0.094400
      6 CBB         8.6420    1.1470    2.9190 c3        1 AD5      0.219500
      7 N6          8.9810    2.4100    3.5470 nh        1 AD5     -0.837900
      8 C6         10.0270    2.5390    4.4440 ca        1 AD5      0.777200
      9 N1         10.9770    1.5670    4.5790 nb        1 AD5     -0.815000
     10 C5         10.1510    3.7560    5.1940 ca        1 AD5     -0.259200
     11 N7          9.3550    4.9060    5.3000 nc        1 AD5     -0.534100
     12 C8         10.0110    5.7070    6.1500 cd        1 AD5      0.390700
     13 N9         11.2220    5.1530    6.6290 na        1 AD5     -0.387000
     14 C4         11.3360    3.8920    6.0300 ca        1 AD5      0.486800
     15 N3         12.3120    2.9540    6.1530 nb        1 AD5     -0.790000
     16 C2         12.0560    1.8060    5.4190 ca        1 AD5      0.914900
     17 N2         12.9820    0.7510    5.6210 nh        1 AD5     -0.698300
     18 CAV        13.1530   -0.2730    4.6570 ca        1 AD5      0.101600
     19 CAB        14.4040   -0.4560    4.0290 ca        1 AD5     -0.110500
     20 CAD        14.6170   -1.5110    3.1550 ca        1 AD5     -0.157000
     21 CAA        12.1230   -1.1860    4.3670 ca        1 AD5     -0.110500
     22 CAC        12.3330   -2.2330    3.4770 ca        1 AD5     -0.157000
     23 CAW        13.5830   -2.4270    2.8530 ca        1 AD5      0.123600
     24 NBC        13.8620   -3.5380    2.0140 nh        1 AD5     -0.629000
     25 CAM        12.8330   -4.5650    1.9450 c3        1 AD5      0.147800
     26 CAI        13.2940   -5.7810    1.1300 c3        1 AD5      0.123900
     27 OAU        13.7580   -5.4030   -0.1610 os        1 AD5     -0.414600
     28 CAJ        14.8080   -4.4450   -0.0930 c3        1 AD5      0.123900
     29 CAN        14.3900   -3.1980    0.6970 c3        1 AD5      0.147800
     30 HAK1        7.9670    0.6070    0.9370 hc        1 AD5      0.052450
     31 HAK2        7.8460    2.3760    1.2660 hc        1 AD5      0.052450
     32 HAG1        5.9920    1.8940    2.9370 hc        1 AD5      0.040950
     33 HAG2        5.5890    1.4490    1.2350 hc        1 AD5      0.040950
     34 HBB         9.6030    0.7080    2.5110 h1        1 AD5      0.080700
     35 HAF1        5.1120   -0.2340    3.2820 hc        1 AD5      0.040200
     36 HAF2        5.6240   -0.8500    1.6660 hc        1 AD5      0.040200
     37 HAH1        6.8550   -1.6900    3.8830 hc        1 AD5      0.040950
     38 HAH2        7.7900   -1.3870    2.3690 hc        1 AD5      0.040950
     39 HAL1        7.4050    0.6380    4.6690 hc        1 AD5      0.052450
     40 HAL2        8.8670   -0.4000    4.4370 hc        1 AD5      0.052450
     41 H6          8.2250    3.0470    3.6780 hn        1 AD5      0.440800
     42 H8          9.6800    6.7020    6.4700 h5        1 AD5      0.070800
     43 H9         11.8610    5.5610    7.2570 hn        1 AD5      0.315700
     44 H2         13.8430    1.0470    6.0410 hn        1 AD5      0.432800
     45 HAB        15.2360    0.2360    4.2360 ha        1 AD5      0.142000
     46 HAA        11.1320   -1.0770    4.8370 ha        1 AD5      0.142000
     47 HAD        15.6150   -1.6290    2.7050 ha        1 AD5      0.135500
     48 HAC        11.4920   -2.9140    3.2750 ha        1 AD5      0.135500
     49 HAM1       12.6050   -4.9040    2.9940 h1        1 AD5      0.047450
     50 HAM2       11.8820   -4.1700    1.4820 h1        1 AD5      0.047450
     51 HAN1       13.6290   -2.6280    0.0890 h1        1 AD5      0.047450
     52 HAN2       15.2930   -2.5420    0.8290 h1        1 AD5      0.047450
     53 HAI1       14.1020   -6.3390    1.6720 h1        1 AD5      0.055950
     54 HAI2       12.4240   -6.4580    0.9280 h1        1 AD5      0.055950
     55 HAJ1       15.7180   -4.9170    0.3630 h1        1 AD5      0.055950
     56 HAJ2       15.0070   -4.1720   -1.1620 h1        1 AD5      0.055950
@<TRIPOS>BOND
     1    1    2 1   
     2    1    6 1   
     3    1   30 1   
     4    1   31 1   
     5    2    3 1   
     6    2   32 1   
     7    2   33 1   
     8    3    4 1   
     9    3   35 1   
    10    3   36 1   
    11    4    5 1   
    12    4   37 1   
    13    4   38 1   
    14    5    6 1   
    15    5   39 1   
    16    5   40 1   
    17    6    7 1   
    18    6   34 1   
    19    7    8 1   
    20    7   41 1   
    21    8    9 ar  
    22    8   10 ar  
    23    9   16 ar  
    24   10   11 1   
    25   10   14 ar  
    26   11   12 2   
    27   12   13 1   
    28   12   42 1   
    29   13   14 1   
    30   13   43 1   
    31   14   15 ar  
    32   15   16 ar  
    33   16   17 1   
    34   17   18 1   
    35   17   44 1   
    36   18   19 ar  
    37   18   21 ar  
    38   19   20 ar  
    39   19   45 1   
    40   20   23 ar  
    41   20   47 1   
    42   21   22 ar  
    43   21   46 1   
    44   22   23 ar  
    45   22   48 1   
    46   23   24 1   
    47   24   25 1   
    48   24   29 1   
    49   25   26 1   
    50   25   49 1   
    51   25   50 1   
    52   26   27 1   
    53   26   53 1   
    54   26   54 1   
    55   27   28 1   
    56   28   29 1   
    57   28   55 1   
    58   28   56 1   
    59   29   51 1   
    60   29   52 1   
@<TRIPOS>SUBSTRUCTURE
     1 AD5         1 TEMP              0 ****  ****    0 ROOT
