@<TRIPOS>MOLECULE
AD5
   56    60     1     0     0
SMALL
bcc


@<TRIPOS>ATOM
      1 CAK         0.8150   -0.5960   -0.8420 c3        1 AD5     -0.093900
      2 CAG         1.7460   -0.2910    0.3090 c3        1 AD5     -0.076900
      3 CAF         1.1240    0.6950    1.2800 c3        1 AD5     -0.078400
      4 CAH        -0.3880    0.5790    1.3050 c3        1 AD5     -0.076900
      5 CAL        -0.8390   -0.8420    1.0550 c3        1 AD5     -0.093900
      6 CBB        -0.4750   -1.2990   -0.3730 c3        1 AD5      0.219500
      7 N6         -0.3580   -2.7390   -0.5020 nh        1 AD5     -0.837900
      8 C6         -1.4500   -3.5860   -0.4440 ca        1 AD5      0.778200
      9 N1         -2.7270   -3.1120   -0.5350 nb        1 AD5     -0.815000
     10 C5         -1.2280   -5.0010   -0.3550 ca        1 AD5     -0.259200
     11 N7         -0.0740   -5.7870   -0.2250 nc        1 AD5     -0.534100
     12 C8         -0.5130   -7.0530   -0.2140 cd        1 AD5      0.390700
     13 N9         -1.9190   -7.1640   -0.3310 na        1 AD5     -0.387000
     14 C4         -2.4070   -5.8540   -0.4220 ca        1 AD5      0.486800
     15 N3         -3.6830   -5.4070   -0.5500 nb        1 AD5     -0.790000
     16 C2         -3.7730   -4.0230   -0.5770 ca        1 AD5      0.914900
     17 N2         -5.0960   -3.5120   -0.5790 nh        1 AD5     -0.699300
     18 CAV        -5.3810   -2.2080   -1.0530 ca        1 AD5      0.106600
     19 CAB        -6.2430   -2.0260   -2.1550 ca        1 AD5     -0.114500
     20 CAD        -6.6120   -0.7520   -2.5690 ca        1 AD5     -0.152500
     21 CAA        -4.8960   -1.0640   -0.3890 ca        1 AD5     -0.114500
     22 CAC        -5.2530    0.2070   -0.8170 ca        1 AD5     -0.152500
     23 CAW        -6.1180    0.3970   -1.9190 ca        1 AD5      0.108600
     24 NBC        -6.3800    1.7250   -2.3580 nh        1 AD5     -0.618000
     25 CAM        -7.0480    2.5800   -1.3850 c3        1 AD5      0.142800
     26 CAI        -8.5790    2.5740   -1.4740 c3        1 AD5      0.092900
     27 OAU        -9.0310    2.8160   -2.8020 os        1 AD5     -0.411600
     28 CAJ        -8.4780    1.9040   -3.7450 c3        1 AD5      0.092900
     29 CAN        -6.9460    1.8940   -3.6860 c3        1 AD5      0.142800
     30 HAK1        1.3500   -1.2080   -1.6130 hc        1 AD5      0.052450
     31 HAK2        0.5120    0.3650   -1.3380 hc        1 AD5      0.052450
     32 HAG1        1.9930   -1.2450    0.8470 hc        1 AD5      0.041200
     33 HAG2        2.7090    0.1250   -0.0860 hc        1 AD5      0.041200
     34 HBB        -1.3080   -0.9670   -1.0640 h1        1 AD5      0.081700
     35 HAF1        1.4080    1.7410    0.9940 hc        1 AD5      0.039700
     36 HAF2        1.5370    0.5110    2.3060 hc        1 AD5      0.039700
     37 HAH1       -0.7760    0.9240    2.2990 hc        1 AD5      0.041200
     38 HAH2       -0.8320    1.2520    0.5240 hc        1 AD5      0.041200
     39 HAL1       -0.3620   -1.5140    1.8170 hc        1 AD5      0.052450
     40 HAL2       -1.9500   -0.9200    1.1860 hc        1 AD5      0.052450
     41 H6          0.5080   -3.1350   -0.2050 hn        1 AD5      0.441800
     42 H8          0.1180   -7.9440   -0.1260 h5        1 AD5      0.070800
     43 H9         -2.4560   -7.9890   -0.3470 hn        1 AD5      0.315700
     44 H2         -5.7870   -4.1890   -0.8440 hn        1 AD5      0.431800
     45 HAB        -6.6450   -2.8960   -2.6970 ha        1 AD5      0.143000
     46 HAA        -4.2200   -1.1670    0.4750 ha        1 AD5      0.143000
     47 HAD        -7.3010   -0.6620   -3.4230 ha        1 AD5      0.135500
     48 HAC        -4.8400    1.0790   -0.2840 ha        1 AD5      0.135500
     49 HAM1       -6.7450    2.2870   -0.3430 h1        1 AD5      0.065700
     50 HAM2       -6.6810    3.6270   -1.5830 h1        1 AD5      0.065700
     51 HAN1       -6.5740    2.8960   -4.0490 h1        1 AD5      0.065700
     52 HAN2       -6.5480    1.1050   -4.3800 h1        1 AD5      0.065700
     53 HAI1       -9.0080    3.4220   -0.8780 h1        1 AD5      0.053700
     54 HAI2       -8.9980    1.5990   -1.1090 h1        1 AD5      0.053700
     55 HAJ1       -8.8970    0.8790   -3.5610 h1        1 AD5      0.053700
     56 HAJ2       -8.8290    2.2870   -4.7390 h1        1 AD5      0.053700
@<TRIPOS>BOND
     1    1    2 1   
     2    1    6 1   
     3    1   30 1   
     4    1   31 1   
     5    2    3 1   
     6    2   32 1   
     7    2   33 1   
     8    3    4 1   
     9    3   35 1   
    10    3   36 1   
    11    4    5 1   
    12    4   37 1   
    13    4   38 1   
    14    5    6 1   
    15    5   39 1   
    16    5   40 1   
    17    6    7 1   
    18    6   34 1   
    19    7    8 1   
    20    7   41 1   
    21    8    9 ar  
    22    8   10 ar  
    23    9   16 ar  
    24   10   11 1   
    25   10   14 ar  
    26   11   12 2   
    27   12   13 1   
    28   12   42 1   
    29   13   14 1   
    30   13   43 1   
    31   14   15 ar  
    32   15   16 ar  
    33   16   17 1   
    34   17   18 1   
    35   17   44 1   
    36   18   19 ar  
    37   18   21 ar  
    38   19   20 ar  
    39   19   45 1   
    40   20   23 ar  
    41   20   47 1   
    42   21   22 ar  
    43   21   46 1   
    44   22   23 ar  
    45   22   48 1   
    46   23   24 1   
    47   24   25 1   
    48   24   29 1   
    49   25   26 1   
    50   25   49 1   
    51   25   50 1   
    52   26   27 1   
    53   26   53 1   
    54   26   54 1   
    55   27   28 1   
    56   28   29 1   
    57   28   55 1   
    58   28   56 1   
    59   29   51 1   
    60   29   52 1   
@<TRIPOS>SUBSTRUCTURE
     1 AD5         1 TEMP              0 ****  ****    0 ROOT
