@<TRIPOS>MOLECULE
AD5
   58    62     1     0     0
SMALL
bcc


@<TRIPOS>ATOM
      1 CAK         1.4390   -0.1200    1.4300 c3        1 AD5     -0.103900
      2 CAG         2.8330   -0.6360    1.1510 c3        1 AD5     -0.082900
      3 CAF         3.2420   -1.6950    2.1590 c3        1 AD5     -0.092400
      4 CAH         2.0460   -2.4260    2.7330 c3        1 AD5     -0.082900
      5 CAL         0.9450   -2.5910    1.7040 c3        1 AD5     -0.103900
      6 CBB         0.3820   -1.2240    1.2970 c3        1 AD5      0.141500
      7 N6         -0.1550   -1.2520   -0.1320 n4        1 AD5     -0.757700
      8 C6         -1.3510   -2.0960   -0.2960 ca        1 AD5      0.576200
      9 N1         -2.5350   -1.6760    0.2250 nb        1 AD5     -0.679000
     10 C5         -1.2530   -3.3130   -1.0000 ca        1 AD5     -0.098200
     11 N7         -0.2110   -3.9890   -1.6340 nc        1 AD5     -0.561100
     12 C8         -0.7690   -5.1170   -2.1240 cd        1 AD5      0.538700
     13 N9         -2.1450   -5.2390   -1.8500 na        1 AD5     -0.344000
     14 C4         -2.5080   -4.0980   -1.1280 ca        1 AD5      0.461800
     15 N3         -3.6930   -3.6980   -0.6150 nb        1 AD5     -0.610000
     16 C2         -3.6280   -2.4900    0.0370 ca        1 AD5      0.743900
     17 N2         -4.9290   -1.9800    0.5920 n4        1 AD5     -0.567100
     18 CAV        -5.7140   -1.2750   -0.4110 ca        1 AD5     -0.208400
     19 CAB        -6.5660   -1.9920   -1.2790 ca        1 AD5     -0.027000
     20 CAD        -7.3690   -1.3210   -2.1710 ca        1 AD5     -0.210000
     21 CAA        -5.6500    0.1320   -0.5030 ca        1 AD5     -0.027000
     22 CAC        -6.4520    0.8050   -1.3950 ca        1 AD5     -0.210000
     23 CAW        -7.3770    0.1130   -2.2470 ca        1 AD5      0.271600
     24 NBC        -8.2390    0.7840   -3.0680 nh        1 AD5     -0.611000
     25 CAM        -8.1140    2.2240   -3.2140 c3        1 AD5      0.160800
     26 CAI        -9.2380    2.9000   -4.0120 c3        1 AD5      0.114400
     27 OAU        -9.6100    2.1340   -5.1460 os        1 AD5     -0.379600
     28 CAJ       -10.1110    0.8660   -4.7580 c3        1 AD5      0.114400
     29 CAN        -9.0530    0.0390   -4.0140 c3        1 AD5      0.160800
     30 HAK1        1.2100    0.7620    0.7750 hc        1 AD5      0.076200
     31 HAK2        1.3870    0.2480    2.4930 hc        1 AD5      0.076200
     32 HAG1        2.8800   -1.0580    0.1130 hc        1 AD5      0.066950
     33 HAG2        3.5580    0.2210    1.1900 hc        1 AD5      0.066950
     34 HBB        -0.5020   -0.9650    1.9520 hx        1 AD5      0.105700
     35 HAF1        3.9370   -2.4240    1.6630 hc        1 AD5      0.075200
     36 HAF2        3.8160   -1.2210    2.9990 hc        1 AD5      0.075200
     37 HAH1        1.6470   -1.8740    3.6250 hc        1 AD5      0.066950
     38 HAH2        2.3610   -3.4440    3.0900 hc        1 AD5      0.066950
     39 HAL1        0.1180   -3.2180    2.1290 hc        1 AD5      0.076200
     40 HAL2        1.3710   -3.1380    0.8190 hc        1 AD5      0.076200
     41 H6          0.5870   -1.6140   -0.7520 hn        1 AD5      0.479300
     42 H8         -0.2200   -5.8940   -2.6940 h5        1 AD5      0.133800
     43 H9         -2.7500   -5.9830   -2.1160 hn        1 AD5      0.366700
     44 H2         -5.4730   -2.7890    0.9350 hn        1 AD5      0.482300
     45 HAB        -6.6030   -3.0950   -1.2480 ha        1 AD5      0.149000
     46 HAA        -4.9670    0.7100    0.1430 ha        1 AD5      0.149000
     47 HAD        -8.0170   -1.9180   -2.8350 ha        1 AD5      0.169000
     48 HAC        -6.3710    1.9040   -1.4370 ha        1 AD5      0.169000
     49 HAM1       -8.1080    2.6930   -2.1880 h1        1 AD5      0.065200
     50 HAM2       -7.1280    2.4480   -3.7180 h1        1 AD5      0.065200
     51 HAN1       -9.6010   -0.7760   -3.4570 h1        1 AD5      0.065200
     52 HAN2       -8.3690   -0.4400   -4.7740 h1        1 AD5      0.065200
     53 HAI1      -10.1310    3.0800   -3.3560 h1        1 AD5      0.080450
     54 HAI2       -8.8670    3.8730   -4.4330 h1        1 AD5      0.080450
     55 HAJ1      -10.3760    0.3560   -5.7230 h1        1 AD5      0.080450
     56 HAJ2      -11.0290    0.9900   -4.1230 h1        1 AD5      0.080450
     57 H62        -0.3770   -0.2860   -0.4130 hn        1 AD5      0.479300
     58 H22        -4.7310   -1.3430    1.3780 hn        1 AD5      0.482300
@<TRIPOS>BOND
     1    1    2 1   
     2    1    6 1   
     3    1   30 1   
     4    1   31 1   
     5    2    3 1   
     6    2   32 1   
     7    2   33 1   
     8    3    4 1   
     9    3   35 1   
    10    3   36 1   
    11    4    5 1   
    12    4   37 1   
    13    4   38 1   
    14    5    6 1   
    15    5   39 1   
    16    5   40 1   
    17    6    7 1   
    18    6   34 1   
    19    7    8 1   
    20    7   41 1   
    21    7   57 1   
    22    8    9 ar  
    23    8   10 ar  
    24    9   16 ar  
    25   10   11 1   
    26   10   14 ar  
    27   11   12 2   
    28   12   13 1   
    29   12   42 1   
    30   13   14 1   
    31   13   43 1   
    32   14   15 ar  
    33   15   16 ar  
    34   16   17 1   
    35   17   18 1   
    36   17   44 1   
    37   17   58 1   
    38   18   19 ar  
    39   18   21 ar  
    40   19   20 ar  
    41   19   45 1   
    42   20   23 ar  
    43   20   47 1   
    44   21   22 ar  
    45   21   46 1   
    46   22   23 ar  
    47   22   48 1   
    48   23   24 1   
    49   24   25 1   
    50   24   29 1   
    51   25   26 1   
    52   25   49 1   
    53   25   50 1   
    54   26   27 1   
    55   26   53 1   
    56   26   54 1   
    57   27   28 1   
    58   28   29 1   
    59   28   55 1   
    60   28   56 1   
    61   29   51 1   
    62   29   52 1   
@<TRIPOS>SUBSTRUCTURE
     1 AD5         1 TEMP              0 ****  ****    0 ROOT
