@<TRIPOS>MOLECULE
AD5
   56    53     1     0     0
SMALL
bcc


@<TRIPOS>ATOM
      1 CAK         3.0380    4.7420    1.7630 c3        1 AD5     -0.173000
      2 CAG         4.3660    5.1040    1.6350 c3        1 AD5     -0.158500
      3 CAF         5.1830    4.6770    2.8540 c3        1 AD5     -0.157000
      4 CAH         4.2460    4.3670    4.1800 c3        1 AD5     -0.158500
      5 CAL         3.3730    3.1060    3.5120 c3        1 AD5     -0.173000
      6 CBB         2.5640    3.5190    2.3200 c3        1 AD5      0.023000
      7 N6          2.6470    2.4300    1.2600 n3        1 AD5     -0.277000
      8 C6          1.8450    1.2430    1.3860 c2        1 AD5      0.259000
      9 N1          0.5430    1.2690    1.0620 n2        1 AD5     -0.309000
     10 C5          2.5100    0.0360    1.4740 c1        1 AD5     -0.265000
     11 N7          3.7970   -0.2790    1.8040 n1        1 AD5     -0.175500
     12 C8          3.9220   -1.6350    1.7640 c1        1 AD5      0.012000
     13 N9          2.7280   -2.1500    1.4140 n2        1 AD5     -0.232000
     14 C4          1.8520   -1.1080    1.2330 c1        1 AD5      0.012000
     15 N3          0.5430   -1.0760    0.9080 n1        1 AD5     -0.175500
     16 C2         -0.1140    0.1240    0.8220 c1        1 AD5      0.198000
     17 N2         -1.4960   -0.0170    0.8180 n3        1 AD5     -0.225000
     18 CAV        -2.1270   -0.7130   -0.2320 c2        1 AD5      0.049000
     19 CAB        -2.1570   -2.0950   -0.2220 c2        1 AD5     -0.100000
     20 CAD        -2.8150   -2.7790   -1.2270 c1        1 AD5     -0.146000
     21 CAA        -2.7590   -0.0100   -1.2540 c1        1 AD5     -0.169000
     22 CAC        -3.4190   -0.6960   -2.2620 c1        1 AD5     -0.092000
     23 CAW        -3.4490   -2.0740   -2.2520 c1        1 AD5     -0.010000
     24 NBC        -4.2160   -2.7950   -3.2710 n3        1 AD5     -0.216000
     25 CAM        -3.3240   -3.5870   -4.0580 c3        1 AD5     -0.102000
     26 CAI        -4.0650   -4.4890   -5.0470 c3        1 AD5     -0.025000
     27 OAU        -5.0660   -5.2590   -4.4210 os        1 AD5     -0.273000
     28 CAJ        -5.9540   -4.4740   -3.6380 c3        1 AD5     -0.025000
     29 CAN        -5.2150   -3.5630   -2.6480 c3        1 AD5     -0.102000
     30 HAK1        2.6680    4.7910    0.8840 hc        1 AD5      0.092000
     31 HAK2        2.6090    5.4680    2.2990 hc        1 AD5      0.092000
     32 HAG1        4.4270    6.0950    1.5260 hc        1 AD5      0.081250
     33 HAG2        4.7420    4.6670    0.8310 hc        1 AD5      0.081250
     34 HBB         1.5870    3.6350    2.6040 h1        1 AD5      0.120000
     35 HAF1        5.8080    5.3870    3.0720 hc        1 AD5      0.079500
     36 HAF2        5.6720    3.9010    2.6370 hc        1 AD5      0.079500
     37 HAH1        3.7030    5.0870    4.3940 hc        1 AD5      0.081250
     38 HAH2        4.7920    4.0650    4.9530 hc        1 AD5      0.081250
     39 HAL1        3.9690    2.4310    3.2540 hc        1 AD5      0.092000
     40 HAL2        2.7590    2.7440    4.2010 hc        1 AD5      0.092000
     41 H6          3.2330    2.5060    0.5830 hn        1 AD5      0.237000
     42 H8          4.7600   -2.1440    1.8910 DU        1 AD5      0.234000
     43 H9          2.5490   -2.9670    1.3220 DU        1 AD5      0.234000
     44 H2         -2.0210    0.3900    1.5090 hn        1 AD5      0.230000
     45 HAB        -1.6940   -2.6090    0.5240 ha        1 AD5      0.156000
     46 HAA        -2.7370    0.9430   -1.2610 ha        1 AD5      0.133000
     47 HAD        -2.8360   -3.7520   -1.2200 ha        1 AD5      0.136000
     48 HAC        -3.8430   -0.2230   -2.9480 ha        1 AD5      0.146000
     49 HAM1       -2.7150   -2.9810   -4.5640 h1        1 AD5      0.084500
     50 HAM2       -2.7690   -4.1690   -3.4380 h1        1 AD5      0.084500
     51 HAN1       -4.7800   -4.1470   -1.9120 h1        1 AD5      0.084500
     52 HAN2       -5.8770   -2.9450   -2.2240 h1        1 AD5      0.084500
     53 HAI1       -4.4820   -3.9260   -5.7380 h1        1 AD5      0.093500
     54 HAI2       -3.4270   -5.0830   -5.4730 h1        1 AD5      0.093500
     55 HAJ1       -6.5210   -3.8960   -4.2590 h1        1 AD5      0.093500
     56 HAJ2       -6.5600   -5.0890   -3.1220 h1        1 AD5      0.093500
@<TRIPOS>BOND
     1    1    2 1   
     2    1    6 1   
     3    1   30 1   
     4    1   31 1   
     5    2    3 1   
     6    2   32 1   
     7    2   33 1   
     8    3    4 1   
     9    3   35 1   
    10    3   36 1   
    11    4    5 1   
    12    4   37 1   
    13    4   38 1   
    14    5    6 1   
    15    5   39 1   
    16    5   40 1   
    17    6    7 1   
    18    6   34 1   
    19    7    8 1   
    20    7   41 1   
    21    8    9 1   
    22    8   10 1   
    23    9   16 1   
    24   11   12 1   
    25   12   13 1   
    26   13   14 1   
    27   14   15 1   
    28   16   17 1   
    29   17   18 1   
    30   17   44 1   
    31   18   19 1   
    32   18   21 1   
    33   19   20 1   
    34   19   45 1   
    35   20   47 1   
    36   21   46 1   
    37   22   23 1   
    38   22   48 1   
    39   23   24 1   
    40   24   25 1   
    41   24   29 1   
    42   25   26 1   
    43   25   49 1   
    44   25   50 1   
    45   26   27 1   
    46   26   53 1   
    47   26   54 1   
    48   27   28 1   
    49   28   29 1   
    50   28   55 1   
    51   28   56 1   
    52   29   51 1   
    53   29   52 1   
@<TRIPOS>SUBSTRUCTURE
     1 AD5         1 TEMP              0 ****  ****    0 ROOT
