@<TRIPOS>MOLECULE
AD6
   27    23     1     0     0
SMALL
bcc


@<TRIPOS>ATOM
      1 NAI         1.3230   -2.9580    2.8120 n2        1 AD6     -0.148000
      2 CAH         0.8660   -4.4490    2.9920 c1        1 AD6     -0.070000
      3 CAN         0.8360   -5.0750    1.6920 c1        1 AD6     -0.554000
      4 SAL         1.2630   -4.0330    0.6630 ss        1 AD6      0.568000
      5 CAQ         1.5560   -2.7220    1.4230 c1        1 AD6     -0.176000
      6 NAK         2.0660   -1.5250    0.8540 n2        1 AD6     -0.205000
      7 CAO         1.1770   -0.4860    0.4710 c2        1 AD6      0.073000
      8 CAE         0.5700   -0.5190   -0.7750 c2        1 AD6     -0.185000
      9 CAG        -0.2310    0.5360   -1.1830 c1        1 AD6     -0.069000
     10 CAD         0.9830    0.6020    1.3070 c1        1 AD6     -0.180000
     11 CAF         0.1810    1.6570    0.8990 c1        1 AD6     -0.046000
     12 CAP        -0.4250    1.6240   -0.3460 c1        1 AD6     -0.149000
     13 CAM        -1.2490    2.8020   -0.8170 c2        1 AD6      0.347000
     14 OAB        -1.4200    3.7550   -0.0840 o         1 AD6     -0.366000
     15 NAJ        -1.8340    2.7880   -2.1080 n         1 AD6     -0.383000
     16 CAA        -2.1950    4.0120   -2.7400 c3        1 AD6     -0.076000
     17 BR          0.2480   -6.8540    1.3140 br        1 AD6      0.138000
     18 HAH         0.6400   -4.8790    3.8390 DU        1 AD6      0.194000
     19 HAK         2.9640   -1.4260    0.7270 hn        1 AD6      0.227000
     20 HAE         0.7060   -1.2840   -1.3640 ha        1 AD6      0.142000
     21 HAD         1.4100    0.6260    2.1840 ha        1 AD6      0.143000
     22 HAG        -0.6590    0.5130   -2.0600 ha        1 AD6      0.139000
     23 HAF         0.0450    2.4230    1.4880 ha        1 AD6      0.161000
     24 HAJ        -1.9860    1.9940   -2.5310 hn        1 AD6      0.223000
     25 HAA1       -1.6370    4.1460   -3.5360 h1        1 AD6      0.084000
     26 HAA2       -3.1390    3.9770   -3.0050 h1        1 AD6      0.084000
     27 HAA3       -2.0570    4.7560   -2.1150 h1        1 AD6      0.084000
@<TRIPOS>BOND
     1    1    2 1   
     2    1    5 1   
     3    2    3 1   
     4    3    4 1   
     5    4    5 1   
     6    6    7 1   
     7    6   19 1   
     8    7    8 1   
     9    7   10 1   
    10    8    9 1   
    11    8   20 1   
    12    9   22 1   
    13   10   21 1   
    14   11   12 1   
    15   11   23 1   
    16   12   13 1   
    17   13   14 1   
    18   13   15 1   
    19   15   16 1   
    20   15   24 1   
    21   16   25 1   
    22   16   26 1   
    23   16   27 1   
@<TRIPOS>SUBSTRUCTURE
     1 AD6         1 TEMP              0 ****  ****    0 ROOT
