@<TRIPOS>MOLECULE
AD6
   28    29     1     0     0
SMALL
bcc


@<TRIPOS>ATOM
      1 NAI         0.0450    0.8560    1.3180 nc        1 AD6     -0.646000
      2 CAH         1.3760    0.7710    1.0040 cc        1 AD6      0.377200
      3 CAN         1.8420   -0.5130    0.6950 cd        1 AD6     -0.194300
      4 SAL         0.6050   -1.6240    0.8220 ss        1 AD6      0.075700
      5 CAQ        -0.5060   -0.3840    1.2560 cd        1 AD6      0.516300
      6 NAK        -1.8570   -0.6950    1.5020 nh        1 AD6     -0.684300
      7 CAO        -2.5670   -0.1210    2.5440 ca        1 AD6      0.263600
      8 CAE        -1.9300    0.3840    3.7150 ca        1 AD6     -0.188000
      9 CAG        -2.6750    0.8710    4.7690 ca        1 AD6     -0.018500
     10 CAD        -3.9900   -0.1190    2.5050 ca        1 AD6     -0.188000
     11 CAF        -4.7230    0.3650    3.5700 ca        1 AD6     -0.018500
     12 CAP        -4.0820    0.8790    4.7190 ca        1 AD6     -0.276600
     13 CAM        -4.9420    1.3780    5.7710 c         1 AD6      0.579700
     14 OAB        -6.1610    1.3190    5.8660 o         1 AD6     -0.443100
     15 NAJ        -4.2420    2.0960    6.9290 n4        1 AD6     -0.675800
     16 CAA        -5.1810    2.7070    7.8920 c3        1 AD6      0.084100
     17 BR          3.5500   -0.9380    0.2150 br        1 AD6      0.037900
     18 HAH         1.9780    1.6910    0.9990 h4        1 AD6      0.070100
     19 HAK        -2.3820   -0.8930    0.6710 hn        1 AD6      0.452800
     20 HAE        -0.8300    0.3890    3.7860 ha        1 AD6      0.170500
     21 HAD        -4.5220   -0.5050    1.6200 ha        1 AD6      0.170500
     22 HAG        -2.1260    1.2400    5.6490 ha        1 AD6      0.145000
     23 HAF        -5.8280    0.3600    3.5240 ha        1 AD6      0.145000
     24 HAJ        -3.6340    2.8200    6.5300 hn        1 AD6      0.455800
     25 HAA1       -5.8470    1.9110    8.3230 hx        1 AD6      0.111033
     26 HAA2       -5.8240    3.4610    7.3590 hx        1 AD6      0.111033
     27 HAA3       -4.5990    3.2080    8.7110 hx        1 AD6      0.111033
     28 HAJ2       -3.6500    1.4120    7.4120 hn        1 AD6      0.455800
@<TRIPOS>BOND
     1    1    2 1   
     2    1    5 2   
     3    2    3 2   
     4    2   18 1   
     5    3    4 1   
     6    3   17 1   
     7    4    5 1   
     8    5    6 1   
     9    6    7 1   
    10    6   19 1   
    11    7    8 ar  
    12    7   10 ar  
    13    8    9 ar  
    14    8   20 1   
    15    9   12 ar  
    16    9   22 1   
    17   10   11 ar  
    18   10   21 1   
    19   11   12 ar  
    20   11   23 1   
    21   12   13 1   
    22   13   14 2   
    23   13   15 1   
    24   15   16 1   
    25   15   24 1   
    26   15   28 1   
    27   16   25 1   
    28   16   26 1   
    29   16   27 1   
@<TRIPOS>SUBSTRUCTURE
     1 AD6         1 TEMP              0 ****  ****    0 ROOT
