@<TRIPOS>MOLECULE
AD6
   28    29     1     0     0
SMALL
bcc


@<TRIPOS>ATOM
      1 NAI         0.0640    0.8230    1.3370 nc        1 AD6     -0.646000
      2 CAH         1.3960    0.7320    1.0320 cc        1 AD6      0.377200
      3 CAN         1.8620   -0.5570    0.7410 cd        1 AD6     -0.194300
      4 SAL         0.6210   -1.6640    0.8690 ss        1 AD6      0.075700
      5 CAQ        -0.4900   -0.4160    1.2830 cd        1 AD6      0.516300
      6 NAK        -1.8430   -0.7220    1.5230 nu        1 AD6     -0.684300
      7 CAO        -2.5590   -0.1350    2.5540 ca        1 AD6      0.263600
      8 CAE        -1.9300    0.3810    3.7240 ca        1 AD6     -0.188000
      9 CAG        -2.6800    0.8800    4.7670 ca        1 AD6     -0.018500
     10 CAD        -3.9820   -0.1300    2.5050 ca        1 AD6     -0.188000
     11 CAF        -4.7220    0.3670    3.5590 ca        1 AD6     -0.018500
     12 CAP        -4.0880    0.8920    4.7070 ca        1 AD6     -0.276600
     13 CAM        -4.9540    1.4030    5.7480 c         1 AD6      0.579700
     14 OAB        -6.1740    1.3480    5.8350 o         1 AD6     -0.443100
     15 NAJ        -4.2600    2.1310    6.9040 ny        1 AD6     -0.675800
     16 CAA        -5.2050    2.7540    7.8540 c3        1 AD6      0.084100
     17 Br          3.5720   -0.9910    0.2760 br        1 AD6      0.037900
     18 HAH         2.0010    1.6500    1.0230 h4        1 AD6      0.070100
     19 HAK        -2.3640   -0.9270    0.6900 hn        1 AD6      0.452800
     20 HAE        -0.8300    0.3840    3.8030 ha        1 AD6      0.170500
     21 HAD        -4.5090   -0.5250    1.6200 ha        1 AD6      0.170500
     22 HAG        -2.1370    1.2580    5.6470 ha        1 AD6      0.145000
     23 HAF        -5.8260    0.3630    3.5060 ha        1 AD6      0.145000
     24 HAJ        -3.6730    1.4510    7.3980 hn        1 AD6      0.455800
     25 HAA1       -4.6270    3.2610    8.6720 hx        1 AD6      0.111033
     26 HAA2       -5.8750    1.9630    8.2880 hx        1 AD6      0.111033
     27 HAA3       -5.8420    3.5030    7.3100 hx        1 AD6      0.111033
     28 HAJ2       -3.6480    2.8490    6.5020 hn        1 AD6      0.455800
@<TRIPOS>BOND
     1    1    2 1   
     2    1    5 2   
     3    2    3 2   
     4    2   18 1   
     5    3    4 1   
     6    3   17 1   
     7    4    5 1   
     8    5    6 1   
     9    6    7 1   
    10    6   19 1   
    11    7    8 ar  
    12    7   10 ar  
    13    8    9 ar  
    14    8   20 1   
    15    9   12 ar  
    16    9   22 1   
    17   10   11 ar  
    18   10   21 1   
    19   11   12 ar  
    20   11   23 1   
    21   12   13 1   
    22   13   14 2   
    23   13   15 1   
    24   15   16 1   
    25   15   24 1   
    26   15   28 1   
    27   16   25 1   
    28   16   26 1   
    29   16   27 1   
@<TRIPOS>SUBSTRUCTURE
     1 AD6         1 TEMP              0 ****  ****    0 ROOT
