@<TRIPOS>MOLECULE
AD6
   29    30     1     0     0
SMALL
bcc


@<TRIPOS>ATOM
      1 NAI        -0.4460    0.9980    1.0350 nc        1 AD6     -0.588000
      2 CAH         0.8220    1.2860    0.6480 cc        1 AD6      0.387200
      3 CAN         1.7040    0.1770    0.6030 cd        1 AD6     -0.162300
      4 SAL         0.9100   -1.2020    1.0500 ss        1 AD6      0.233700
      5 CAQ        -0.5370   -0.3440    1.2870 cd        1 AD6      0.264300
      6 NAK        -1.8050   -0.9460    1.6810 n4        1 AD6     -0.572100
      7 CAO        -2.5330   -0.1650    2.6980 ca        1 AD6      0.029600
      8 CAE        -2.5220   -0.5870    4.0410 ca        1 AD6     -0.081000
      9 CAG        -3.2350    0.1400    4.9920 ca        1 AD6     -0.054000
     10 CAD        -3.2400    0.9850    2.3120 ca        1 AD6     -0.081000
     11 CAF        -3.9540    1.7010    3.2740 ca        1 AD6     -0.054000
     12 CAP        -3.9510    1.2830    4.6130 ca        1 AD6     -0.150600
     13 CAM        -4.7780    2.0610    5.5540 c         1 AD6      0.553700
     14 OAB        -5.8270    2.6340    5.3070 o         1 AD6     -0.365100
     15 NAJ        -4.2660    2.2110    6.9720 n4        1 AD6     -0.670800
     16 CAA        -5.0990    1.4490    7.9360 c3        1 AD6      0.077100
     17 BR          3.4580    0.2560    0.1170 br        1 AD6      0.122900
     18 HAH         1.0900    2.3250    0.3920 h4        1 AD6      0.102100
     19 HAK        -1.6210   -1.8920    2.0440 hn        1 AD6      0.476800
     20 HAE        -1.9670   -1.4860    4.3620 ha        1 AD6      0.192000
     21 HAD        -3.2420    1.3440    1.2640 ha        1 AD6      0.192000
     22 HAG        -3.2410   -0.2260    6.0330 ha        1 AD6      0.181500
     23 HAF        -4.5300    2.5960    2.9670 ha        1 AD6      0.181500
     24 HAJ        -3.2900    1.9030    7.0290 hn        1 AD6      0.470300
     25 HAA1       -6.1710    1.7810    7.8450 hx        1 AD6      0.121367
     26 HAA2       -5.0240    0.3510    7.7150 hx        1 AD6      0.121367
     27 HAA3       -4.7340    1.6510    8.9820 hx        1 AD6      0.121367
     28 HAK2       -2.4050   -1.0170    0.8400 hn        1 AD6      0.476800
     29 HAJ2       -4.3060    3.2120    7.2240 hn        1 AD6      0.470300
@<TRIPOS>BOND
     1    1    2 1   
     2    1    5 2   
     3    2    3 2   
     4    2   18 1   
     5    3    4 1   
     6    3   17 1   
     7    4    5 1   
     8    5    6 1   
     9    6    7 1   
    10    6   19 1   
    11    6   28 1   
    12    7    8 ar  
    13    7   10 ar  
    14    8    9 ar  
    15    8   20 1   
    16    9   12 ar  
    17    9   22 1   
    18   10   11 ar  
    19   10   21 1   
    20   11   12 ar  
    21   11   23 1   
    22   12   13 1   
    23   13   14 2   
    24   13   15 1   
    25   15   16 1   
    26   15   24 1   
    27   15   29 1   
    28   16   25 1   
    29   16   26 1   
    30   16   27 1   
@<TRIPOS>SUBSTRUCTURE
     1 AD6         1 TEMP              0 ****  ****    0 ROOT
