@<TRIPOS>MOLECULE
AD6
   27    28     1     0     0
SMALL
bcc


@<TRIPOS>ATOM
      1 NAI        12.4750    2.9420    6.1120 nc        1 AD6     -0.691000
      2 CAH        11.4600    3.8650    6.0710 cc        1 AD6      0.404200
      3 CAN        10.2710    3.4370    5.4850 cd        1 AD6     -0.216300
      4 SAL        10.4120    1.8370    4.9950 ss        1 AD6     -0.041300
      5 CAQ        12.0500    1.7740    5.5610 cd        1 AD6      0.615300
      6 NAK        12.8120    0.6030    5.5610 nh        1 AD6     -0.686300
      7 CAO        12.8250   -0.2510    4.4360 ca        1 AD6      0.145600
      8 CAE        11.6360   -0.6710    3.8050 ca        1 AD6     -0.171500
      9 CAG        11.6810   -1.5690    2.7430 ca        1 AD6     -0.062500
     10 CAD        14.0560   -0.7830    3.9830 ca        1 AD6     -0.171500
     11 CAF        14.0850   -1.6900    2.9320 ca        1 AD6     -0.062500
     12 CAP        12.9010   -2.0760    2.2920 ca        1 AD6     -0.159600
     13 CAM        12.9970   -3.0520    1.1690 c         1 AD6      0.672700
     14 OAB        13.8480   -3.9650    1.1740 o         1 AD6     -0.603100
     15 NAJ        12.1110   -2.9050    0.1200 n         1 AD6     -0.572900
     16 CAA        12.1370   -3.7440   -1.0350 c3        1 AD6      0.078300
     17 BR          8.7580    4.4290    5.2510 br        1 AD6     -0.006100
     18 HAH        11.6500    4.8650    6.4840 h4        1 AD6      0.055100
     19 HAK        13.7130    0.7040    5.9950 hn        1 AD6      0.437800
     20 HAE        10.6500   -0.3230    4.1560 ha        1 AD6      0.143500
     21 HAD        15.0030   -0.4890    4.4640 ha        1 AD6      0.143500
     22 HAG        10.7330   -1.8900    2.2810 ha        1 AD6      0.151500
     23 HAF        15.0440   -2.1180    2.5930 ha        1 AD6      0.151500
     24 HAJ        11.5090   -2.1180    0.1050 hn        1 AD6      0.310500
     25 HAA1       12.4930   -3.1680   -1.9330 h1        1 AD6      0.045700
     26 HAA2       12.8260   -4.6140   -0.8660 h1        1 AD6      0.045700
     27 HAA3       11.1020   -4.1290   -1.2440 h1        1 AD6      0.045700
@<TRIPOS>BOND
     1    1    2 1   
     2    1    5 2   
     3    2    3 2   
     4    2   18 1   
     5    3    4 1   
     6    3   17 1   
     7    4    5 1   
     8    5    6 1   
     9    6    7 1   
    10    6   19 1   
    11    7    8 ar  
    12    7   10 ar  
    13    8    9 ar  
    14    8   20 1   
    15    9   12 ar  
    16    9   22 1   
    17   10   11 ar  
    18   10   21 1   
    19   11   12 ar  
    20   11   23 1   
    21   12   13 1   
    22   13   14 2   
    23   13   15 1   
    24   15   16 1   
    25   15   24 1   
    26   16   25 1   
    27   16   26 1   
    28   16   27 1   
@<TRIPOS>SUBSTRUCTURE
     1 AD6         1 TEMP              0 ****  ****    0 ROOT
