@<TRIPOS>MOLECULE
AD7
   68    69     1     0     0
SMALL
bcc


@<TRIPOS>ATOM
      1 CBA         7.1860   -0.1270   -0.4550 c3        1 AD7     -0.079400
      2 CAZ         6.0230   -0.6580    0.3550 c3        1 AD7     -0.079400
      3 CAY         4.7070   -0.4280   -0.3570 c3        1 AD7     -0.078400
      4 CAX         3.5450   -0.9600    0.4540 c3        1 AD7     -0.078400
      5 CAW         2.2320   -0.7250   -0.2580 c3        1 AD7     -0.085400
      6 CAV         1.0790   -1.2900    0.5530 c3        1 AD7      0.132400
      7 OAK        -0.1170   -0.8500   -0.1020 os        1 AD7     -0.410600
      8 CAJ        -1.2990   -1.3020    0.5180 c3        1 AD7      0.330900
      9 OAS        -1.3300   -2.6670    0.1110 os        1 AD7     -0.457600
     10 CAR        -2.5430   -3.3240    0.4820 c3        1 AD7      0.073100
     11 CAT        -2.3630   -4.7900    0.0800 c3        1 AD7      0.140400
     12 OAU        -1.2770   -5.3750    0.7620 oh        1 AD7     -0.594800
     13 CAP        -3.7130   -2.6710   -0.2560 c3        1 AD7      0.075100
     14 OAQ        -3.5890   -2.7970   -1.6600 oh        1 AD7     -0.595800
     15 CAN        -3.8230   -1.1770    0.1530 c3        1 AD7      0.113500
     16 NAO        -4.8960   -0.4750   -0.5210 n3        1 AD7     -0.896800
     17 CAL        -2.4620   -0.4690   -0.0720 c3        1 AD7      0.132100
     18 OAM        -2.4370    0.7460    0.6740 os        1 AD7     -0.438600
     19 CAA        -2.7640    1.9190   -0.0580 c3        1 AD7      0.332900
     20 CAB        -2.8800    3.0590    0.9500 c3        1 AD7     -0.132400
     21 OAI        -1.7460    2.1070   -1.0190 os        1 AD7     -0.447600
     22 CAE        -0.4470    2.3770   -0.4720 c3        1 AD7      0.108100
     23 CAF         0.4930    2.5230   -1.6520 c3        1 AD7     -0.089100
     24 CAD        -0.4990    3.6490    0.3830 c3        1 AD7      0.076100
     25 OAH        -0.8370    4.8000   -0.3730 oh        1 AD7     -0.599800
     26 CAC        -1.5220    3.4570    1.5180 c3        1 AD7      0.117100
     27 OAG        -1.6320    4.6280    2.3020 oh        1 AD7     -0.591800
     28 HBA         7.0450    0.9700   -0.6400 hc        1 AD7      0.039700
     29 C19         8.5030   -0.3560    0.2550 c3        1 AD7     -0.080400
     30 HBAA        7.2070   -0.6310   -1.4580 hc        1 AD7      0.039700
     31 HAZ         6.1640   -1.7560    0.5400 hc        1 AD7      0.039700
     32 HAZA        6.0020   -0.1540    1.3570 hc        1 AD7      0.039700
     33 HAY         4.5660    0.6690   -0.5410 hc        1 AD7      0.041200
     34 HAYA        4.7280   -0.9320   -1.3590 hc        1 AD7      0.041200
     35 HAX         3.6840   -2.0590    0.6350 hc        1 AD7      0.041200
     36 HAXA        3.5270   -0.4590    1.4580 hc        1 AD7      0.041200
     37 HAW         2.0660    0.3740   -0.4210 hc        1 AD7      0.055200
     38 HAWA        2.2460   -1.2090   -1.2690 hc        1 AD7      0.055200
     39 HAV         1.1040   -2.4100    0.5750 h1        1 AD7      0.036700
     40 HAVA        1.0900   -0.8960    1.6040 h1        1 AD7      0.036700
     41 HAJ        -1.2630   -1.2260    1.6390 h2        1 AD7      0.060700
     42 HAR        -2.6920   -3.2400    1.5940 h1        1 AD7      0.062700
     43 HAT        -3.2640   -5.3810    0.3930 h1        1 AD7      0.061200
     44 HATA       -2.2220   -4.8620   -1.0310 h1        1 AD7      0.061200
     45 HOAU       -0.4880   -4.8690    0.5250 ho        1 AD7      0.413000
     46 HAP        -4.6700   -3.2110   -0.0090 h1        1 AD7      0.082700
     47 HOAQ       -2.6910   -2.5200   -1.8930 ho        1 AD7      0.418000
     48 HAN        -4.0380   -1.1420    1.2630 h1        1 AD7      0.077700
     49 HNAO       -4.7920   -0.5630   -1.5150 hn        1 AD7      0.356800
     50 HNAA       -5.7790   -0.8650   -0.2540 hn        1 AD7      0.356800
     51 HAL        -2.2720   -0.2780   -1.1630 h1        1 AD7      0.088700
     52 HAA        -3.7040    1.7940   -0.6650 h2        1 AD7      0.100700
     53 HAB        -3.3420    3.9380    0.4300 hc        1 AD7      0.070700
     54 HABA       -3.5580    2.7480    1.7850 hc        1 AD7      0.070700
     55 HAE        -0.1420    1.5020    0.1710 h1        1 AD7      0.076700
     56 HAF         0.2250    3.4230   -2.2550 hc        1 AD7      0.049700
     57 HAFA        1.5380    2.6330   -1.2750 hc        1 AD7      0.049700
     58 HAFB        0.4280    1.6180   -2.3020 hc        1 AD7      0.049700
     59 HAD         0.5140    3.8810    0.8120 h1        1 AD7      0.090700
     60 HOAH       -1.5470    4.5440   -0.9780 ho        1 AD7      0.411000
     61 HAC        -1.1550    2.6640    2.2290 h1        1 AD7      0.088700
     62 HOAG       -1.7220    5.3730    1.6900 ho        1 AD7      0.413000
     63 H35         8.4790    0.1470    1.2580 hc        1 AD7      0.038700
     64 H36         8.6410   -1.4540    0.4410 hc        1 AD7      0.038700
     65 C20         9.6630    0.1710   -0.5480 c3        1 AD7     -0.093100
     66 H37        10.6230   -0.0080   -0.0070 hc        1 AD7      0.032700
     67 H38         9.7190   -0.3360   -1.5420 hc        1 AD7      0.032700
     68 H39         9.5560    1.2690   -0.7220 hc        1 AD7      0.032700
@<TRIPOS>BOND
     1    1    2 1   
     2    1   28 1   
     3    1   29 1   
     4    1   30 1   
     5    2    3 1   
     6    2   31 1   
     7    2   32 1   
     8    3    4 1   
     9    3   33 1   
    10    3   34 1   
    11    4    5 1   
    12    4   35 1   
    13    4   36 1   
    14    5    6 1   
    15    5   37 1   
    16    5   38 1   
    17    6    7 1   
    18    6   39 1   
    19    6   40 1   
    20    7    8 1   
    21    8    9 1   
    22    8   17 1   
    23    8   41 1   
    24    9   10 1   
    25   10   11 1   
    26   10   13 1   
    27   10   42 1   
    28   11   12 1   
    29   11   43 1   
    30   11   44 1   
    31   12   45 1   
    32   13   14 1   
    33   13   15 1   
    34   13   46 1   
    35   14   47 1   
    36   15   16 1   
    37   15   17 1   
    38   15   48 1   
    39   16   49 1   
    40   16   50 1   
    41   17   18 1   
    42   17   51 1   
    43   18   19 1   
    44   19   20 1   
    45   19   21 1   
    46   19   52 1   
    47   20   26 1   
    48   20   53 1   
    49   20   54 1   
    50   21   22 1   
    51   22   23 1   
    52   22   24 1   
    53   22   55 1   
    54   23   56 1   
    55   23   57 1   
    56   23   58 1   
    57   24   25 1   
    58   24   26 1   
    59   24   59 1   
    60   25   60 1   
    61   26   27 1   
    62   26   61 1   
    63   27   62 1   
    64   29   63 1   
    65   29   64 1   
    66   29   65 1   
    67   65   66 1   
    68   65   67 1   
    69   65   68 1   
@<TRIPOS>SUBSTRUCTURE
     1 AD7         1 TEMP              0 ****  ****    0 ROOT
