@<TRIPOS>MOLECULE
AD7
   68    69     1     0     0
SMALL
bcc


@<TRIPOS>ATOM
      1 CBA        -4.2070   -4.7280   -3.2830 c3        1 AD7     -0.079400
      2 CAZ        -3.2420   -3.5710   -3.5890 c3        1 AD7     -0.078400
      3 CAY        -3.0960   -2.6920   -2.3530 c3        1 AD7     -0.079400
      4 CAX        -1.9510   -1.6950   -2.5650 c3        1 AD7     -0.077400
      5 CAW        -1.5810   -1.0510   -1.2250 c3        1 AD7     -0.112400
      6 CAV        -0.3880   -0.1000   -1.4220 c3        1 AD7      0.134400
      7 OAK         0.2020    0.2080   -0.1340 os        1 AD7     -0.400600
      8 CAJ         1.5430    0.5900   -0.2030 c3        1 AD7      0.340900
      9 OAS         2.3410   -0.5610   -0.6330 os        1 AD7     -0.438600
     10 CAR         3.7850   -0.3100   -0.5730 c3        1 AD7      0.109100
     11 CAT         4.5120   -1.5890   -0.8560 c3        1 AD7      0.142400
     12 OAU         4.6860   -1.7350   -2.2510 oh        1 AD7     -0.602800
     13 CAP         4.2280    0.2190    0.7820 c3        1 AD7      0.122100
     14 OAQ         4.0920   -0.8320    1.7590 oh        1 AD7     -0.586800
     15 CAN         3.4280    1.3880    1.2210 c3        1 AD7      0.113500
     16 NAO         3.7920    1.7200    2.6070 n3        1 AD7     -0.902800
     17 CAL         1.9760    1.1260    1.1580 c3        1 AD7      0.090100
     18 OAM         1.2630    2.3640    1.4260 os        1 AD7     -0.458600
     19 CAA         1.2640    2.6170    2.8100 c3        1 AD7      0.342900
     20 CAB         1.7490    4.0320    3.0530 c3        1 AD7     -0.130400
     21 OAI        -0.0890    2.3880    3.3380 os        1 AD7     -0.422600
     22 CAE        -1.0550    3.3860    2.8810 c3        1 AD7      0.146100
     23 CAF        -2.3420    3.1780    3.6090 c3        1 AD7     -0.086100
     24 CAD        -0.5790    4.8110    3.1230 c3        1 AD7      0.122100
     25 OAH        -0.5710    5.0670    4.5480 oh        1 AD7     -0.589800
     26 CAC         0.7780    5.0490    2.5880 c3        1 AD7      0.105100
     27 OAG         1.2310    6.3680    3.0210 oh        1 AD7     -0.608800
     28 HBA        -5.1270   -4.3880   -3.2530 hc        1 AD7      0.040700
     29 C19        -4.0930   -5.7900   -4.3750 c3        1 AD7     -0.079400
     30 HBAA       -3.9760   -5.1270   -2.4130 hc        1 AD7      0.040700
     31 HAZ        -3.5960   -3.0400   -4.3260 hc        1 AD7      0.038700
     32 HAZA       -2.3680   -3.9330   -3.8380 hc        1 AD7      0.038700
     33 HAY        -3.9250   -2.2070   -2.2000 hc        1 AD7      0.043200
     34 HAYA       -2.8980   -3.2550   -1.5740 hc        1 AD7      0.043200
     35 HAX        -1.1740   -2.1630   -2.9280 hc        1 AD7      0.038200
     36 HAXA       -2.2380   -0.9970   -3.1960 hc        1 AD7      0.038200
     37 HAW        -1.3390   -1.7490   -0.5850 hc        1 AD7      0.058700
     38 HAWA       -2.3420   -0.5500   -0.8850 hc        1 AD7      0.058700
     39 HAV         0.2800   -0.5300   -1.9920 h1        1 AD7      0.046200
     40 HAVA       -0.6980    0.7300   -1.8480 h1        1 AD7      0.046200
     41 HAJ         1.6350    1.3000   -0.8630 h2        1 AD7      0.047700
     42 HAR         4.0200    0.3480   -1.2610 h1        1 AD7      0.049700
     43 HAT         3.9910   -2.3440   -0.5120 h1        1 AD7      0.063200
     44 HATA        5.3890   -1.5700   -0.4180 h1        1 AD7      0.063200
     45 HOAU        5.3010   -2.3620   -2.4110 ho        1 AD7      0.416000
     46 HAP         5.1740    0.4820    0.7280 h1        1 AD7      0.056700
     47 HOAQ        4.9000   -1.0730    2.0530 ho        1 AD7      0.407000
     48 HAN         3.6370    2.1440    0.6510 h1        1 AD7      0.071700
     49 HNAO        3.8220    2.6350    2.7060 hn        1 AD7      0.353300
     50 HNAA        3.1670    1.3720    3.1770 hn        1 AD7      0.353300
     51 HAL         1.7420    0.4690    1.8460 h1        1 AD7      0.105700
     52 HAA         1.8800    1.9940    3.2440 h2        1 AD7      0.064700
     53 HAB         2.5920    4.1620    2.5830 hc        1 AD7      0.070200
     54 HABA        1.8990    4.1550    4.0120 hc        1 AD7      0.070200
     55 HAE        -1.2090    3.2620    1.9230 h1        1 AD7      0.070700
     56 HAF        -2.7350    2.3220    3.3410 hc        1 AD7      0.051700
     57 HAFA       -2.9620    3.9050    3.3910 hc        1 AD7      0.051700
     58 HAFB       -2.1730    3.1720    4.5750 hc        1 AD7      0.051700
     59 HAD        -1.2020    5.4310    2.6920 h1        1 AD7      0.050700
     60 HOAH       -1.0680    5.7800    4.7230 ho        1 AD7      0.417000
     61 HAC         0.7420    5.0300    1.6140 h1        1 AD7      0.058700
     62 HOAG        1.2250    6.9240    2.3310 ho        1 AD7      0.409000
     63 H35        -3.1650   -6.0860   -4.4450 hc        1 AD7      0.037700
     64 H36        -4.3790   -5.4100   -5.2300 hc        1 AD7      0.037700
     65 C20        -4.9830   -6.9800   -4.0240 c3        1 AD7     -0.093100
     66 H37        -5.9070   -6.6780   -3.9210 hc        1 AD7      0.032367
     67 H38        -4.9350   -7.6500   -4.7450 hc        1 AD7      0.032367
     68 H39        -4.6740   -7.3840   -3.1800 hc        1 AD7      0.032367
@<TRIPOS>BOND
     1    1    2 1   
     2    1   28 1   
     3    1   29 1   
     4    1   30 1   
     5    2    3 1   
     6    2   31 1   
     7    2   32 1   
     8    3    4 1   
     9    3   33 1   
    10    3   34 1   
    11    4    5 1   
    12    4   35 1   
    13    4   36 1   
    14    5    6 1   
    15    5   37 1   
    16    5   38 1   
    17    6    7 1   
    18    6   39 1   
    19    6   40 1   
    20    7    8 1   
    21    8    9 1   
    22    8   17 1   
    23    8   41 1   
    24    9   10 1   
    25   10   11 1   
    26   10   13 1   
    27   10   42 1   
    28   11   12 1   
    29   11   43 1   
    30   11   44 1   
    31   12   45 1   
    32   13   14 1   
    33   13   15 1   
    34   13   46 1   
    35   14   47 1   
    36   15   16 1   
    37   15   17 1   
    38   15   48 1   
    39   16   49 1   
    40   16   50 1   
    41   17   18 1   
    42   17   51 1   
    43   18   19 1   
    44   19   20 1   
    45   19   21 1   
    46   19   52 1   
    47   20   26 1   
    48   20   53 1   
    49   20   54 1   
    50   21   22 1   
    51   22   23 1   
    52   22   24 1   
    53   22   55 1   
    54   23   56 1   
    55   23   57 1   
    56   23   58 1   
    57   24   25 1   
    58   24   26 1   
    59   24   59 1   
    60   25   60 1   
    61   26   27 1   
    62   26   61 1   
    63   27   62 1   
    64   29   63 1   
    65   29   64 1   
    66   29   65 1   
    67   65   66 1   
    68   65   67 1   
    69   65   68 1   
@<TRIPOS>SUBSTRUCTURE
     1 AD7         1 TEMP              0 ****  ****    0 ROOT
