@<TRIPOS>MOLECULE
AD7
   69    66     1     0     0
SMALL
bcc


@<TRIPOS>ATOM
      1 CBA         1.8840    0.8250    1.7660 c1        1 AD7      0.027000
      2 CAZ         1.8040   -0.4220    1.0660 c3        1 AD7     -0.258000
      3 CAY         2.3940   -1.6230    1.7780 c3        1 AD7     -0.159000
      4 CAX         3.9060   -1.6230    1.7060 c3        1 AD7     -0.164000
      5 CAW         4.4970   -2.7360    2.5460 c3        1 AD7     -0.165000
      6 CAV         5.9860   -2.5380    2.7720 c3        1 AD7     -0.017000
      7 OAK         6.1080   -1.5270    3.7840 os        1 AD7     -0.294000
      8 CAJ         7.4280   -1.0660    3.9730 c3        1 AD7      0.147000
      9 OAS         8.0980   -2.2190    4.4630 os        1 AD7     -0.298000
     10 CAR         9.4560   -1.9610    4.8040 c3        1 AD7     -0.052000
     11 CAT        11.3100   -0.0670    8.8980 c2        1 AD7      0.149000
     12 OAU        11.2590    0.8070    8.0330 o         1 AD7     -0.320000
     13 CAP         9.5410   -0.9120    5.9090 c3        1 AD7     -0.043000
     14 OAQ         9.0200   -1.4050    7.1300 oh        1 AD7     -0.325000
     15 CAN         8.8220    0.3970    5.4820 c3        1 AD7     -0.078000
     16 NAO         8.8380    1.4260    6.5000 n3        1 AD7     -0.337000
     17 CAL         7.3780    0.0560    5.0380 c3        1 AD7      0.015000
     18 OAM         6.7790    1.1610    4.3570 os        1 AD7     -0.300000
     19 CAA         6.0770    2.0810    5.1640 c3        1 AD7      0.155000
     20 CAB         5.8430    3.3430    4.3340 c3        1 AD7     -0.220000
     21 OAI         4.8910    1.4500    5.6300 os        1 AD7     -0.293000
     22 CAE         4.1270    0.6900    4.7100 c3        1 AD7     -0.011000
     23 CAF         3.6190   -0.5400    5.4610 c3        1 AD7     -0.214000
     24 CAD         2.9430    1.4210    4.1600 c1        1 AD7      0.039000
     25 OAH         2.5360    2.4740    4.8170 oh        1 AD7     -0.139000
     26 CAC         5.3480    3.1130    2.9190 c3        1 AD7     -0.027000
     27 OAG         3.9240    3.0770    2.8510 oh        1 AD7     -0.383000
     28 HBA         0.2980    5.8550    3.3740 hc        1 AD7      0.076500
     29 C19         0.0060    4.8080    3.6340 c3        1 AD7     -0.225500
     30 HBAA        1.5710    1.7400    1.2340 ha        1 AD7      0.115000
     31 HAZ         1.5080    3.8740    2.3740 hc        1 AD7      0.076500
     32 HAZA        2.2560   -0.3280    0.0290 hc        1 AD7      0.179000
     33 HAY         0.6940   -0.6040    0.8700 hc        1 AD7      0.179000
     34 HAYA        2.0620   -1.6250    2.8510 hc        1 AD7      0.104500
     35 HAX         1.9970   -2.5600    1.3040 hc        1 AD7      0.104500
     36 HAXA        4.2980   -0.6360    2.0720 hc        1 AD7      0.085000
     37 HAW         4.2370   -1.7380    0.6400 hc        1 AD7      0.085000
     38 HAWA        3.9830   -2.7750    3.5440 hc        1 AD7      0.102500
     39 HAV         4.3420   -3.7240    2.0390 hc        1 AD7      0.102500
     40 HAVA        6.5030   -2.2000    1.8360 h1        1 AD7      0.091500
     41 HAJ         6.4640   -3.4810    3.1470 h1        1 AD7      0.091500
     42 HAR         7.8930   -0.7070    3.0140 h2        1 AD7      0.097000
     43 HAT        10.0260   -1.6270    3.8990 h1        1 AD7      0.112500
     44 HATA       11.9860    0.0150    9.7750 h4        1 AD7      0.087000
     45 HOAU       10.6200   -0.6790    6.1480 h1        1 AD7      0.143000
     46 HAP         9.8370   -2.9550    5.1630 h1        1 AD7      0.112500
     47 HOAQ        8.1630   -1.8100    6.9350 ho        1 AD7      0.212000
     48 HAN        10.6800   -0.9810    8.8400 h4        1 AD7      0.087000
     49 HNAO        9.3620    0.7980    4.5740 h1        1 AD7      0.114000
     50 HNAA        8.6060    1.0260    7.3920 hn        1 AD7      0.166000
     51 HAL         6.7400   -0.2610    5.9070 h1        1 AD7      0.120000
     52 HAA         6.6110    2.3370    6.1270 h2        1 AD7      0.168000
     53 HAB         6.8260    3.8840    4.2830 hc        1 AD7      0.121000
     54 HABA        5.1160    3.9840    4.9000 hc        1 AD7      0.121000
     55 HAE         5.6760    2.1150    2.5220 h1        1 AD7      0.110000
     56 HAF         4.7630    0.3680    3.8290 h1        1 AD7      0.164000
     57 HAFA        2.8180   -1.0490    4.8750 hc        1 AD7      0.105000
     58 HAFB        4.4760   -1.2480    5.5950 hc        1 AD7      0.105000
     59 HAD         3.2290   -0.2480    6.4650 hc        1 AD7      0.105000
     60 HOAH        1.7470    2.8590    4.3750 ho        1 AD7      0.260000
     61 HAC         3.6010    3.9310    3.1690 ho        1 AD7      0.216000
     62 HOAG        5.7220    3.9260    2.2390 h1        1 AD7      0.110000
     63 H35         2.3750    1.0200    3.0210 DU        1 AD7      0.316000
     64 H36         0.5000    4.5380    4.5990 hc        1 AD7      0.076500
     65 C20         0.4000    3.8630    2.5370 c3        1 AD7     -0.225500
     66 H37        -0.0930    4.1530    1.5760 hc        1 AD7      0.076500
     67 H38        -1.1000    4.7870    3.7930 hc        1 AD7      0.076500
     68 H39         0.0920    2.8160    2.7820 hc        1 AD7      0.076500
     69 HAO3        9.7570    1.8240    6.5670 hn        1 AD7      0.166000
@<TRIPOS>BOND
     1    1    2 1   
     2    1   30 1   
     3    2    3 1   
     4    2   32 1   
     5    2   33 1   
     6    3    4 1   
     7    3   34 1   
     8    3   35 1   
     9    4    5 1   
    10    4   36 1   
    11    4   37 1   
    12    5    6 1   
    13    5   38 1   
    14    5   39 1   
    15    6    7 1   
    16    6   40 1   
    17    6   41 1   
    18    7    8 1   
    19    8    9 1   
    20    8   17 1   
    21    8   42 1   
    22    9   10 1   
    23   10   13 1   
    24   10   43 1   
    25   10   46 1   
    26   11   12 1   
    27   11   44 1   
    28   11   48 1   
    29   13   14 1   
    30   13   15 1   
    31   13   45 1   
    32   14   47 1   
    33   15   16 1   
    34   15   17 1   
    35   15   49 1   
    36   16   50 1   
    37   16   69 1   
    38   17   18 1   
    39   17   51 1   
    40   18   19 1   
    41   19   20 1   
    42   19   21 1   
    43   19   52 1   
    44   20   26 1   
    45   20   53 1   
    46   20   54 1   
    47   21   22 1   
    48   22   23 1   
    49   22   24 1   
    50   22   56 1   
    51   23   57 1   
    52   23   58 1   
    53   23   59 1   
    54   24   25 1   
    55   25   60 1   
    56   26   27 1   
    57   26   55 1   
    58   26   62 1   
    59   27   61 1   
    60   28   29 1   
    61   29   64 1   
    62   29   65 1   
    63   29   67 1   
    64   31   65 1   
    65   65   66 1   
    66   65   68 1   
@<TRIPOS>SUBSTRUCTURE
     1 AD7         1 TEMP              0 ****  ****    0 ROOT
