@<TRIPOS>MOLECULE
AD8
   38    41     1     0     0
SMALL
bcc


@<TRIPOS>ATOM
      1 N          -0.1800    0.0740    0.0300 na        1 AD8     -0.211900
      2 CAQ         0.6970    1.1750   -0.0180 cc        1 AD8      0.378400
      3 NAP         1.5610    1.1560    1.0150 nd        1 AD8     -0.661000
      4 CAO         1.2460    0.0160    1.7580 cd        1 AD8      0.279200
      5 CAN         0.1690   -0.6660    1.1650 cc        1 AD8     -0.228600
      6 CA         -1.2520   -0.1750   -0.8810 c3        1 AD8     -0.057700
      7 C          -1.4340   -1.6190   -1.3330 c         1 AD8      0.562100
      8 O          -1.0410   -2.5750   -0.6620 o         1 AD8     -0.509100
      9 CAE        -2.1730   -1.8010   -2.6450 c3        1 AD8     -0.144000
     10 CAF        -3.4120   -0.9020   -2.7140 c3        1 AD8     -0.061733
     11 CAI        -2.6170   -3.2640   -2.7830 c3        1 AD8     -0.061733
     12 CAD        -1.2330   -1.4600   -3.8100 c3        1 AD8     -0.061733
     13 CAC        -1.9600   -1.6670   -5.1350 c3        1 AD8     -0.061033
     14 CAB        -3.1870   -0.7640   -5.1910 c3        1 AD8     -0.072067
     15 CAH        -2.3940   -3.1240   -5.2580 c3        1 AD8     -0.072067
     16 CAJ        -3.3360   -3.4700   -4.1090 c3        1 AD8     -0.061033
     17 CAG        -4.5640   -2.5690   -4.1670 c3        1 AD8     -0.072067
     18 CAA        -4.1300   -1.1130   -4.0440 c3        1 AD8     -0.061033
     19 HAQ         0.6540    1.9310   -0.8080 h5        1 AD8      0.056100
     20 HAO         1.7980   -0.2470    2.6580 h4        1 AD8      0.043100
     21 HAN        -0.3350   -1.5960    1.4240 h4        1 AD8      0.194000
     22 HA         -2.2310    0.1280   -0.4000 h1        1 AD8      0.077700
     23 HAA        -1.0920    0.4730   -1.7910 h1        1 AD8      0.077700
     24 HAF        -3.1170    0.1750   -2.6240 hc        1 AD8      0.049200
     25 HAFA       -4.1010   -1.1480   -1.8670 hc        1 AD8      0.049200
     26 HAI        -3.2960   -3.5270   -1.9320 hc        1 AD8      0.049200
     27 HAIA       -1.7180   -3.9310   -2.7210 hc        1 AD8      0.049200
     28 HAD        -0.8940   -0.3960   -3.7320 hc        1 AD8      0.049200
     29 HADA       -0.3290   -2.1200   -3.7650 hc        1 AD8      0.049200
     30 HAC        -1.2650   -1.4090   -5.9780 hc        1 AD8      0.055367
     31 HAB        -3.7140   -0.9020   -6.1690 hc        1 AD8      0.044867
     32 HABA       -2.8750    0.3090   -5.1150 hc        1 AD8      0.044867
     33 HAH        -1.4960   -3.7920   -5.2280 hc        1 AD8      0.044867
     34 HAHA       -2.9130   -3.2830   -6.2370 hc        1 AD8      0.044867
     35 HAJ        -3.6520   -4.5440   -4.1950 hc        1 AD8      0.055367
     36 HAG        -5.1040   -2.7230   -5.1360 hc        1 AD8      0.044867
     37 HAGA       -5.2670   -2.8290   -3.3350 hc        1 AD8      0.044867
     38 HAAA       -5.0320   -0.4470   -4.0830 hc        1 AD8      0.055367
@<TRIPOS>BOND
     1    1    2 1   
     2    1    5 1   
     3    1    6 1   
     4    2    3 2   
     5    2   19 1   
     6    3    4 1   
     7    4    5 2   
     8    4   20 1   
     9    5   21 1   
    10    6    7 1   
    11    6   22 1   
    12    6   23 1   
    13    7    8 2   
    14    7    9 1   
    15    9   10 1   
    16    9   11 1   
    17    9   12 1   
    18   10   18 1   
    19   10   24 1   
    20   10   25 1   
    21   11   16 1   
    22   11   26 1   
    23   11   27 1   
    24   12   13 1   
    25   12   28 1   
    26   12   29 1   
    27   13   14 1   
    28   13   15 1   
    29   13   30 1   
    30   14   18 1   
    31   14   31 1   
    32   14   32 1   
    33   15   16 1   
    34   15   33 1   
    35   15   34 1   
    36   16   17 1   
    37   16   35 1   
    38   17   18 1   
    39   17   36 1   
    40   17   37 1   
    41   18   38 1   
@<TRIPOS>SUBSTRUCTURE
     1 AD8         1 TEMP              0 ****  ****    0 ROOT
