@<TRIPOS>MOLECULE
AD8
   38    41     1     0     0
SMALL
bcc


@<TRIPOS>ATOM
      1 N           0.0020   -0.0940   -0.0160 na        1 AD8     -0.213900
      2 CAQ         0.8810   -0.9150    0.7120 cc        1 AD8      0.413400
      3 NAP         1.2050   -0.3560    1.8950 nd        1 AD8     -0.674000
      4 CAO         0.5250    0.8620    1.9440 cd        1 AD8      0.297200
      5 CAN        -0.2250    1.0450    0.7700 cc        1 AD8     -0.267600
      6 CA         -0.5150   -0.3010   -1.3310 c3        1 AD8     -0.057700
      7 C          -0.9400   -1.7230   -1.6750 c         1 AD8      0.563100
      8 O          -0.4890   -2.7080   -1.0880 o         1 AD8     -0.512100
      9 CAE        -1.9290   -1.8470   -2.8190 c3        1 AD8     -0.143000
     10 CAF        -3.3290   -1.4610   -2.3260 c3        1 AD8     -0.062400
     11 CAI        -1.9620   -3.3020   -3.3090 c3        1 AD8     -0.062400
     12 CAD        -1.5370   -0.9420   -3.9930 c3        1 AD8     -0.062400
     13 CAC        -2.5500   -1.0950   -5.1230 c3        1 AD8     -0.061033
     14 CAB        -3.9350   -0.7010   -4.6210 c3        1 AD8     -0.072067
     15 CAH        -2.5740   -2.5440   -5.5980 c3        1 AD8     -0.072067
     16 CAJ        -2.9720   -3.4500   -4.4390 c3        1 AD8     -0.061033
     17 CAG        -4.3580   -3.0590   -3.9370 c3        1 AD8     -0.072067
     18 CAA        -4.3350   -1.6100   -3.4620 c3        1 AD8     -0.061033
     19 HAQ         1.2060   -1.8960    0.3410 h5        1 AD8      0.080100
     20 HAO         0.6100    1.5260    2.8020 h4        1 AD8      0.041100
     21 HAN        -0.8730    1.8560    0.4490 h4        1 AD8      0.172000
     22 HA         -1.4010    0.3850   -1.4700 h1        1 AD8      0.077700
     23 HAA         0.2720   -0.0160   -2.0930 h1        1 AD8      0.077700
     24 HAF        -3.6200   -2.1240   -1.4710 hc        1 AD8      0.049533
     25 HAFA       -3.3300   -0.4010   -1.9620 hc        1 AD8      0.049533
     26 HAI        -0.9420   -3.5980   -3.6630 hc        1 AD8      0.049533
     27 HAIA       -2.2350   -3.9730   -2.4540 hc        1 AD8      0.049533
     28 HAD        -1.5120    0.1290   -3.6670 hc        1 AD8      0.049533
     29 HADA       -0.5150   -1.2210   -4.3570 hc        1 AD8      0.049533
     30 HAC        -2.2550   -0.4250   -5.9740 hc        1 AD8      0.055033
     31 HAB        -4.6800   -0.7970   -5.4510 hc        1 AD8      0.044700
     32 HABA       -3.9290    0.3660   -4.2830 hc        1 AD8      0.044700
     33 HAH        -3.3070   -2.6550   -6.4380 hc        1 AD8      0.044700
     34 HAHA       -1.5630   -2.8360   -5.9810 hc        1 AD8      0.044700
     35 HAJ        -2.9860   -4.5180   -4.7840 hc        1 AD8      0.055033
     36 HAG        -4.6620   -3.7310   -3.0940 hc        1 AD8      0.044700
     37 HAGA       -5.1080   -3.1750   -4.7610 hc        1 AD8      0.044700
     38 HAAA       -5.3540   -1.3190   -3.0910 hc        1 AD8      0.055033
@<TRIPOS>BOND
     1    1    2 1   
     2    1    5 1   
     3    1    6 1   
     4    2    3 2   
     5    2   19 1   
     6    3    4 1   
     7    4    5 2   
     8    4   20 1   
     9    5   21 1   
    10    6    7 1   
    11    6   22 1   
    12    6   23 1   
    13    7    8 2   
    14    7    9 1   
    15    9   10 1   
    16    9   11 1   
    17    9   12 1   
    18   10   18 1   
    19   10   24 1   
    20   10   25 1   
    21   11   16 1   
    22   11   26 1   
    23   11   27 1   
    24   12   13 1   
    25   12   28 1   
    26   12   29 1   
    27   13   14 1   
    28   13   15 1   
    29   13   30 1   
    30   14   18 1   
    31   14   31 1   
    32   14   32 1   
    33   15   16 1   
    34   15   33 1   
    35   15   34 1   
    36   16   17 1   
    37   16   35 1   
    38   17   18 1   
    39   17   36 1   
    40   17   37 1   
    41   18   38 1   
@<TRIPOS>SUBSTRUCTURE
     1 AD8         1 TEMP              0 ****  ****    0 ROOT
