@<TRIPOS>MOLECULE
AD8
   38    41     1     0     0
SMALL
bcc


@<TRIPOS>ATOM
      1 N           2.9280   -0.3260   -0.1640 na        1 AD8     -0.213900
      2 CAQ         3.7410    0.5410    0.5870 cc        1 AD8      0.413400
      3 NAP         4.9990    0.5710    0.1030 nd        1 AD8     -0.674000
      4 CAO         5.0120   -0.2980   -0.9890 cd        1 AD8      0.297200
      5 CAN         3.7400   -0.8650   -1.1730 cc        1 AD8     -0.267600
      6 CA          1.5630   -0.6790    0.0670 c3        1 AD8     -0.057700
      7 C           0.6340    0.4510    0.4930 c         1 AD8      0.563100
      8 O           1.0490    1.4780    1.0350 o         1 AD8     -0.512100
      9 CAE        -0.8420    0.2080    0.2420 c3        1 AD8     -0.143000
     10 CAF        -1.1450    0.4130   -1.2480 c3        1 AD8     -0.062400
     11 CAI        -1.6690    1.2140    1.0560 c3        1 AD8     -0.062400
     12 CAD        -1.2500   -1.2100    0.6530 c3        1 AD8     -0.062400
     13 CAC        -2.7390   -1.4160    0.3890 c3        1 AD8     -0.061033
     14 CAB        -3.0240   -1.2170   -1.0960 c3        1 AD8     -0.072067
     15 CAH        -3.5480   -0.4110    1.2020 c3        1 AD8     -0.072067
     16 CAJ        -3.1550    1.0040    0.7920 c3        1 AD8     -0.061033
     17 CAG        -3.4410    1.2050   -0.6920 c3        1 AD8     -0.072067
     18 CAA        -2.6320    0.1990   -1.5050 c3        1 AD8     -0.061033
     19 HAQ         3.3490    1.1250    1.4290 h5        1 AD8      0.080100
     20 HAO         5.9170   -0.4640   -1.5720 h4        1 AD8      0.041100
     21 HAN         3.3670   -1.5740   -1.9060 h4        1 AD8      0.172000
     22 HA          1.1570   -1.1440   -0.8780 h1        1 AD8      0.077700
     23 HAA         1.5110   -1.4560    0.8900 h1        1 AD8      0.077700
     24 HAF        -0.8520    1.4510   -1.5500 hc        1 AD8      0.049533
     25 HAFA       -0.5510   -0.3100   -1.8630 hc        1 AD8      0.049533
     26 HAI        -1.4480    1.0810    2.1460 hc        1 AD8      0.049533
     27 HAIA       -1.3690    2.2560    0.7720 hc        1 AD8      0.049533
     28 HAD        -0.6670   -1.9680    0.0680 hc        1 AD8      0.049533
     29 HADA       -1.0320   -1.3640    1.7400 hc        1 AD8      0.049533
     30 HAC        -3.0240   -2.4590    0.6900 hc        1 AD8      0.055033
     31 HAB        -2.4440   -1.9620   -1.6980 hc        1 AD8      0.044700
     32 HABA       -4.1130   -1.3830   -1.2980 hc        1 AD8      0.044700
     33 HAH        -4.6420   -0.5700    1.0200 hc        1 AD8      0.044700
     34 HAHA       -3.3530   -0.5590    2.2940 hc        1 AD8      0.044700
     35 HAJ        -3.7450    1.7470    1.3920 hc        1 AD8      0.055033
     36 HAG        -4.5340    1.0620   -0.8910 hc        1 AD8      0.044700
     37 HAGA       -3.1670    2.2470   -0.9950 hc        1 AD8      0.044700
     38 HAAA       -2.8410    0.3450   -2.5980 hc        1 AD8      0.055033
@<TRIPOS>BOND
     1    1    2 1   
     2    1    5 1   
     3    1    6 1   
     4    2    3 2   
     5    2   19 1   
     6    3    4 1   
     7    4    5 2   
     8    4   20 1   
     9    5   21 1   
    10    6    7 1   
    11    6   22 1   
    12    6   23 1   
    13    7    8 2   
    14    7    9 1   
    15    9   10 1   
    16    9   11 1   
    17    9   12 1   
    18   10   18 1   
    19   10   24 1   
    20   10   25 1   
    21   11   16 1   
    22   11   26 1   
    23   11   27 1   
    24   12   13 1   
    25   12   28 1   
    26   12   29 1   
    27   13   14 1   
    28   13   15 1   
    29   13   30 1   
    30   14   18 1   
    31   14   31 1   
    32   14   32 1   
    33   15   16 1   
    34   15   33 1   
    35   15   34 1   
    36   16   17 1   
    37   16   35 1   
    38   17   18 1   
    39   17   36 1   
    40   17   37 1   
    41   18   38 1   
@<TRIPOS>SUBSTRUCTURE
     1 AD8         1 TEMP              0 ****  ****    0 ROOT
