@<TRIPOS>MOLECULE
ADA
   22    22     1     0     0
SMALL
bcc


@<TRIPOS>ATOM
      1 C1         -0.8920    0.3080   -1.3080 c3        1 ADA      0.292900
      2 C2          0.5970    0.2630   -1.3030 c3        1 ADA      0.089100
      3 C3          1.1650    0.2330    0.0460 c3        1 ADA      0.099100
      4 C4          0.5690   -0.8410    0.8980 c3        1 ADA      0.104100
      5 C5         -0.9810   -0.7940    0.9370 c3        1 ADA     -0.012900
      6 C6         -1.4690    0.3480    1.7640 c         1 ADA      0.890600
      7 O1         -1.3410    0.1620   -2.6200 oh        1 ADA     -0.618800
      8 O2          1.0320   -0.9410   -2.0240 oh        1 ADA     -0.601800
      9 O3          0.9260    1.5270    0.6850 oh        1 ADA     -0.616800
     10 O4          1.0630   -0.7000    2.2210 oh        1 ADA     -0.610800
     11 O5         -1.5080   -0.7570   -0.4680 os        1 ADA     -0.464600
     12 O6B        -2.4020    1.0790    1.3400 o         1 ADA     -0.825800
     13 O6A        -0.9490    0.5800    2.8870 o         1 ADA     -0.825800
     14 H1         -1.1810    1.1790   -0.9710 h2        1 ADA      0.111700
     15 H2          0.9370    1.0500   -1.7700 h1        1 ADA      0.076700
     16 H3          2.1270    0.0860   -0.0210 h1        1 ADA      0.072700
     17 H4          0.8480   -1.7110    0.5490 h1        1 ADA      0.050700
     18 H5         -1.3510   -1.5540    1.4270 h1        1 ADA      0.077700
     19 HA         -2.1290    0.5660   -2.7100 ho        1 ADA      0.417000
     20 HB          1.7020   -0.7330   -2.5710 ho        1 ADA      0.409000
     21 HC          1.6480    2.0390    0.5960 ho        1 ADA      0.442000
     22 HD          1.5900   -1.3880    2.4150 ho        1 ADA      0.443000
@<TRIPOS>BOND
     1    1    2 1   
     2    1    7 1   
     3    1   11 1   
     4    1   14 1   
     5    2    3 1   
     6    2    8 1   
     7    2   15 1   
     8    3    4 1   
     9    3    9 1   
    10    3   16 1   
    11    4    5 1   
    12    4   10 1   
    13    4   17 1   
    14    5    6 1   
    15    5   11 1   
    16    5   18 1   
    17    6   12 1   
    18    6   13 1   
    19    7   19 1   
    20    8   20 1   
    21    9   21 1   
    22   10   22 1   
@<TRIPOS>SUBSTRUCTURE
     1 ADA         1 TEMP              0 ****  ****    0 ROOT
