@<TRIPOS>MOLECULE
ADA
   22    22     1     0     0
SMALL
bcc


@<TRIPOS>ATOM
      1 C1          1.4950   -0.4270   -0.9710 c3        1 ADA      0.301900
      2 C2          0.2500   -0.4840   -1.8770 c3        1 ADA      0.098100
      3 C3         -0.8390    0.4770   -1.3760 c3        1 ADA      0.109100
      4 C4         -1.0770    0.2340    0.1280 c3        1 ADA      0.114100
      5 C5          0.2420    0.4180    0.8780 c3        1 ADA     -0.030900
      6 C6          0.1070    0.1880    2.4180 c         1 ADA      0.936600
      7 O1          2.1650    0.7990   -1.2080 oh        1 ADA     -0.665800
      8 O2          0.6160   -0.2240   -3.2180 oh        1 ADA     -0.597800
      9 O3         -2.0330    0.3210   -2.1170 oh        1 ADA     -0.603800
     10 O4         -1.6360   -1.0630    0.2380 oh        1 ADA     -0.657800
     11 O5          1.2340   -0.4990    0.4080 os        1 ADA     -0.408600
     12 O6B         0.7030    1.0110    3.1560 o         1 ADA     -0.816300
     13 O6A        -0.6130   -0.7700    2.8130 o         1 ADA     -0.816300
     14 H1          2.1880   -1.2900   -1.1900 h2        1 ADA      0.062700
     15 H2         -0.1520   -1.5350   -1.8800 h1        1 ADA      0.091700
     16 H3         -0.5250    1.5420   -1.5510 h1        1 ADA      0.071700
     17 H4         -1.8290    0.9770    0.5160 h1        1 ADA      0.049700
     18 H5          0.6110    1.4660    0.7010 h1        1 ADA      0.039700
     19 HA          2.6390    1.0300   -0.3980 ho        1 ADA      0.429000
     20 HB          0.9760    0.6730   -3.2390 ho        1 ADA      0.408000
     21 HC         -2.4140   -0.5280   -1.8560 ho        1 ADA      0.415000
     22 HD         -1.4230   -1.3950    1.1290 ho        1 ADA      0.470000
@<TRIPOS>BOND
     1    1    2 1   
     2    1    7 1   
     3    1   11 1   
     4    1   14 1   
     5    2    3 1   
     6    2    8 1   
     7    2   15 1   
     8    3    4 1   
     9    3    9 1   
    10    3   16 1   
    11    4    5 1   
    12    4   10 1   
    13    4   17 1   
    14    5    6 1   
    15    5   11 1   
    16    5   18 1   
    17    6   12 1   
    18    6   13 1   
    19    7   19 1   
    20    8   20 1   
    21    9   21 1   
    22   10   22 1   
@<TRIPOS>SUBSTRUCTURE
     1 ADA         1 TEMP              0 ****  ****    0 ROOT
