@<TRIPOS>MOLECULE
ADB
   37    39     1     0     0
SMALL
bcc


@<TRIPOS>ATOM
      1 C1          0.5950   -0.6930   -0.3720 ca        1 ADB      0.005100
      2 O7         -0.1720   -1.1350   -1.4690 os        1 ADB     -0.228400
      3 C2          1.7620   -1.3930   -0.0150 ca        1 ADB      0.041900
      4 CL2         2.1220   -2.9030   -0.6900 cl        1 ADB     -0.037400
      5 C3          2.6360   -0.8160    0.9110 ca        1 ADB     -0.104000
      6 C4          2.3330    0.4230    1.4770 ca        1 ADB     -0.061000
      7 C5          1.1580    1.0960    1.1450 ca        1 ADB     -0.104000
      8 C6          0.2650    0.5390    0.2210 ca        1 ADB      0.041900
      9 CL6        -1.1630    1.3550   -0.1650 cl        1 ADB     -0.037400
     10 C8         -1.1070   -2.0930   -1.2680 ca        1 ADB      0.966300
     11 N1         -1.7840   -2.4400   -2.4370 nb        1 ADB     -0.659000
     12 C9         -2.7250   -3.4080   -2.2700 ca        1 ADB      0.821900
     13 N5         -3.4740   -3.8310   -3.5010 n4        1 ADB     -0.608100
     14 N2         -3.0590   -4.0480   -1.0890 nb        1 ADB     -0.743000
     15 C10        -2.3190   -3.6070   -0.0140 ca        1 ADB      0.813900
     16 N4         -2.6220   -4.2440    1.3030 n4        1 ADB     -0.825300
     17 N3         -1.3450   -2.6570   -0.0170 nb        1 ADB     -0.707000
     18 C11        -2.6720   -4.7500   -4.3220 ca        1 ADB     -0.081400
     19 C12        -1.6980   -4.2290   -5.1930 ca        1 ADB     -0.090000
     20 C13        -0.9880   -5.1030   -6.0120 ca        1 ADB     -0.076500
     21 C14        -1.2390   -6.4830   -5.9620 ca        1 ADB      0.097000
     22 C15        -2.2110   -6.9910   -5.0840 ca        1 ADB     -0.076500
     23 C16        -2.9290   -6.1330   -4.2580 ca        1 ADB     -0.090000
     24 C17        -0.5090   -7.3680   -6.7990 cg        1 ADB      0.165800
     25 N6          0.0890   -8.0940   -7.4840 n1        1 ADB     -0.221800
     26 H3          3.5710   -1.3360    1.1840 ha        1 ADB      0.187500
     27 H4          3.0370    0.8790    2.1970 ha        1 ADB      0.183000
     28 H5          0.9310    2.0760    1.6030 ha        1 ADB      0.187500
     29 HN5        -3.6910   -2.9850   -4.0600 hn        1 ADB      0.497300
     30 HN41       -2.4510   -5.2590    1.2400 hn        1 ADB      0.502800
     31 HN42       -3.6120   -4.0780    1.5440 hn        1 ADB      0.502800
     32 H12        -1.4860   -3.1460   -5.2480 ha        1 ADB      0.171500
     33 H13        -0.2270   -4.7020   -6.7080 ha        1 ADB      0.195500
     34 H15        -2.4140   -8.0780   -5.0530 ha        1 ADB      0.195500
     35 H16        -3.6950   -6.5510   -3.5830 ha        1 ADB      0.171500
     36 H52        -4.3560   -4.2950   -3.2260 hn        1 ADB      0.497300
     37 H43        -2.0180   -3.8400    2.0410 hn        1 ADB      0.502800
@<TRIPOS>BOND
     1    1    2 1   
     2    1    3 ar  
     3    1    8 ar  
     4    2   10 1   
     5    3    4 1   
     6    3    5 ar  
     7    5    6 ar  
     8    5   26 1   
     9    6    7 ar  
    10    6   27 1   
    11    7    8 ar  
    12    7   28 1   
    13    8    9 1   
    14   10   11 ar  
    15   10   17 ar  
    16   11   12 ar  
    17   12   13 1   
    18   12   14 ar  
    19   13   18 1   
    20   13   29 1   
    21   13   36 1   
    22   14   15 ar  
    23   15   16 1   
    24   15   17 ar  
    25   16   30 1   
    26   16   31 1   
    27   16   37 1   
    28   18   19 ar  
    29   18   23 ar  
    30   19   20 ar  
    31   19   32 1   
    32   20   21 ar  
    33   20   33 1   
    34   21   22 ar  
    35   21   24 1   
    36   22   23 ar  
    37   22   34 1   
    38   23   35 1   
    39   24   25 3   
@<TRIPOS>SUBSTRUCTURE
     1 ADB         1 TEMP              0 ****  ****    0 ROOT
