@<TRIPOS>MOLECULE
ADB
   35    37     1     0     0
SMALL
bcc


@<TRIPOS>ATOM
      1 C1         -0.0810    0.2410    3.4780 ca        1 ADB      0.106100
      2 O7         -0.2120    0.9890    2.3050 os        1 ADB     -0.319400
      3 C2          1.1510    0.2180    4.1560 ca        1 ADB      0.032900
      4 CL2         2.5390    0.9250    3.4900 cl        1 ADB     -0.058900
      5 C3          1.2360   -0.3980    5.4090 ca        1 ADB     -0.123500
      6 C4          0.1090   -0.9940    5.9720 ca        1 ADB     -0.110000
      7 C5         -1.1100   -0.9860    5.2970 ca        1 ADB     -0.123500
      8 C6         -1.2120   -0.3750    4.0430 ca        1 ADB      0.032900
      9 CL6        -2.7050   -0.3900    3.2390 cl        1 ADB     -0.058900
     10 C8          0.0090    0.3130    1.1060 ca        1 ADB      0.919300
     11 N1         -0.1440    1.1380    0.0260 nb        1 ADB     -0.798000
     12 C9          0.0720    0.4910   -1.1940 ca        1 ADB      0.937900
     13 N5         -0.0150    1.3120   -2.3280 nh        1 ADB     -0.721300
     14 N2          0.3800   -0.8460   -1.3430 nb        1 ADB     -0.845000
     15 C10         0.5110   -1.5560   -0.1530 ca        1 ADB      0.948900
     16 N4          0.8830   -2.8840   -0.2390 nh        1 ADB     -0.944500
     17 N3          0.3240   -1.0180    1.1200 nb        1 ADB     -0.845000
     18 C11        -0.0630    0.8240   -3.6490 ca        1 ADB      0.169600
     19 C12         0.9170   -0.0570   -4.1550 ca        1 ADB     -0.148000
     20 C13         0.8710   -0.4630   -5.4850 ca        1 ADB     -0.076000
     21 C14        -0.1360    0.0040   -6.3390 ca        1 ADB     -0.035000
     22 C15        -1.1040    0.8900   -5.8480 ca        1 ADB     -0.076000
     23 C16        -1.0730    1.2950   -4.5210 ca        1 ADB     -0.148000
     24 C17        -0.1740   -0.4160   -7.6950 cg        1 ADB      0.235800
     25 N6         -0.2060   -0.7610   -8.8060 n1        1 ADB     -0.364800
     26 H3          2.1960   -0.4130    5.9490 ha        1 ADB      0.154000
     27 H4          0.1830   -1.4770    6.9580 ha        1 ADB      0.145000
     28 H5         -1.9940   -1.4630    5.7480 ha        1 ADB      0.154000
     29 HN5        -0.4460    2.2040   -2.1840 hn        1 ADB      0.457800
     30 HN41        0.8580   -3.4430    0.5790 hn        1 ADB      0.449300
     31 HN42        0.8910   -3.3260   -1.1250 hn        1 ADB      0.449300
     32 H12         1.7270   -0.4290   -3.5100 ha        1 ADB      0.152500
     33 H13         1.6390   -1.1540   -5.8670 ha        1 ADB      0.147000
     34 H15        -1.8970    1.2640   -6.5160 ha        1 ADB      0.147000
     35 H16        -1.8460    1.9900   -4.1550 ha        1 ADB      0.152500
@<TRIPOS>BOND
     1    1    2 1   
     2    1    3 ar  
     3    1    8 ar  
     4    2   10 1   
     5    3    4 1   
     6    3    5 ar  
     7    5    6 ar  
     8    5   26 1   
     9    6    7 ar  
    10    6   27 1   
    11    7    8 ar  
    12    7   28 1   
    13    8    9 1   
    14   10   11 ar  
    15   10   17 ar  
    16   11   12 ar  
    17   12   13 1   
    18   12   14 ar  
    19   13   18 1   
    20   13   29 1   
    21   14   15 ar  
    22   15   16 1   
    23   15   17 ar  
    24   16   30 1   
    25   16   31 1   
    26   18   19 ar  
    27   18   23 ar  
    28   19   20 ar  
    29   19   32 1   
    30   20   21 ar  
    31   20   33 1   
    32   21   22 ar  
    33   21   24 1   
    34   22   23 ar  
    35   22   34 1   
    36   23   35 1   
    37   24   25 3   
@<TRIPOS>SUBSTRUCTURE
     1 ADB         1 TEMP              0 ****  ****    0 ROOT
