@<TRIPOS>MOLECULE
ADB
   35    37     1     0     0
SMALL
bcc


@<TRIPOS>ATOM
      1 C1          0.0300   -0.0500    0.2030 ca        1 ADB      0.106100
      2 O7         -0.5810   -0.3690   -1.0120 os        1 ADB     -0.319400
      3 C2          1.4020    0.2570    0.2340 ca        1 ADB      0.032900
      4 CL2         2.3810    0.0730   -1.1370 cl        1 ADB     -0.058900
      5 C3          1.9750    0.7300    1.4200 ca        1 ADB     -0.123500
      6 C4          1.1920    0.8810    2.5620 ca        1 ADB     -0.110000
      7 C5         -0.1650    0.5630    2.5400 ca        1 ADB     -0.123500
      8 C6         -0.7530    0.0890    1.3620 ca        1 ADB      0.032900
      9 CL6        -2.4030   -0.3000    1.3660 cl        1 ADB     -0.058900
     10 C8         -0.6490   -1.7220   -1.3410 ca        1 ADB      0.919300
     11 N1         -1.2620   -1.9180   -2.5470 nb        1 ADB     -0.798000
     12 C9         -1.3460   -3.2660   -2.9080 ca        1 ADB      0.937900
     13 N5         -1.9150   -3.5130   -4.1670 nh        1 ADB     -0.722300
     14 N2         -0.8960   -4.3240   -2.1440 nb        1 ADB     -0.845000
     15 C10        -0.2870   -3.9680   -0.9450 ca        1 ADB      0.948900
     16 N4          0.2400   -4.9820   -0.1690 nh        1 ADB     -0.944500
     17 N3         -0.1430   -2.6590   -0.4840 nb        1 ADB     -0.845000
     18 C11        -2.3000   -4.7910   -4.6170 ca        1 ADB      0.169600
     19 C12        -1.4060   -5.8830   -4.6210 ca        1 ADB     -0.148000
     20 C13        -1.8050   -7.1110   -5.1360 ca        1 ADB     -0.076000
     21 C14        -3.0900   -7.2780   -5.6670 ca        1 ADB     -0.035000
     22 C15        -3.9800   -6.1950   -5.6810 ca        1 ADB     -0.076000
     23 C16        -3.5950   -4.9660   -5.1610 ca        1 ADB     -0.148000
     24 C17        -3.4900   -8.5360   -6.1910 cg        1 ADB      0.235800
     25 N6         -3.8170   -9.5670   -6.6200 n1        1 ADB     -0.364800
     26 H3          3.0470    0.9800    1.4490 ha        1 ADB      0.154000
     27 H4          1.6490    1.2530    3.4910 ha        1 ADB      0.145000
     28 H5         -0.7750    0.6820    3.4480 ha        1 ADB      0.154000
     29 HN5        -2.4110   -2.7450   -4.5740 hn        1 ADB      0.457800
     30 HN41        0.0350   -5.9230   -0.4030 hn        1 ADB      0.449300
     31 HN42        0.5630   -4.7710    0.7430 hn        1 ADB      0.449300
     32 H12        -0.3850   -5.7760   -4.2210 ha        1 ADB      0.152500
     33 H13        -1.0990   -7.9570   -5.1300 ha        1 ADB      0.147000
     34 H15        -4.9910   -6.3190   -6.1000 ha        1 ADB      0.147000
     35 H16        -4.3110   -4.1300   -5.1790 ha        1 ADB      0.152500
@<TRIPOS>BOND
     1    1    2 1   
     2    1    3 ar  
     3    1    8 ar  
     4    2   10 1   
     5    3    4 1   
     6    3    5 ar  
     7    5    6 ar  
     8    5   26 1   
     9    6    7 ar  
    10    6   27 1   
    11    7    8 ar  
    12    7   28 1   
    13    8    9 1   
    14   10   11 ar  
    15   10   17 ar  
    16   11   12 ar  
    17   12   13 1   
    18   12   14 ar  
    19   13   18 1   
    20   13   29 1   
    21   14   15 ar  
    22   15   16 1   
    23   15   17 ar  
    24   16   30 1   
    25   16   31 1   
    26   18   19 ar  
    27   18   23 ar  
    28   19   20 ar  
    29   19   32 1   
    30   20   21 ar  
    31   20   33 1   
    32   21   22 ar  
    33   21   24 1   
    34   22   23 ar  
    35   22   34 1   
    36   23   35 1   
    37   24   25 3   
@<TRIPOS>SUBSTRUCTURE
     1 ADB         1 TEMP              0 ****  ****    0 ROOT
