@<TRIPOS>MOLECULE
ADB
   35    37     1     0     0
SMALL
bcc


@<TRIPOS>ATOM
      1 C1          0.0490   -0.0140    0.2000 ca        1 ADB      0.106100
      2 O7         -0.5560   -0.3260   -1.0200 os        1 ADB     -0.319400
      3 C2          1.4240    0.2770    0.2420 ca        1 ADB      0.032900
      4 Cl2         2.4110    0.0810   -1.1220 cl        1 ADB     -0.058900
      5 C3          1.9940    0.7420    1.4320 ca        1 ADB     -0.123500
      6 C4          1.2030    0.9030    2.5680 ca        1 ADB     -0.110000
      7 C5         -0.1570    0.6010    2.5350 ca        1 ADB     -0.123500
      8 C6         -0.7420    0.1340    1.3530 ca        1 ADB      0.032900
      9 Cl6        -2.3970   -0.2360    1.3440 cl        1 ADB     -0.058900
     10 C8         -0.6390   -1.6780   -1.3480 ca        1 ADB      0.919300
     11 N1         -1.2460   -1.8670   -2.5600 nb        1 ADB     -0.798000
     12 C9         -1.3440   -3.2140   -2.9210 ca        1 ADB      0.938900
     13 N5         -1.9060   -3.4540   -4.1830 nu        1 ADB     -0.722300
     14 N2         -0.9150   -4.2770   -2.1520 nb        1 ADB     -0.845000
     15 C10        -0.3100   -3.9280   -0.9480 ca        1 ADB      0.948900
     16 N4          0.1970   -4.9490   -0.1680 nv        1 ADB     -0.944500
     17 N3         -0.1530   -2.6220   -0.4860 nb        1 ADB     -0.845000
     18 C11        -2.3050   -4.7270   -4.6360 ca        1 ADB      0.169600
     19 C12        -1.4260   -5.8310   -4.6320 ca        1 ADB     -0.148000
     20 C13        -1.8370   -7.0540   -5.1490 ca        1 ADB     -0.076000
     21 C14        -3.1200   -7.2040   -5.6910 ca        1 ADB     -0.035000
     22 C15        -3.9950   -6.1090   -5.7130 ca        1 ADB     -0.076000
     23 C16        -3.5970   -4.8860   -5.1900 ca        1 ADB     -0.148000
     24 C17        -3.5320   -8.4570   -6.2170 cg        1 ADB      0.235800
     25 N6         -3.8690   -9.4840   -6.6480 n1        1 ADB     -0.364800
     26 H3          3.0680    0.9790    1.4690 ha        1 ADB      0.154000
     27 H4          1.6580    1.2690    3.5010 ha        1 ADB      0.145000
     28 H5         -0.7720    0.7280    3.4390 ha        1 ADB      0.154000
     29 HN5        -2.3880   -2.6800   -4.5950 hn        1 ADB      0.457800
     30 HN41       -0.0180   -5.8870   -0.4020 hn        1 ADB      0.449300
     31 HN42        0.5150   -4.7410    0.7470 hn        1 ADB      0.449300
     32 H12        -0.4070   -5.7380   -4.2240 ha        1 ADB      0.152500
     33 H13        -1.1430   -7.9100   -5.1360 ha        1 ADB      0.147000
     34 H15        -5.0030   -6.2200   -6.1400 ha        1 ADB      0.147000
     35 H16        -4.3020   -4.0390   -5.2150 ha        1 ADB      0.152500
@<TRIPOS>BOND
     1    1    2 1   
     2    1    3 ar  
     3    1    8 ar  
     4    2   10 1   
     5    3    4 1   
     6    3    5 ar  
     7    5    6 ar  
     8    5   26 1   
     9    6    7 ar  
    10    6   27 1   
    11    7    8 ar  
    12    7   28 1   
    13    8    9 1   
    14   10   11 ar  
    15   10   17 ar  
    16   11   12 ar  
    17   12   13 1   
    18   12   14 ar  
    19   13   18 1   
    20   13   29 1   
    21   14   15 ar  
    22   15   16 1   
    23   15   17 ar  
    24   16   30 1   
    25   16   31 1   
    26   18   19 ar  
    27   18   23 ar  
    28   19   20 ar  
    29   19   32 1   
    30   20   21 ar  
    31   20   33 1   
    32   21   22 ar  
    33   21   24 1   
    34   22   23 ar  
    35   22   34 1   
    36   23   35 1   
    37   24   25 3   
@<TRIPOS>SUBSTRUCTURE
     1 ADB         1 TEMP              0 ****  ****    0 ROOT
