@<TRIPOS>MOLECULE
ADB
   35    30     1     0     0
SMALL
bcc


@<TRIPOS>ATOM
      1 C1          1.7490    2.1850    1.7960 c1        1 ADB      0.061000
      2 O7          2.3750    1.8600    0.5830 o         1 ADB     -0.103000
      3 C2          0.4170    2.5710    1.8080 c2        1 ADB     -0.045000
      4 CL2        -0.4510    2.7510    0.3070 cl        1 ADB      0.021000
      5 C3         -0.2050    2.8740    3.0080 c1        1 ADB     -0.123000
      6 C4          0.5030    2.7920    4.1970 c1        1 ADB     -0.117000
      7 C5          1.8340    2.4060    4.1850 c1        1 ADB     -0.117000
      8 C6          2.4570    2.1030    2.9850 c1        1 ADB     -0.045000
      9 CL6         4.1510    1.6900    2.9630 cl        1 ADB      0.018000
     10 C8          2.0520    0.5400    0.2280 c2        1 ADB      0.221000
     11 N1          1.3670    0.2980   -0.9000 n2        1 ADB     -0.291000
     12 C9          1.1250   -0.9650   -1.2800 c1        1 ADB      0.226000
     13 N5          0.4660   -1.2210   -2.5100 n2        1 ADB     -0.238000
     14 N2          1.5670   -1.9870   -0.5310 n2        1 ADB     -0.330000
     15 C10         2.2520   -1.7450    0.5960 c1        1 ADB      0.226000
     16 N4          2.7340   -2.8260    1.3790 n2        1 ADB     -0.345000
     17 N3          2.4940   -0.4810    0.9760 n2        1 ADB     -0.291000
     18 C11        -0.9490   -1.1760   -2.5790 c2        1 ADB      0.082000
     19 C12        -1.6900   -2.3240   -2.3490 c2        1 ADB     -0.175000
     20 C13        -3.0700   -2.2950   -2.4750 c1        1 ADB     -0.075000
     21 C14        -3.7090   -1.1180   -2.8310 c1        1 ADB     -0.029000
     22 C15        -2.9680    0.0300   -3.0610 c1        1 ADB     -0.077000
     23 C16        -1.5880    0.0010   -2.9350 c1        1 ADB     -0.115000
     24 C17        -5.2190   -1.0670   -2.8930 c1        1 ADB     -0.093000
     25 N6         -6.3580   -1.0280   -2.9390 n1        1 ADB     -0.041000
     26 H3         -1.1440    3.1460    3.0170 ha        1 ADB      0.154000
     27 H4          0.0640    3.0050    5.0410 ha        1 ADB      0.149500
     28 H5          2.3330    2.3480    5.0230 ha        1 ADB      0.149500
     29 HN5         0.9520   -1.4310   -3.2530 hn        1 ADB      0.246000
     30 HN41        3.1930   -2.6610    2.1530 hn        1 ADB      0.245500
     31 HN42        2.5810   -3.6870    1.1120 hn        1 ADB      0.245500
     32 H12        -1.2410   -3.1540   -2.0980 ha        1 ADB      0.139000
     33 H13        -3.5920   -3.1030   -2.3130 ha        1 ADB      0.146000
     34 H15        -3.4170    0.8590   -3.3120 ha        1 ADB      0.150000
     35 H16        -1.0660    0.8100   -3.0980 ha        1 ADB      0.168000
@<TRIPOS>BOND
     1    1    3 1   
     2    1    8 1   
     3    2   10 1   
     4    3    4 1   
     5    3    5 1   
     6    5   26 1   
     7    6    7 1   
     8    6   27 1   
     9    7   28 1   
    10    8    9 1   
    11   10   11 1   
    12   10   17 1   
    13   11   12 1   
    14   12   14 1   
    15   13   18 1   
    16   13   29 1   
    17   14   15 1   
    18   15   17 1   
    19   16   30 1   
    20   16   31 1   
    21   18   19 1   
    22   18   23 1   
    23   19   20 1   
    24   19   32 1   
    25   20   33 1   
    26   21   22 1   
    27   21   24 1   
    28   22   34 1   
    29   23   35 1   
    30   24   25 1   
@<TRIPOS>SUBSTRUCTURE
     1 ADB         1 TEMP              0 ****  ****    0 ROOT
