@<TRIPOS>MOLECULE
ADC
   29    31     1     0     0
SMALL
bcc


@<TRIPOS>ATOM
      1 C5'         0.0030    0.2690    0.1110 c2        1 ADC     -0.195200
      2 C4'         1.3410    0.1910    0.0960 c2        1 ADC     -0.156200
      3 C3'         1.9160   -0.0880    1.4620 c3        1 ADC      0.123300
      4 O3'         2.6970   -1.2660    1.5050 oh        1 ADC     -0.592800
      5 C2'         0.6790   -0.3370    2.3730 c3        1 ADC      0.131100
      6 O2'         0.6630    0.5110    3.4980 oh        1 ADC     -0.587800
      7 C1'        -0.5640    0.0740    1.5030 c3        1 ADC      0.065200
      8 N9         -1.6460   -0.8820    1.5680 na        1 ADC     -0.229000
      9 C8         -1.5830   -2.2600    1.2740 cc        1 ADC      0.506700
     10 N7         -2.7470   -2.9190    1.4530 nd        1 ADC     -0.590100
     11 C5         -3.6430   -1.9420    1.8910 ca        1 ADC     -0.138200
     12 C6         -5.0000   -1.9470    2.2580 ca        1 ADC      0.517200
     13 N6         -5.7350   -3.2250    2.2040 n4        1 ADC     -0.815300
     14 N1         -5.6440   -0.8230    2.6560 nb        1 ADC     -0.679000
     15 C2         -4.9070    0.3270    2.6840 ca        1 ADC      0.671900
     16 N3         -3.5990    0.5060    2.3670 nb        1 ADC     -0.610000
     17 C4         -2.9640   -0.6260    1.9740 ca        1 ADC      0.460800
     18 H5'        -0.6590    0.4910   -0.7310 ha        1 ADC      0.163000
     19 H4'         1.9990    0.3210   -0.7670 ha        1 ADC      0.165000
     20 H3'         2.5090    0.7940    1.8320 h1        1 ADC      0.080700
     21 HO3         3.4770   -1.1130    0.9560 ho        1 ADC      0.424000
     22 H2'         0.6520   -1.4150    2.6900 h1        1 ADC      0.070700
     23 HO2         1.4430    0.2970    4.0280 ho        1 ADC      0.430000
     24 H1'        -0.9570    1.0640    1.8940 h1        1 ADC      0.137700
     25 H8         -0.6450   -2.7290    0.9270 h5        1 ADC      0.113800
     26 HN61       -5.2880   -3.8850    2.8530 hn        1 ADC      0.477800
     27 HN62       -5.6720   -3.5970    1.2480 hn        1 ADC      0.477800
     28 H2         -5.4600    1.2380    3.0150 h5        1 ADC      0.101100
     29 H63        -6.7220   -3.0990    2.4640 hn        1 ADC      0.477800
@<TRIPOS>BOND
     1    1    2 2   
     2    1    7 1   
     3    1   18 1   
     4    2    3 1   
     5    2   19 1   
     6    3    4 1   
     7    3    5 1   
     8    3   20 1   
     9    4   21 1   
    10    5    6 1   
    11    5    7 1   
    12    5   22 1   
    13    6   23 1   
    14    7    8 1   
    15    7   24 1   
    16    8    9 1   
    17    8   17 1   
    18    9   10 2   
    19    9   25 1   
    20   10   11 1   
    21   11   12 ar  
    22   11   17 ar  
    23   12   13 1   
    24   12   14 ar  
    25   13   26 1   
    26   13   27 1   
    27   13   29 1   
    28   14   15 ar  
    29   15   16 ar  
    30   15   28 1   
    31   16   17 ar  
@<TRIPOS>SUBSTRUCTURE
     1 ADC         1 TEMP              0 ****  ****    0 ROOT
