@<TRIPOS>MOLECULE
ADC
   28    30     1     0     0
SMALL
bcc


@<TRIPOS>ATOM
      1 C5'        -0.0120   -1.6560   -2.0520 c2        1 ADC     -0.160200
      2 C4'         0.2350   -1.4330   -3.3510 c2        1 ADC     -0.203200
      3 C3'        -0.0460   -0.0080   -3.7490 c3        1 ADC      0.125300
      4 O3'         1.0640    0.6530   -4.3290 oh        1 ADC     -0.596800
      5 C2'        -0.3760    0.7230   -2.4160 c3        1 ADC      0.128100
      6 O2'        -1.6280    1.3690   -2.4840 oh        1 ADC     -0.585800
      7 C1'        -0.5170   -0.4130   -1.3390 c3        1 ADC      0.080200
      8 N9          0.1540   -0.1270   -0.1050 na        1 ADC     -0.258000
      9 C8          1.5040    0.2760    0.0670 cc        1 ADC      0.404700
     10 N7          1.8520    0.4540    1.3490 nd        1 ADC     -0.543100
     11 C5          0.6980    0.1540    2.0870 ca        1 ADC     -0.235200
     12 C6          0.4150    0.1490    3.4940 ca        1 ADC      0.762200
     13 N6          1.3990    0.4580    4.3960 nh        1 ADC     -0.959500
     14 N1         -0.8500   -0.1940    3.9150 nb        1 ADC     -0.797000
     15 C2         -1.7610   -0.5240    2.9610 ca        1 ADC      0.687900
     16 N3         -1.6390   -0.5700    1.6140 nb        1 ADC     -0.734000
     17 C4         -0.3890   -0.2200    1.1870 ca        1 ADC      0.465800
     18 H5'         0.0880   -2.5980   -1.5080 ha        1 ADC      0.158000
     19 H4'         0.5830   -2.1570   -4.0900 ha        1 ADC      0.146000
     20 H3'        -0.9230    0.0430   -4.4540 h1        1 ADC      0.065700
     21 HO3         1.4040    0.0780   -5.0250 ho        1 ADC      0.410000
     22 H2'         0.4400    1.4540   -2.1690 h1        1 ADC      0.072700
     23 HO2        -1.5160    2.1330   -3.0640 ho        1 ADC      0.414000
     24 H1'        -1.6210   -0.5430   -1.1120 h1        1 ADC      0.129700
     25 H8          2.1650    0.4190   -0.7970 h5        1 ADC      0.077800
     26 HN61        1.1930    0.5250    5.3620 hn        1 ADC      0.447300
     27 HN62        2.2700    0.7810    4.0570 hn        1 ADC      0.447300
     28 H2         -2.7640   -0.7970    3.3550 h5        1 ADC      0.052100
@<TRIPOS>BOND
     1    1    2 2   
     2    1    7 1   
     3    1   18 1   
     4    2    3 1   
     5    2   19 1   
     6    3    4 1   
     7    3    5 1   
     8    3   20 1   
     9    4   21 1   
    10    5    6 1   
    11    5    7 1   
    12    5   22 1   
    13    6   23 1   
    14    7    8 1   
    15    7   24 1   
    16    8    9 1   
    17    8   17 1   
    18    9   10 2   
    19    9   25 1   
    20   10   11 1   
    21   11   12 ar  
    22   11   17 ar  
    23   12   13 1   
    24   12   14 ar  
    25   13   26 1   
    26   13   27 1   
    27   14   15 ar  
    28   15   16 ar  
    29   15   28 1   
    30   16   17 ar  
@<TRIPOS>SUBSTRUCTURE
     1 ADC         1 TEMP              0 ****  ****    0 ROOT
