@<TRIPOS>MOLECULE
ADC
   28    30     1     0     0
SMALL
bcc


@<TRIPOS>ATOM
      1 C5'        -0.0350    0.2330    0.1490 c2        1 ADC     -0.160200
      2 C4'         1.3020    0.1810    0.0870 c2        1 ADC     -0.203200
      3 C3'         1.9260   -0.0890    1.4310 c3        1 ADC      0.125300
      4 O3'         2.7600   -1.2340    1.4540 oh        1 ADC     -0.596800
      5 C2'         0.7260   -0.3720    2.3800 c3        1 ADC      0.128100
      6 O2'         0.7540    0.4790    3.5050 oh        1 ADC     -0.585800
      7 C1'        -0.5570    0.0150    1.5590 c3        1 ADC      0.080200
      8 N9         -1.6160   -0.9470    1.6540 na        1 ADC     -0.258000
      9 C8         -1.5320   -2.3450    1.4280 cc        1 ADC      0.404700
     10 N7         -2.7000   -2.9850    1.5770 nd        1 ADC     -0.543100
     11 C5         -3.6250   -1.9850    1.9110 ca        1 ADC     -0.235200
     12 C6         -5.0320   -2.0140    2.1940 ca        1 ADC      0.762200
     13 N6         -5.7230   -3.1960    2.1320 nv        1 ADC     -0.959500
     14 N1         -5.6700   -0.8360    2.5030 nb        1 ADC     -0.797000
     15 C2         -4.9230    0.3000    2.5080 ca        1 ADC      0.687900
     16 N3         -3.6060    0.4820    2.2590 nb        1 ADC     -0.734000
     17 C4         -2.9610   -0.6860    1.9620 ca        1 ADC      0.465800
     18 H5'        -0.7320    0.4310   -0.6690 ha        1 ADC      0.158000
     19 H4'         1.9290    0.3250   -0.7950 ha        1 ADC      0.146000
     20 H3'         2.5080    0.8060    1.7870 h1        1 ADC      0.065700
     21 HO3         3.3720   -1.1540    0.7130 ho        1 ADC      0.410000
     22 H2'         0.7310   -1.4500    2.6920 h1        1 ADC      0.072700
     23 HO2         1.4780    0.1750    4.0660 ho        1 ADC      0.414000
     24 H1'        -0.9460    1.0010    1.9640 h1        1 ADC      0.129700
     25 H8         -0.5780   -2.8170    1.1610 h5        1 ADC      0.077800
     26 HN61       -5.2180   -4.0350    1.9900 hn        1 ADC      0.447300
     27 HN62       -6.6760   -3.2350    2.3930 hn        1 ADC      0.447300
     28 H2         -5.4900    1.2240    2.7590 h5        1 ADC      0.052100
@<TRIPOS>BOND
     1    1    2 2   
     2    1    7 1   
     3    1   18 1   
     4    2    3 1   
     5    2   19 1   
     6    3    4 1   
     7    3    5 1   
     8    3   20 1   
     9    4   21 1   
    10    5    6 1   
    11    5    7 1   
    12    5   22 1   
    13    6   23 1   
    14    7    8 1   
    15    7   24 1   
    16    8    9 1   
    17    8   17 1   
    18    9   10 2   
    19    9   25 1   
    20   10   11 1   
    21   11   12 ar  
    22   11   17 ar  
    23   12   13 1   
    24   12   14 ar  
    25   13   26 1   
    26   13   27 1   
    27   14   15 ar  
    28   15   16 ar  
    29   15   28 1   
    30   16   17 ar  
@<TRIPOS>SUBSTRUCTURE
     1 ADC         1 TEMP              0 ****  ****    0 ROOT
