@<TRIPOS>MOLECULE
ADC
   28    30     1     0     0
SMALL
bcc


@<TRIPOS>ATOM
      1 C5'        -0.0340    0.2210    0.1440 c2        1 ADC     -0.160200
      2 C4'         1.3040    0.1710    0.0860 c2        1 ADC     -0.203200
      3 C3'         1.9250   -0.0840    1.4340 c3        1 ADC      0.125300
      4 O3'         2.7610   -1.2260    1.4710 oh        1 ADC     -0.596800
      5 C2'         0.7220   -0.3600    2.3820 c3        1 ADC      0.128100
      6 O2'         0.7450    0.5020    3.4990 oh        1 ADC     -0.585800
      7 C1'        -0.5600    0.0150    1.5540 c3        1 ADC      0.080200
      8 N9         -1.6160   -0.9490    1.6560 na        1 ADC     -0.258000
      9 C8         -1.5270   -2.3490    1.4450 cc        1 ADC      0.404700
     10 N7         -2.6940   -2.9900    1.5950 nd        1 ADC     -0.543100
     11 C5         -3.6230   -1.9890    1.9160 ca        1 ADC     -0.235200
     12 C6         -5.0310   -2.0190    2.1940 ca        1 ADC      0.762200
     13 N6         -5.7190   -3.2030    2.1410 nh        1 ADC     -0.959500
     14 N1         -5.6740   -0.8390    2.4880 nb        1 ADC     -0.797000
     15 C2         -4.9300    0.2990    2.4840 ca        1 ADC      0.687900
     16 N3         -3.6120    0.4820    2.2380 nb        1 ADC     -0.734000
     17 C4         -2.9630   -0.6890    1.9560 ca        1 ADC      0.465800
     18 H5'        -0.7290    0.4090   -0.6780 ha        1 ADC      0.158000
     19 H4'         1.9320    0.3080   -0.7960 ha        1 ADC      0.146000
     20 H3'         2.5030    0.8160    1.7830 h1        1 ADC      0.065700
     21 HO3         3.3750   -1.1520    0.7300 ho        1 ADC      0.410000
     22 H2'         0.7290   -1.4350    2.7060 h1        1 ADC      0.072700
     23 HO2         1.4690    0.2060    4.0650 ho        1 ADC      0.414000
     24 H1'        -0.9520    1.0040    1.9480 h1        1 ADC      0.129700
     25 H8         -0.5720   -2.8210    1.1860 h5        1 ADC      0.077800
     26 HN61       -5.2120   -4.0420    2.0100 hn        1 ADC      0.447300
     27 HN62       -6.6730   -3.2420    2.3990 hn        1 ADC      0.447300
     28 H2         -5.4990    1.2240    2.7240 h5        1 ADC      0.052100
@<TRIPOS>BOND
     1    1    2 2   
     2    1    7 1   
     3    1   18 1   
     4    2    3 1   
     5    2   19 1   
     6    3    4 1   
     7    3    5 1   
     8    3   20 1   
     9    4   21 1   
    10    5    6 1   
    11    5    7 1   
    12    5   22 1   
    13    6   23 1   
    14    7    8 1   
    15    7   24 1   
    16    8    9 1   
    17    8   17 1   
    18    9   10 2   
    19    9   25 1   
    20   10   11 1   
    21   11   12 ar  
    22   11   17 ar  
    23   12   13 1   
    24   12   14 ar  
    25   13   26 1   
    26   13   27 1   
    27   14   15 ar  
    28   15   16 ar  
    29   15   28 1   
    30   16   17 ar  
@<TRIPOS>SUBSTRUCTURE
     1 ADC         1 TEMP              0 ****  ****    0 ROOT
