@<TRIPOS>MOLECULE
ADC
   28    24     1     0     0
SMALL
bcc


@<TRIPOS>ATOM
      1 C5'         0.7590    1.6180   -0.7670 c1        1 ADC     -0.177500
      2 C4'         2.2200    1.6070   -0.7020 c1        1 ADC     -0.177500
      3 C3'         2.7140    1.7340    0.5350 c2        1 ADC      0.010000
      4 O3'         3.8160    0.8420    0.7120 oh        1 ADC     -0.324000
      5 C2'         1.3880    1.3690    1.4250 c3        1 ADC      0.017000
      6 O2'         1.1440    2.2840    2.2420 oh        1 ADC     -0.313000
      7 C1'         0.1700    1.2330    0.3430 c2        1 ADC      0.056000
      8 N9         -0.0270   -0.0840    0.2000 n3        1 ADC     -0.175000
      9 C8          0.7580   -1.1960    0.1760 c1        1 ADC     -0.051000
     10 N7         -0.0070   -2.2380   -0.2080 n2        1 ADC     -0.116000
     11 C5         -1.2750   -1.7770   -0.4240 c1        1 ADC     -0.244000
     12 C6         -2.4410   -2.4170   -0.8230 c1        1 ADC      0.241000
     13 N6         -2.8430   -3.6990   -1.2780 n3        1 ADC     -0.357000
     14 N1         -3.5820   -1.7150   -0.9580 n1        1 ADC     -0.271000
     15 C2         -3.5950   -0.3650   -0.7030 c1        1 ADC      0.025000
     16 N3         -2.4530    0.2650   -0.3120 n1        1 ADC     -0.208000
     17 C4         -1.2860   -0.4500   -0.1730 c1        1 ADC      0.074000
     18 H5'         0.3020    2.2270   -1.3770 ha        1 ADC      0.152000
     19 H4'         2.7660    1.9150   -1.5030 ha        1 ADC      0.152000
     20 H3'         3.1160    2.6110    0.8050 h4        1 ADC      0.105000
     21 HO3         4.5600    1.2570    0.5240 ho        1 ADC      0.209000
     22 H2'         1.5220    0.5130    1.9000 h1        1 ADC      0.112000
     23 HO2         1.6700    2.2050    2.9330 ho        1 ADC      0.213000
     24 H1'        -0.7540    1.6010    0.5760 h4        1 ADC      0.169000
     25 H8          1.7120   -1.2440    0.4560 DU        1 ADC      0.207000
     26 HN61       -2.3740   -4.1150   -1.9320 hn        1 ADC      0.242500
     27 HN62       -3.5390   -4.1380   -0.8620 hn        1 ADC      0.242500
     28 H2         -4.4420    0.1540   -0.8040 ha        1 ADC      0.189000
@<TRIPOS>BOND
     1    1    2 1   
     2    1   18 1   
     3    2   19 1   
     4    3    4 1   
     5    3    5 1   
     6    3   20 1   
     7    4   21 1   
     8    5    6 1   
     9    5    7 1   
    10    5   22 1   
    11    6   23 1   
    12    7    8 1   
    13    7   24 1   
    14    8    9 1   
    15    8   17 1   
    16    9   10 1   
    17   10   11 1   
    18   11   17 1   
    19   12   13 1   
    20   12   14 1   
    21   13   26 1   
    22   13   27 1   
    23   15   16 1   
    24   15   28 1   
@<TRIPOS>SUBSTRUCTURE
     1 ADC         1 TEMP              0 ****  ****    0 ROOT
