@<TRIPOS>MOLECULE
ADD
   56    56     1     0     0
SMALL
bcc


@<TRIPOS>ATOM
      1 C1          0.1010   -0.0980    7.0580 c         1 ADD      0.905600
      2 O1          0.4380    0.8600    7.8070 o         1 ADD     -0.845800
      3 O2          0.3870   -1.3090    7.2920 o         1 ADD     -0.845800
      4 C2         -0.6990    0.2000    5.7630 c3        1 ADD     -0.223700
      5 CM2        -1.3740    1.5440    5.8630 c3        1 ADD     -0.061100
      6 C3          0.2210    0.1250    4.5250 c3        1 ADD      0.179500
      7 N3          1.3050   -0.8450    4.6270 n3        1 ADD     -0.903800
      8 C4         -0.6450   -0.1360    3.2790 c3        1 ADD     -0.072400
      9 C5          0.1250    0.0870    1.9960 c3        1 ADD     -0.072400
     10 C6         -0.7410   -0.1120    0.7570 c3        1 ADD     -0.068700
     11 CM6        -1.7090    1.0420    0.5850 c3        1 ADD     -0.087100
     12 C7          0.1450   -0.2620   -0.4750 c3        1 ADD     -0.075400
     13 C8         -0.5660   -0.9230   -1.6470 c3        1 ADD     -0.081700
     14 CM8        -0.6140   -2.4270   -1.4810 c3        1 ADD     -0.085100
     15 C9          0.1010   -0.5380   -2.9780 c3        1 ADD      0.146100
     16 O9          1.3620   -1.2020   -3.1180 os        1 ADD     -0.423600
     17 CM9         2.4810   -0.3810   -2.8390 c3        1 ADD      0.115700
     18 C'         -0.7570   -0.9840   -4.1690 c3        1 ADD     -0.049100
     19 C1'        -0.5730   -0.1100   -5.3590 ca        1 ADD     -0.070300
     20 C2'         0.1310   -0.5690   -6.4790 ca        1 ADD     -0.126500
     21 C3'         0.2850    0.2500   -7.5970 ca        1 ADD     -0.132000
     22 C4'        -0.2600    1.5330   -7.6070 ca        1 ADD     -0.138000
     23 C5'        -0.9610    1.9970   -6.4940 ca        1 ADD     -0.132000
     24 C6'        -1.1170    1.1810   -5.3750 ca        1 ADD     -0.126500
     25 H2         -1.4780   -0.6050    5.6730 hc        1 ADD      0.034700
     26 HM21       -0.6120    2.3400    6.0490 hc        1 ADD      0.017367
     27 HM22       -1.9440    1.7950    4.9360 hc        1 ADD      0.017367
     28 HM23       -2.0820    1.5440    6.7270 hc        1 ADD      0.017367
     29 H3          0.7080    1.1390    4.3970 h1        1 ADD      0.038700
     30 HN31        1.8990   -0.5710    5.3920 hn        1 ADD      0.354300
     31 HN32        0.9170   -1.7370    4.8800 hn        1 ADD      0.354300
     32 H41        -1.5260    0.5560    3.3170 hc        1 ADD      0.031700
     33 H42        -1.0430   -1.1840    3.3050 hc        1 ADD      0.031700
     34 H51         0.9900   -0.6280    1.9620 hc        1 ADD      0.045200
     35 H52         0.5520    1.1240    1.9880 hc        1 ADD      0.045200
     36 H6         -1.3350   -1.0590    0.8900 hc        1 ADD      0.046700
     37 HM61       -1.1550    2.0070    0.4900 hc        1 ADD      0.028033
     38 HM62       -2.3350    0.9030   -0.3290 hc        1 ADD      0.028033
     39 HM63       -2.3880    1.1120    1.4680 hc        1 ADD      0.028033
     40 H71         1.0490   -0.8750   -0.2130 hc        1 ADD      0.041200
     41 H72         0.5090    0.7550   -0.7790 hc        1 ADD      0.041200
     42 H8         -1.6230   -0.5310   -1.6880 hc        1 ADD      0.046700
     43 HM81        0.4160   -2.8550   -1.5430 hc        1 ADD      0.037033
     44 HM82       -1.0540   -2.6970   -0.4910 hc        1 ADD      0.037033
     45 HM83       -1.2360   -2.8850   -2.2870 hc        1 ADD      0.037033
     46 H9          0.2380    0.5790   -3.0100 h1        1 ADD      0.045700
     47 HM91        3.3620   -1.0550   -2.9840 h1        1 ADD      0.033033
     48 HM92        2.5280    0.4800   -3.5520 h1        1 ADD      0.033033
     49 HM93        2.4480   -0.0030   -1.7870 h1        1 ADD      0.033033
     50 H'1        -0.4900   -2.0460   -4.4210 hc        1 ADD      0.061200
     51 H'2        -1.8370   -0.9660   -3.8650 hc        1 ADD      0.061200
     52 H2'         0.5690   -1.5780   -6.4710 ha        1 ADD      0.134500
     53 H3'         0.8410   -0.1180   -8.4720 ha        1 ADD      0.126500
     54 H4'        -0.1380    2.1780   -8.4890 ha        1 ADD      0.125000
     55 H5'        -1.3910    3.0090   -6.4970 ha        1 ADD      0.126500
     56 H6'        -1.6690    1.5490   -4.4970 ha        1 ADD      0.134500
@<TRIPOS>BOND
     1    1    2 1   
     2    1    3 1   
     3    1    4 1   
     4    4    5 1   
     5    4    6 1   
     6    4   25 1   
     7    5   26 1   
     8    5   27 1   
     9    5   28 1   
    10    6    7 1   
    11    6    8 1   
    12    6   29 1   
    13    7   30 1   
    14    7   31 1   
    15    8    9 1   
    16    8   32 1   
    17    8   33 1   
    18    9   10 1   
    19    9   34 1   
    20    9   35 1   
    21   10   11 1   
    22   10   12 1   
    23   10   36 1   
    24   11   37 1   
    25   11   38 1   
    26   11   39 1   
    27   12   13 1   
    28   12   40 1   
    29   12   41 1   
    30   13   14 1   
    31   13   15 1   
    32   13   42 1   
    33   14   43 1   
    34   14   44 1   
    35   14   45 1   
    36   15   16 1   
    37   15   18 1   
    38   15   46 1   
    39   16   17 1   
    40   17   47 1   
    41   17   48 1   
    42   17   49 1   
    43   18   19 1   
    44   18   50 1   
    45   18   51 1   
    46   19   20 ar  
    47   19   24 ar  
    48   20   21 ar  
    49   20   52 1   
    50   21   22 ar  
    51   21   53 1   
    52   22   23 ar  
    53   22   54 1   
    54   23   24 ar  
    55   23   55 1   
    56   24   56 1   
@<TRIPOS>SUBSTRUCTURE
     1 ADD         1 TEMP              0 ****  ****    0 ROOT
