@<TRIPOS>MOLECULE
ADD
   56    53     1     0     0
SMALL
bcc


@<TRIPOS>ATOM
      1 C1         -5.1190    4.6910   -0.7590 c1        1 ADD      0.327000
      2 O1         -6.2590    4.1640   -0.6750 o         1 ADD     -0.588000
      3 O2         -4.8860    5.5490   -1.6500 os        1 ADD     -0.571000
      4 C2         -4.0390    4.3200    0.2360 c3        1 ADD     -0.213000
      5 CM2        -4.5080    4.6500    1.6350 c3        1 ADD     -0.181000
      6 C3         -3.7500    2.8400    0.1370 c3        1 ADD     -0.015000
      7 N3         -3.9490    2.4060   -1.2030 n3        1 ADD     -0.345000
      8 C4         -2.3170    2.5770    0.5440 c3        1 ADD     -0.152000
      9 C5         -1.9940    1.1130    0.3370 c3        1 ADD     -0.151000
     10 C6         -0.5470    0.8600    0.6980 c3        1 ADD     -0.108000
     11 CM6        -0.4460    0.5210    2.1680 c3        1 ADD     -0.205000
     12 C7         -0.0160   -0.2940   -0.1250 c3        1 ADD     -0.154000
     13 C8          1.4920   -0.1980   -0.2150 c3        1 ADD     -0.121000
     14 CM8         1.8700    0.8710   -1.2160 c3        1 ADD     -0.203000
     15 C9          2.0570   -1.5280   -0.6620 c3        1 ADD      0.035000
     16 O9          2.1290   -1.5590   -2.0670 os        1 ADD     -0.280000
     17 CM9         1.5320   -2.6990   -2.6440 c3        1 ADD     -0.074000
     18 C'          3.4420   -1.7080   -0.0820 c3        1 ADD     -0.135000
     19 C1'         3.6990   -3.1790    0.1620 c2        1 ADD     -0.063000
     20 C2'         4.4290   -3.9140   -0.7590 c2        1 ADD     -0.121000
     21 C3'         4.7660   -5.2310   -0.4850 c1        1 ADD     -0.133000
     22 C4'         4.3720   -5.8120    0.7100 c1        1 ADD     -0.134500
     23 C5'         3.6420   -5.0770    1.6310 c1        1 ADD     -0.134500
     24 C6'         3.3060   -3.7610    1.3570 c1        1 ADD     -0.132000
     25 H2         -3.2270    4.8240    0.0370 hc        1 ADD      0.077000
     26 HM21       -3.7890    5.1050    2.1220 hc        1 ADD      0.056000
     27 HM22       -4.7470    3.8220    2.1030 hc        1 ADD      0.056000
     28 HM23       -5.2920    5.2350    1.5880 hc        1 ADD      0.056000
     29 H3         -4.3520    2.3500    0.7300 h1        1 ADD      0.084000
     30 HN31       -4.7940    2.0660   -1.2920 hn        1 ADD      0.150000
     31 HN32       -3.8440    3.1170   -1.7730 hn        1 ADD      0.150000
     32 H41        -1.7180    3.1240   -0.0020 hc        1 ADD      0.069500
     33 H42        -2.2000    2.8070    1.4880 hc        1 ADD      0.069500
     34 H51        -2.5720    0.5680    0.9070 hc        1 ADD      0.084500
     35 H52        -2.1430    0.8760   -0.6000 hc        1 ADD      0.084500
     36 H6         -0.0210    1.6620    0.5120 hc        1 ADD      0.086000
     37 HM61        0.4250    0.1110    2.3490 hc        1 ADD      0.067000
     38 HM62       -1.1590   -0.1080    2.4070 hc        1 ADD      0.067000
     39 HM63       -0.5400    1.3390    2.7000 hc        1 ADD      0.067000
     40 H71        -0.2640   -1.1390    0.3010 hc        1 ADD      0.080500
     41 H72        -0.3990   -0.2570   -1.0240 hc        1 ADD      0.080500
     42 H8          1.8560    0.0330    0.6600 hc        1 ADD      0.086000
     43 HM81        2.5160    0.5060   -1.8560 hc        1 ADD      0.076333
     44 HM82        2.2710    1.6320   -0.7450 hc        1 ADD      0.076333
     45 HM83        1.0680    1.1690   -1.6940 hc        1 ADD      0.076333
     46 H9          1.4760   -2.2500   -0.3490 h1        1 ADD      0.085000
     47 HM91        2.0900   -3.0210   -3.3850 h1        1 ADD      0.072333
     48 HM92        1.4490   -3.4030   -1.9670 h1        1 ADD      0.072333
     49 HM93        0.6410   -2.4650   -2.9840 h1        1 ADD      0.072333
     50 H'1         4.1060   -1.3600   -0.7110 hc        1 ADD      0.100500
     51 H'2         3.5070   -1.2210    0.7630 hc        1 ADD      0.100500
     52 H2'         4.7010   -3.5070   -1.6040 ha        1 ADD      0.136000
     53 H3'         5.2800   -5.7490   -1.1330 ha        1 ADD      0.126000
     54 H4'         4.6090   -6.7390    0.9030 ha        1 ADD      0.126000
     55 H5'         3.3650   -5.4860    2.4720 ha        1 ADD      0.126000
     56 H6'         2.7920   -3.2430    2.0060 ha        1 ADD      0.133000
@<TRIPOS>BOND
     1    1    2 1   
     2    1    4 1   
     3    4    5 1   
     4    4    6 1   
     5    4   25 1   
     6    5   26 1   
     7    5   27 1   
     8    5   28 1   
     9    6    7 1   
    10    6    8 1   
    11    6   29 1   
    12    7   30 1   
    13    7   31 1   
    14    8    9 1   
    15    8   32 1   
    16    8   33 1   
    17    9   10 1   
    18    9   34 1   
    19    9   35 1   
    20   10   11 1   
    21   10   12 1   
    22   10   36 1   
    23   11   37 1   
    24   11   38 1   
    25   11   39 1   
    26   12   13 1   
    27   12   40 1   
    28   12   41 1   
    29   13   14 1   
    30   13   15 1   
    31   13   42 1   
    32   14   43 1   
    33   14   44 1   
    34   14   45 1   
    35   15   16 1   
    36   15   18 1   
    37   15   46 1   
    38   16   17 1   
    39   17   47 1   
    40   17   48 1   
    41   17   49 1   
    42   18   19 1   
    43   18   50 1   
    44   18   51 1   
    45   19   20 1   
    46   19   24 1   
    47   20   21 1   
    48   20   52 1   
    49   21   53 1   
    50   22   23 1   
    51   22   54 1   
    52   23   55 1   
    53   24   56 1   
@<TRIPOS>SUBSTRUCTURE
     1 ADD         1 TEMP              0 ****  ****    0 ROOT
