@<TRIPOS>MOLECULE
ADE
   15    16     1     0     0
SMALL
bcc


@<TRIPOS>ATOM
      1 N9         -0.0250   -0.0640   -0.0280 na        1 ADE     -0.379000
      2 C8          1.3870   -0.1010   -0.0010 cc        1 ADE      0.398700
      3 N7          1.9010   -0.0730    1.2380 nd        1 ADE     -0.541100
      4 C5          0.7900   -0.0140    2.0910 ca        1 ADE     -0.237200
      5 C6          0.6550    0.0380    3.5210 ca        1 ADE      0.767200
      6 N6          1.7670    0.0360    4.3180 nh        1 ADE     -0.962500
      7 N1         -0.6070    0.0900    4.0640 nb        1 ADE     -0.798000
      8 C2         -1.6630    0.0900    3.2070 ca        1 ADE      0.688900
      9 N3         -1.6920    0.0450    1.8550 nb        1 ADE     -0.737000
     10 C4         -0.4400   -0.0070    1.3060 ca        1 ADE      0.456800
     11 HN9        -0.6110   -0.0740   -0.8200 hn        1 ADE      0.318700
     12 H8          1.9700   -0.1490   -0.9280 h5        1 ADE      0.072800
     13 HN61        2.6600   -0.0050    3.8960 hn        1 ADE      0.450300
     14 HN62        1.6850    0.0690    5.3030 hn        1 ADE      0.450300
     15 H2         -2.6580    0.1340    3.7010 h5        1 ADE      0.052100
@<TRIPOS>BOND
     1    1    2 1   
     2    1   10 1   
     3    1   11 1   
     4    2    3 2   
     5    2   12 1   
     6    3    4 1   
     7    4    5 ar  
     8    4   10 ar  
     9    5    6 1   
    10    5    7 ar  
    11    6   13 1   
    12    6   14 1   
    13    7    8 ar  
    14    8    9 ar  
    15    8   15 1   
    16    9   10 ar  
@<TRIPOS>SUBSTRUCTURE
     1 ADE         1 TEMP              0 ****  ****    0 ROOT
