@<TRIPOS>MOLECULE
ADE
   16    17     1     0     0
SMALL
bcc


@<TRIPOS>ATOM
      1 N9         -0.0170    0.0000   -0.0300 na        1 ADE     -0.356000
      2 C8          1.3900    0.0000    0.0190 cc        1 ADE      0.508700
      3 N7          1.8960    0.0000    1.2700 nd        1 ADE     -0.580100
      4 C5          0.7770    0.0000    2.1070 ca        1 ADE     -0.140200
      5 C6          0.5880    0.0000    3.5010 ca        1 ADE      0.524200
      6 N6          1.7790    0.0000    4.3710 n4        1 ADE     -0.816300
      7 N1         -0.6470    0.0000    4.0580 nb        1 ADE     -0.675000
      8 C2         -1.7100    0.0000    3.2000 ca        1 ADE      0.676900
      9 N3         -1.7050    0.0000    1.8420 nb        1 ADE     -0.610000
     10 C4         -0.4630    0.0000    1.2960 ca        1 ADE      0.455800
     11 HN9        -0.5930    0.0010   -0.8380 hn        1 ADE      0.354700
     12 H8          1.9980    0.0000   -0.9030 h5        1 ADE      0.113800
     13 HN61        2.3380   -0.8360    4.1590 hn        1 ADE      0.479467
     14 HN62        2.3350    0.8390    4.1630 hn        1 ADE      0.479467
     15 H2         -2.7140    0.0000    3.6870 h5        1 ADE      0.105100
     16 H63         1.5150   -0.0030    5.3660 hn        1 ADE      0.479467
@<TRIPOS>BOND
     1    1    2 1   
     2    1   10 1   
     3    1   11 1   
     4    2    3 2   
     5    2   12 1   
     6    3    4 1   
     7    4    5 ar  
     8    4   10 ar  
     9    5    6 1   
    10    5    7 ar  
    11    6   13 1   
    12    6   14 1   
    13    6   16 1   
    14    7    8 ar  
    15    8    9 ar  
    16    8   15 1   
    17    9   10 ar  
@<TRIPOS>SUBSTRUCTURE
     1 ADE         1 TEMP              0 ****  ****    0 ROOT
