@<TRIPOS>MOLECULE
ADF
   62    64     1     0     0
SMALL
bcc


@<TRIPOS>ATOM
      1 C1          0.7860    0.3290   -0.4910 c         1 ADF      0.638100
      2 C2          2.1030   -0.4630   -0.4510 c3        1 ADF      0.104500
      3 C4          2.6930   -0.4860    0.9760 c3        1 ADF     -0.092400
      4 C5          4.1630   -0.1240    0.8290 c3        1 ADF     -0.098400
      5 C6          4.3680    0.2650   -0.6520 c3        1 ADF      0.137500
      6 C9          5.0090    1.6610   -0.7920 c3        1 ADF      0.109400
      7 O3          0.6530    1.3360   -1.2180 o         1 ADF     -0.616100
      8 N7          3.1240    0.0200   -1.3840 n3        1 ADF     -0.783200
      9 N8         -0.2460   -0.0630    0.3430 n         1 ADF     -0.465800
     10 C10         3.5380    3.5580   -0.8650 ca        1 ADF      0.152100
     11 O11         4.2260    2.5790   -1.5580 os        1 ADF     -0.327900
     12 C12        -1.5520    0.5960    0.2900 c3        1 ADF      0.053700
     13 C13        -2.5900   -0.4120    0.8250 c3        1 ADF     -0.086400
     14 C14        -1.8200   -1.6590    1.2440 c3        1 ADF     -0.090400
     15 C15        -0.3390   -1.3830    0.9360 c3        1 ADF      0.089000
     16 C16         3.3460    4.8010   -1.5200 ca        1 ADF     -0.079300
     17 C17         2.5880    5.7640   -0.8490 ca        1 ADF     -0.053000
     18 C18         2.0290    5.5160    0.4110 ca        1 ADF     -0.196600
     19 C19         2.2400    4.2890    1.0420 ca        1 ADF     -0.075000
     20 C20         2.9980    3.3130    0.4050 ca        1 ADF     -0.204000
     21 C21        -1.6070    1.9050    1.1210 c3        1 ADF      0.153800
     22 N22        -0.7070    2.9550    0.7280 n3        1 ADF     -0.910800
     23 C23         1.2330    6.5750    1.0580 c         1 ADF      0.645700
     24 C24         3.9200    5.0760   -2.8870 c3        1 ADF      0.002300
     25 C25         3.5980    6.4870   -3.3740 c3        1 ADF     -0.089433
     26 C26         3.3360    4.0920   -3.8970 c3        1 ADF     -0.089433
     27 C27         5.4400    4.9370   -2.8510 c3        1 ADF     -0.089433
     28 O28         0.1330    6.2400    1.7950 oh        1 ADF     -0.585100
     29 O29         1.4470    7.7880    1.0170 o         1 ADF     -0.499000
     30 H2          1.8650   -1.5180   -0.7830 h1        1 ADF      0.081700
     31 H41         2.5680   -1.5020    1.4240 hc        1 ADF      0.055200
     32 H42         2.1720    0.2470    1.6410 hc        1 ADF      0.055200
     33 H51         4.4420    0.7070    1.5220 hc        1 ADF      0.052700
     34 H52         4.8130   -0.9990    1.0800 hc        1 ADF      0.052700
     35 H6          5.1120   -0.4600   -1.1030 h1        1 ADF      0.070700
     36 H91         5.2750    2.0900    0.2070 h1        1 ADF      0.061200
     37 H92         5.9480    1.5670   -1.4100 h1        1 ADF      0.061200
     38 HN7         2.8140    0.8430   -1.8770 hn        1 ADF      0.400800
     39 H12        -1.7800    0.8560   -0.7860 h1        1 ADF      0.068700
     40 H131       -3.3320   -0.6530    0.0250 hc        1 ADF      0.056700
     41 H132       -3.1500    0.0190    1.6910 hc        1 ADF      0.056700
     42 H141       -2.1720   -2.5560    0.6800 hc        1 ADF      0.055200
     43 H142       -1.9540   -1.8660    2.3340 hc        1 ADF      0.055200
     44 H151        0.2740   -1.4050    1.8800 h1        1 ADF      0.044200
     45 H152        0.0710   -2.1660    0.2400 h1        1 ADF      0.044200
     46 H17         2.4130    6.7600   -1.2930 ha        1 ADF      0.161000
     47 H19         1.8140    4.0920    2.0380 ha        1 ADF      0.141000
     48 H20         3.1510    2.3350    0.8870 ha        1 ADF      0.141000
     49 H211       -2.6600    2.2960    1.0340 h1        1 ADF      0.054700
     50 H212       -1.4140    1.6620    2.2030 h1        1 ADF      0.054700
     51 H221        0.2490    2.6600    0.8180 hn        1 ADF      0.356300
     52 H222       -0.8560    3.2030   -0.2340 hn        1 ADF      0.356300
     53 H251        4.0200    7.2530   -2.6800 hc        1 ADF      0.040144
     54 H252        4.0510    6.6430   -4.3830 hc        1 ADF      0.040144
     55 H253        2.4950    6.6350   -3.4610 hc        1 ADF      0.040144
     56 H261        2.2240    4.1830   -3.9260 hc        1 ADF      0.040144
     57 H262        3.6030    3.0420   -3.6300 hc        1 ADF      0.040144
     58 H263        3.7410    4.3130   -4.9150 hc        1 ADF      0.040144
     59 H271        5.8750    5.6470   -2.1090 hc        1 ADF      0.040144
     60 H272        5.7340    3.8970   -2.5720 hc        1 ADF      0.040144
     61 H273        5.8630    5.1660   -3.8580 hc        1 ADF      0.040144
     62 H223       -0.0600    5.2950    1.7040 ho        1 ADF      0.445000
@<TRIPOS>BOND
     1    1    2 1   
     2    1    7 2   
     3    1    9 1   
     4    2    3 1   
     5    2    8 1   
     6    2   30 1   
     7    3    4 1   
     8    3   31 1   
     9    3   32 1   
    10    4    5 1   
    11    4   33 1   
    12    4   34 1   
    13    5    6 1   
    14    5    8 1   
    15    5   35 1   
    16    6   11 1   
    17    6   36 1   
    18    6   37 1   
    19    8   38 1   
    20    9   12 1   
    21    9   15 1   
    22   10   11 1   
    23   10   16 ar  
    24   10   20 ar  
    25   12   13 1   
    26   12   21 1   
    27   12   39 1   
    28   13   14 1   
    29   13   40 1   
    30   13   41 1   
    31   14   15 1   
    32   14   42 1   
    33   14   43 1   
    34   15   44 1   
    35   15   45 1   
    36   16   17 ar  
    37   16   24 1   
    38   17   18 ar  
    39   17   46 1   
    40   18   19 ar  
    41   18   23 1   
    42   19   20 ar  
    43   19   47 1   
    44   20   48 1   
    45   21   22 1   
    46   21   49 1   
    47   21   50 1   
    48   22   51 1   
    49   22   52 1   
    50   23   28 1   
    51   23   29 2   
    52   24   25 1   
    53   24   26 1   
    54   24   27 1   
    55   25   53 1   
    56   25   54 1   
    57   25   55 1   
    58   26   56 1   
    59   26   57 1   
    60   26   58 1   
    61   27   59 1   
    62   27   60 1   
    63   27   61 1   
    64   28   62 1   
@<TRIPOS>SUBSTRUCTURE
     1 ADF         1 TEMP              0 ****  ****    0 ROOT
