@<TRIPOS>MOLECULE
ADF
   62    64     1     0     0
SMALL
bcc


@<TRIPOS>ATOM
      1 C1          0.4570    0.5190   -0.4470 c         1 ADF      0.656100
      2 C2          1.8330    0.0150   -0.9130 c3        1 ADF      0.127500
      3 C4          2.6360   -0.8810    0.0500 c3        1 ADF     -0.085400
      4 C5          4.0990   -0.5790   -0.2630 c3        1 ADF     -0.092400
      5 C6          4.0900    0.7860   -0.9870 c3        1 ADF      0.149500
      6 C9          4.8380    1.8270   -0.1350 c3        1 ADF      0.139400
      7 O3         -0.0770    1.4680   -1.0590 o         1 ADF     -0.605100
      8 N7          2.6960    1.1620   -1.2100 n7        1 ADF     -0.825200
      9 N8         -0.1840   -0.0270    0.6610 n         1 ADF     -0.455800
     10 C10         3.7380    3.9310   -0.5600 ca        1 ADF      0.170100
     11 O11         4.8420    3.1150   -0.7440 os        1 ADF     -0.333900
     12 C12        -1.4970    0.5130    1.0420 c3        1 ADF      0.039700
     13 C13        -2.2640   -0.6060    1.7740 c3        1 ADF     -0.085400
     14 C14        -1.4460   -1.8770    1.5890 c3        1 ADF     -0.094400
     15 C15        -0.0860   -1.4300    1.0240 c3        1 ADF      0.085000
     16 C16         3.4220    4.8330   -1.6080 ca        1 ADF     -0.093300
     17 C17         2.3700    5.7260   -1.3880 ca        1 ADF     -0.050000
     18 C18         1.6370    5.7290   -0.1940 ca        1 ADF     -0.200600
     19 C19         1.9740    4.8400    0.8290 ca        1 ADF     -0.075000
     20 C20         3.0260    3.9510    0.6490 ca        1 ADF     -0.185000
     21 C21        -1.3860    1.7740    1.9380 c3        1 ADF      0.161800
     22 N22        -0.7200    2.9080    1.3570 n8        1 ADF     -0.912800
     23 C23         0.5400    6.7010   -0.0470 c         1 ADF      0.646700
     24 C24         4.1860    4.8500   -2.9070 c3        1 ADF      0.006300
     25 C25         3.6490    5.8950   -3.8820 c3        1 ADF     -0.090100
     26 C26         4.0790    3.4890   -3.5890 c3        1 ADF     -0.090100
     27 C27         5.6530    5.1780   -2.6420 c3        1 ADF     -0.090100
     28 O28        -0.5220    6.4270    0.7670 oh        1 ADF     -0.585100
     29 O29         0.4520    7.7980   -0.6060 o         1 ADF     -0.504000
     30 H2          1.6010   -0.5860   -1.8470 h1        1 ADF      0.045700
     31 H41         2.3940   -1.9580   -0.1130 hc        1 ADF      0.059700
     32 H42         2.4210   -0.6200    1.1150 hc        1 ADF      0.059700
     33 H51         4.5350   -1.3620   -0.9310 hc        1 ADF      0.053700
     34 H52         4.7120   -0.5430    0.6690 hc        1 ADF      0.053700
     35 H6          4.6440    0.6980   -1.9680 h1        1 ADF      0.046700
     36 H91         5.9310    1.5590   -0.1160 h1        1 ADF      0.058700
     37 H92         4.4400    1.8520    0.9090 h1        1 ADF      0.058700
     38 HN7         2.5280    1.5490   -2.1150 hn        1 ADF      0.397800
     39 H12        -2.0590    0.8040    0.1040 h1        1 ADF      0.067700
     40 H131       -3.2880   -0.7150    1.3410 hc        1 ADF      0.056200
     41 H132       -2.3740   -0.3610    2.8600 hc        1 ADF      0.056200
     42 H141       -1.3050   -2.4150    2.5580 hc        1 ADF      0.054200
     43 H142       -1.9500   -2.5760    0.8770 hc        1 ADF      0.054200
     44 H151        0.2020   -2.0600    0.1390 h1        1 ADF      0.044200
     45 H152        0.7080   -1.5480    1.8140 h1        1 ADF      0.044200
     46 H17         2.0800    6.4650   -2.1560 ha        1 ADF      0.161000
     47 H19         1.4250    4.8450    1.7840 ha        1 ADF      0.143000
     48 H20         3.2850    3.2650    1.4670 ha        1 ADF      0.140000
     49 H211       -2.4410    2.0790    2.1920 h1        1 ADF      0.053700
     50 H212       -0.8610    1.5030    2.8970 h1        1 ADF      0.053700
     51 H221       -1.1280    3.1330    0.4670 hn        1 ADF      0.357300
     52 H222        0.2530    2.7110    1.2030 hn        1 ADF      0.357300
     53 H251        4.2410    5.8580   -4.8290 hc        1 ADF      0.039144
     54 H252        3.7410    6.9220   -3.4540 hc        1 ADF      0.039144
     55 H253        2.5800    5.6930   -4.1310 hc        1 ADF      0.039144
     56 H261        4.6080    3.5140   -4.5720 hc        1 ADF      0.039144
     57 H262        3.0080    3.2290   -3.7650 hc        1 ADF      0.039144
     58 H263        4.5450    2.6960   -2.9550 hc        1 ADF      0.039144
     59 H271        6.1270    4.3980   -2.0010 hc        1 ADF      0.039144
     60 H272        5.7400    6.1660   -2.1290 hc        1 ADF      0.039144
     61 H273        6.2100    5.2270   -3.6100 hc        1 ADF      0.039144
     62 H223       -0.4560    5.5300    1.1240 ho        1 ADF      0.440000
@<TRIPOS>BOND
     1    1    2 1   
     2    1    7 2   
     3    1    9 1   
     4    2    3 1   
     5    2    8 1   
     6    2   30 1   
     7    3    4 1   
     8    3   31 1   
     9    3   32 1   
    10    4    5 1   
    11    4   33 1   
    12    4   34 1   
    13    5    6 1   
    14    5    8 1   
    15    5   35 1   
    16    6   11 1   
    17    6   36 1   
    18    6   37 1   
    19    8   38 1   
    20    9   12 1   
    21    9   15 1   
    22   10   11 1   
    23   10   16 ar  
    24   10   20 ar  
    25   12   13 1   
    26   12   21 1   
    27   12   39 1   
    28   13   14 1   
    29   13   40 1   
    30   13   41 1   
    31   14   15 1   
    32   14   42 1   
    33   14   43 1   
    34   15   44 1   
    35   15   45 1   
    36   16   17 ar  
    37   16   24 1   
    38   17   18 ar  
    39   17   46 1   
    40   18   19 ar  
    41   18   23 1   
    42   19   20 ar  
    43   19   47 1   
    44   20   48 1   
    45   21   22 1   
    46   21   49 1   
    47   21   50 1   
    48   22   51 1   
    49   22   52 1   
    50   23   28 1   
    51   23   29 2   
    52   24   25 1   
    53   24   26 1   
    54   24   27 1   
    55   25   53 1   
    56   25   54 1   
    57   25   55 1   
    58   26   56 1   
    59   26   57 1   
    60   26   58 1   
    61   27   59 1   
    62   27   60 1   
    63   27   61 1   
    64   28   62 1   
@<TRIPOS>SUBSTRUCTURE
     1 ADF         1 TEMP              0 ****  ****    0 ROOT
