@<TRIPOS>MOLECULE
ADF
   62    64     1     0     0
SMALL
bcc


@<TRIPOS>ATOM
      1 C1          0.4440    0.5300   -0.5020 c         1 ADF      0.656100
      2 C2          1.8250    0.0220   -0.9500 c3        1 ADF      0.127500
      3 C4          2.6030   -0.8950    0.0140 c3        1 ADF     -0.085400
      4 C5          4.0740   -0.6000   -0.2680 c3        1 ADF     -0.092400
      5 C6          4.0880    0.7760   -0.9710 c3        1 ADF      0.149500
      6 C9          4.8280    1.7980   -0.0880 c3        1 ADF      0.139400
      7 O3         -0.0720    1.4910   -1.1110 o         1 ADF     -0.605100
      8 N7          2.7010    1.1660   -1.2130 n3        1 ADF     -0.825200
      9 N8         -0.2210   -0.0270    0.5860 n         1 ADF     -0.455800
     10 C10         3.7530    3.9170   -0.5010 ca        1 ADF      0.170100
     11 O11         4.8530    3.0950   -0.6770 os        1 ADF     -0.333900
     12 C12        -1.5380    0.5180    0.9510 c3        1 ADF      0.039700
     13 C13        -2.3260   -0.6050    1.6520 c3        1 ADF     -0.085400
     14 C14        -1.5140   -1.8800    1.4650 c3        1 ADF     -0.094400
     15 C15        -0.1410   -1.4360    0.9310 c3        1 ADF      0.085000
     16 C16         3.4630    4.8380   -1.5400 ca        1 ADF     -0.093300
     17 C17         2.4140    5.7360   -1.3260 ca        1 ADF     -0.050000
     18 C18         1.6600    5.7270   -0.1450 ca        1 ADF     -0.200600
     19 C19         1.9700    4.8190    0.8690 ca        1 ADF     -0.075000
     20 C20         3.0190    3.9240    0.6950 ca        1 ADF     -0.185000
     21 C21        -1.4330    1.7650    1.8660 c3        1 ADF      0.161800
     22 N22        -0.7490    2.9020    1.3130 n3        1 ADF     -0.912800
     23 C23         0.5680    6.7050   -0.0040 c         1 ADF      0.646700
     24 C24         4.2520    4.8680   -2.8250 c3        1 ADF      0.006300
     25 C25         3.7400    5.9320   -3.7930 c3        1 ADF     -0.090100
     26 C26         4.1460    3.5180   -3.5300 c3        1 ADF     -0.090100
     27 C27         5.7160    5.1810   -2.5280 c3        1 ADF     -0.090100
     28 O28        -0.5110    6.4280    0.7860 oh        1 ADF     -0.585100
     29 O29         0.5000    7.8110   -0.5460 o         1 ADF     -0.504000
     30 H2          1.6050   -0.5640   -1.8970 h1        1 ADF      0.045700
     31 H41         2.3700   -0.6480    1.0790 hc        1 ADF      0.059700
     32 H42         2.3550   -1.9670   -0.1700 hc        1 ADF      0.059700
     33 H51         4.5150   -1.3770   -0.9390 hc        1 ADF      0.053700
     34 H52         4.6700   -0.5840    0.6760 hc        1 ADF      0.053700
     35 H6          4.6600    0.6990   -1.9420 h1        1 ADF      0.046700
     36 H91         4.4110    1.8100    0.9480 h1        1 ADF      0.058700
     37 H92         5.9190    1.5210   -0.0530 h1        1 ADF      0.058700
     38 HN7         2.5530    1.5680   -2.1150 hn        1 ADF      0.397800
     39 H12        -2.0800    0.8260    0.0060 h1        1 ADF      0.067700
     40 H131       -3.3420   -0.7010    1.1990 hc        1 ADF      0.056200
     41 H132       -2.4540   -0.3740    2.7390 hc        1 ADF      0.056200
     42 H141       -1.3950   -2.4320    2.4280 hc        1 ADF      0.054200
     43 H142       -2.0100   -2.5650    0.7340 hc        1 ADF      0.054200
     44 H151        0.1590   -2.0550    0.0430 h1        1 ADF      0.044200
     45 H152        0.6370   -1.5710    1.7330 h1        1 ADF      0.044200
     46 H17         2.1450    6.4890   -2.0870 ha        1 ADF      0.161000
     47 H19         1.4040    4.8140    1.8140 ha        1 ADF      0.143000
     48 H20         3.2560    3.2230    1.5060 ha        1 ADF      0.140000
     49 H211       -2.4910    2.0750    2.1040 h1        1 ADF      0.053700
     50 H212       -0.9280    1.4770    2.8300 h1        1 ADF      0.053700
     51 H221        0.2250    2.7000    1.1750 hn        1 ADF      0.357300
     52 H222       -0.4590    5.5240    1.1290 ho        1 ADF      0.440000
     53 H251        2.6750    5.7430   -4.0650 hc        1 ADF      0.039144
     54 H252        4.3490    5.9050   -4.7300 hc        1 ADF      0.039144
     55 H253        3.8330    6.9520   -3.3480 hc        1 ADF      0.039144
     56 H261        4.6940    3.5550   -4.5020 hc        1 ADF      0.039144
     57 H262        3.0760    3.2700   -3.7290 hc        1 ADF      0.039144
     58 H263        4.5940    2.7120   -2.9000 hc        1 ADF      0.039144
     59 H271        6.1710    4.3860   -1.8900 hc        1 ADF      0.039144
     60 H272        6.2900    5.2400   -3.4840 hc        1 ADF      0.039144
     61 H273        5.8010    6.1590   -1.9980 hc        1 ADF      0.039144
     62 H223       -1.1380    3.1430    0.4190 hn        1 ADF      0.357300
@<TRIPOS>BOND
     1    1    2 1   
     2    1    7 2   
     3    1    9 1   
     4    2    3 1   
     5    2    8 1   
     6    2   30 1   
     7    3    4 1   
     8    3   31 1   
     9    3   32 1   
    10    4    5 1   
    11    4   33 1   
    12    4   34 1   
    13    5    6 1   
    14    5    8 1   
    15    5   35 1   
    16    6   11 1   
    17    6   36 1   
    18    6   37 1   
    19    8   38 1   
    20    9   12 1   
    21    9   15 1   
    22   10   11 1   
    23   10   16 ar  
    24   10   20 ar  
    25   12   13 1   
    26   12   21 1   
    27   12   39 1   
    28   13   14 1   
    29   13   40 1   
    30   13   41 1   
    31   14   15 1   
    32   14   42 1   
    33   14   43 1   
    34   15   44 1   
    35   15   45 1   
    36   16   17 ar  
    37   16   24 1   
    38   17   18 ar  
    39   17   46 1   
    40   18   19 ar  
    41   18   23 1   
    42   19   20 ar  
    43   19   47 1   
    44   20   48 1   
    45   21   22 1   
    46   21   49 1   
    47   21   50 1   
    48   22   51 1   
    49   22   62 1   
    50   23   28 1   
    51   23   29 2   
    52   24   25 1   
    53   24   26 1   
    54   24   27 1   
    55   25   53 1   
    56   25   54 1   
    57   25   55 1   
    58   26   56 1   
    59   26   57 1   
    60   26   58 1   
    61   27   59 1   
    62   27   60 1   
    63   27   61 1   
    64   28   52 1   
@<TRIPOS>SUBSTRUCTURE
     1 ADF         1 TEMP              0 ****  ****    0 ROOT
