@<TRIPOS>MOLECULE
ADF
   61    63     1     0     0
SMALL
bcc


@<TRIPOS>ATOM
      1 C1         -3.9430    0.1300   -0.6130 c         1 ADF      0.656100
      2 C2         -2.8510   -0.4640    0.2900 c3        1 ADF      0.125500
      3 C4         -2.8570    0.1490    1.7120 c3        1 ADF     -0.078400
      4 C5         -1.3910    0.3600    2.0790 c3        1 ADF     -0.085400
      5 C6         -0.5830   -0.1910    0.8850 c3        1 ADF      0.170500
      6 C9          0.6500    0.6780    0.5970 c3        1 ADF      0.138400
      7 O3         -3.7170    0.5950   -1.7450 o         1 ADF     -0.587100
      8 N7         -1.5090   -0.2560   -0.2470 n3        1 ADF     -0.808200
      9 N8         -5.2490    0.1600   -0.1240 n         1 ADF     -0.474800
     10 C10         2.8900    0.1870   -0.0270 ca        1 ADF      0.084100
     11 O11         1.5400   -0.1360   -0.1710 os        1 ADF     -0.352900
     12 C12        -6.3560    0.5010   -1.0190 c3        1 ADF      0.049700
     13 C13        -7.6140   -0.2220   -0.4940 c3        1 ADF     -0.087400
     14 C14        -7.1970   -0.9670    0.7670 c3        1 ADF     -0.092400
     15 C15        -5.7070   -0.6550    0.9830 c3        1 ADF      0.088000
     16 C16         3.8380   -0.8530   -0.1560 ca        1 ADF     -0.113300
     17 C17         5.1890   -0.4990   -0.0440 ca        1 ADF     -0.089000
     18 C18         5.5980    0.8160    0.1890 ca        1 ADF     -0.144600
     19 C19         4.6390    1.8240    0.2950 ca        1 ADF     -0.084000
     20 C20         3.2870    1.5140    0.1840 ca        1 ADF     -0.216000
     21 C21        -6.6200    2.0270   -1.1090 c3        1 ADF      0.160800
     22 N22        -5.5350    2.8440   -1.5760 n3        1 ADF     -0.899800
     23 C23         7.0780    1.1430    0.3300 c         1 ADF      0.909200
     24 C24         3.4300   -2.2790   -0.4140 c3        1 ADF      0.013300
     25 C25         4.6350   -3.2070   -0.5520 c3        1 ADF     -0.084767
     26 C26         2.6310   -2.3690   -1.7120 c3        1 ADF     -0.084767
     27 C27         2.5820   -2.7960    0.7450 c3        1 ADF     -0.084767
     28 O28         7.3980    2.3440    0.5610 o         1 ADF     -0.832300
     29 O29         7.9070    0.1970    0.2120 o         1 ADF     -0.832300
     30 H2         -3.0950   -1.5690    0.3670 h1        1 ADF      0.028700
     31 H41        -3.3570   -0.5490    2.4240 hc        1 ADF      0.050200
     32 H42        -3.4090    1.1200    1.7260 hc        1 ADF      0.050200
     33 H51        -1.1180   -0.1840    3.0140 hc        1 ADF      0.053700
     34 H52        -1.1740    1.4460    2.2320 hc        1 ADF      0.053700
     35 H6         -0.2050   -1.2260    1.1520 h1        1 ADF      0.039700
     36 H91         1.1190    0.9800    1.5700 h1        1 ADF      0.050700
     37 H92         0.3890    1.5900   -0.0010 h1        1 ADF      0.050700
     38 HN7        -1.2460   -0.9330   -0.9300 hn        1 ADF      0.392800
     39 H12        -6.1060    0.1340   -2.0590 h1        1 ADF      0.064700
     40 H131       -7.9970   -0.9300   -1.2690 hc        1 ADF      0.050200
     41 H132       -8.4270    0.5130   -0.2720 hc        1 ADF      0.050200
     42 H141       -7.3500   -2.0670    0.6520 hc        1 ADF      0.048700
     43 H142       -7.7930   -0.6290    1.6500 hc        1 ADF      0.048700
     44 H151       -5.1150   -1.6090    1.0620 h1        1 ADF      0.042200
     45 H152       -5.5620   -0.0810    1.9400 h1        1 ADF      0.042200
     46 H17         5.9950   -1.2490   -0.1310 ha        1 ADF      0.161000
     47 H19         4.9770    2.8580    0.4670 ha        1 ADF      0.154000
     48 H20         2.5340    2.3110    0.2540 ha        1 ADF      0.114000
     49 H211       -7.4840    2.1580   -1.8200 h1        1 ADF      0.046200
     50 H212       -6.9400    2.4050   -0.0980 h1        1 ADF      0.046200
     51 H221       -4.7830    2.8500   -0.9120 hn        1 ADF      0.358800
     52 H222       -5.1720    2.4890   -2.4420 hn        1 ADF      0.358800
     53 H251        5.2830   -2.8850   -1.4010 hc        1 ADF      0.031033
     54 H252        5.2390   -3.2110    0.3860 hc        1 ADF      0.031033
     55 H253        4.2850   -4.2500   -0.7500 hc        1 ADF      0.031033
     56 H261        2.3640   -3.4320   -1.9240 hc        1 ADF      0.031033
     57 H262        1.6910   -1.7720   -1.6400 hc        1 ADF      0.031033
     58 H263        3.2390   -1.9750   -2.5610 hc        1 ADF      0.031033
     59 H271        3.1670   -2.7590    1.6940 hc        1 ADF      0.031033
     60 H272        1.6650   -2.1710    0.8630 hc        1 ADF      0.031033
     61 H273        2.2740   -3.8520    0.5530 hc        1 ADF      0.031033
@<TRIPOS>BOND
     1    1    2 1   
     2    1    7 2   
     3    1    9 1   
     4    2    3 1   
     5    2    8 1   
     6    2   30 1   
     7    3    4 1   
     8    3   31 1   
     9    3   32 1   
    10    4    5 1   
    11    4   33 1   
    12    4   34 1   
    13    5    6 1   
    14    5    8 1   
    15    5   35 1   
    16    6   11 1   
    17    6   36 1   
    18    6   37 1   
    19    8   38 1   
    20    9   12 1   
    21    9   15 1   
    22   10   11 1   
    23   10   16 ar  
    24   10   20 ar  
    25   12   13 1   
    26   12   21 1   
    27   12   39 1   
    28   13   14 1   
    29   13   40 1   
    30   13   41 1   
    31   14   15 1   
    32   14   42 1   
    33   14   43 1   
    34   15   44 1   
    35   15   45 1   
    36   16   17 ar  
    37   16   24 1   
    38   17   18 ar  
    39   17   46 1   
    40   18   19 ar  
    41   18   23 1   
    42   19   20 ar  
    43   19   47 1   
    44   20   48 1   
    45   21   22 1   
    46   21   49 1   
    47   21   50 1   
    48   22   51 1   
    49   22   52 1   
    50   23   28 1   
    51   23   29 1   
    52   24   25 1   
    53   24   26 1   
    54   24   27 1   
    55   25   53 1   
    56   25   54 1   
    57   25   55 1   
    58   26   56 1   
    59   26   57 1   
    60   26   58 1   
    61   27   59 1   
    62   27   60 1   
    63   27   61 1   
@<TRIPOS>SUBSTRUCTURE
     1 ADF         1 TEMP              0 ****  ****    0 ROOT
