@<TRIPOS>MOLECULE
ADF
   61    59     1     0     0
SMALL
bcc


@<TRIPOS>ATOM
      1 C1         -2.8950   -1.8090    0.6650 c1        1 ADF      0.290000
      2 C2         -1.4040   -1.8690    0.7080 c2        1 ADF     -0.041000
      3 C4         -0.9030   -1.8820    2.2380 c3        1 ADF     -0.170000
      4 C5          0.1290   -0.7990    2.3540 c3        1 ADF     -0.168000
      5 C6          0.3990   -0.4610    1.1710 c3        1 ADF     -0.042000
      6 C9          0.7450    1.0620    1.1130 c3        1 ADF     -0.042000
      7 O3         -3.4980   -1.0220    1.3840 o         1 ADF     -0.379000
      8 N7         -0.9120   -0.7620    0.2880 n3        1 ADF     -0.273000
      9 N8         -3.6350   -2.6620   -0.2690 n3        1 ADF     -0.334000
     10 C10         2.6220    2.4510    0.5340 c1        1 ADF      0.035000
     11 O11         1.8860    1.2610    0.2540 o         1 ADF     -0.237000
     12 C12        -5.2120   -2.6990   -0.4840 c3        1 ADF      0.033000
     13 C13        -5.4050   -2.8780   -1.7770 c3        1 ADF     -0.164000
     14 C14        -4.1620   -3.6140   -2.2610 c3        1 ADF     -0.170000
     15 C15        -3.1370   -3.5260   -1.0800 c3        1 ADF     -0.023000
     16 C16         3.7320    2.7850   -0.2480 c2        1 ADF     -0.101000
     17 C17         4.4900    3.9100    0.0670 c1        1 ADF     -0.091000
     18 C18         4.1420    4.7030    1.1630 c1        1 ADF     -0.121000
     19 C19         3.0370    4.3700    1.9410 c1        1 ADF     -0.086000
     20 C20         2.2760    3.2440    1.6270 c1        1 ADF     -0.213000
     21 C21        -5.8210   -3.8530    0.2990 c3        1 ADF     -0.099000
     22 N22        -7.0440   -3.4340    0.8880 n3        1 ADF     -0.347000
     23 C23         5.0100    5.9370    1.5340 c2        1 ADF      0.358000
     24 C24         4.0450    1.9660   -1.5550 c3        1 ADF      0.006000
     25 C25         3.6540    0.5290   -1.3510 c3        1 ADF     -0.202333
     26 C26         3.2570    2.5400   -2.7090 c3        1 ADF     -0.202333
     27 C27         5.5640    2.0490   -1.8700 c3        1 ADF     -0.202333
     28 O28         4.7340    7.0760    1.0500 o         1 ADF     -0.566000
     29 O29         6.0110    5.8000    2.3020 o         1 ADF     -0.566000
     30 H2         -1.2320   -2.6750    0.1680 h4        1 ADF      0.105000
     31 H41        -1.6500   -1.6980    2.8360 hc        1 ADF      0.101000
     32 H42        -0.4990   -2.7640    2.4570 hc        1 ADF      0.101000
     33 H51         0.9230   -1.1390    2.7960 hc        1 ADF      0.089000
     34 H52        -0.2350   -0.0370    2.8500 hc        1 ADF      0.089000
     35 H6          1.1500   -0.9860    0.8390 h1        1 ADF      0.117000
     36 H91        -0.0130    1.5530    0.7630 h1        1 ADF      0.084500
     37 H92         0.9570    1.3860    2.0210 h1        1 ADF      0.084500
     38 HN7        -1.5250   -0.0890    0.4120 hn        1 ADF      0.177000
     39 H12        -5.6080   -1.8590   -0.2000 h1        1 ADF      0.102000
     40 H131       -5.4900   -2.0080   -2.2350 hc        1 ADF      0.099500
     41 H132       -6.1990   -3.4200   -1.9280 hc        1 ADF      0.099500
     42 H141       -4.3780   -4.5520   -2.4560 hc        1 ADF      0.089000
     43 H142       -3.8030   -3.1820   -3.0490 hc        1 ADF      0.089000
     44 H151       -2.2770   -3.2270   -1.4030 h1        1 ADF      0.090000
     45 H152       -3.0520   -4.3930   -0.6400 h1        1 ADF      0.090000
     46 H17         5.2630    4.1430   -0.4760 ha        1 ADF      0.161000
     47 H19         2.7910    4.9310    2.7150 ha        1 ADF      0.154000
     48 H20         1.5000    3.0110    2.1730 ha        1 ADF      0.113000
     49 H211       -5.9920   -4.6070   -0.3100 h1        1 ADF      0.082000
     50 H212       -5.1990   -4.1350    1.0010 h1        1 ADF      0.082000
     51 H221       -7.7390   -3.9170    0.5290 hn        1 ADF      0.142000
     52 H222       -7.0110   -3.5740    1.7930 hn        1 ADF      0.142000
     53 H251        3.8200    0.2760   -0.4310 hc        1 ADF      0.070667
     54 H252        2.6970    0.4200   -1.5530 hc        1 ADF      0.070667
     55 H253        4.1850   -0.0450   -1.9510 hc        1 ADF      0.070667
     56 H261        3.7790    2.4610   -3.5320 hc        1 ADF      0.070667
     57 H262        2.4070    2.0420   -2.8080 hc        1 ADF      0.070667
     58 H263        3.0640    3.4810   -2.5360 hc        1 ADF      0.070667
     59 H271        6.0820    1.7680   -1.0780 hc        1 ADF      0.070667
     60 H272        5.7780    1.4490   -2.6360 hc        1 ADF      0.070667
     61 H273        5.8000    2.9750   -2.1040 hc        1 ADF      0.070667
@<TRIPOS>BOND
     1    1    7 1   
     2    1    9 1   
     3    2    3 1   
     4    2    8 1   
     5    2   30 1   
     6    3    4 1   
     7    3   31 1   
     8    3   32 1   
     9    4    5 1   
    10    4   33 1   
    11    4   34 1   
    12    5    6 1   
    13    5    8 1   
    14    5   35 1   
    15    6   11 1   
    16    6   36 1   
    17    6   37 1   
    18    8   38 1   
    19    9   12 1   
    20    9   15 1   
    21   10   16 1   
    22   10   20 1   
    23   12   13 1   
    24   12   21 1   
    25   12   39 1   
    26   13   14 1   
    27   13   40 1   
    28   13   41 1   
    29   14   15 1   
    30   14   42 1   
    31   14   43 1   
    32   15   44 1   
    33   15   45 1   
    34   16   17 1   
    35   16   24 1   
    36   17   46 1   
    37   18   19 1   
    38   18   23 1   
    39   19   47 1   
    40   20   48 1   
    41   21   22 1   
    42   21   49 1   
    43   21   50 1   
    44   22   51 1   
    45   22   52 1   
    46   23   28 1   
    47   23   29 1   
    48   24   25 1   
    49   24   26 1   
    50   24   27 1   
    51   25   53 1   
    52   25   54 1   
    53   25   55 1   
    54   26   56 1   
    55   26   57 1   
    56   26   58 1   
    57   27   59 1   
    58   27   60 1   
    59   27   61 1   
@<TRIPOS>SUBSTRUCTURE
     1 ADF         1 TEMP              0 ****  ****    0 ROOT
