@<TRIPOS>MOLECULE
ADG
   26    26     1     0     0
SMALL
bcc


@<TRIPOS>ATOM
      1 C5         -0.4070    0.2190   -1.3410 c3        1 ADG      0.104100
      2 O           1.0590    0.2190   -1.3410 os        1 ADG     -0.422600
      3 C1          1.6310    0.2190    0.0110 c3        1 ADG      0.303900
      4 O1          3.0060    0.0510   -0.0840 oh        1 ADG     -0.545800
      5 C2          1.0600   -0.8850    0.8840 c3        1 ADG      0.077100
      6 O2          1.5220   -2.1550    0.3910 oh        1 ADG     -0.547800
      7 C3         -0.4220   -0.8860    0.8940 c3        1 ADG      0.071500
      8 N3         -0.8940    0.3150    1.6070 n4        1 ADG     -0.829600
      9 C4         -0.9900   -0.8850   -0.4740 c3        1 ADG      0.111100
     10 O4         -0.7150   -2.1550   -1.0920 oh        1 ADG     -0.588800
     11 C6         -0.8900    1.5370   -0.8330 c3        1 ADG      0.101400
     12 O6         -0.8720    2.4800   -1.8810 oh        1 ADG     -0.686800
     13 H5         -0.7220    0.1000   -2.2570 h1        1 ADG      0.115700
     14 H1          1.4470    1.0810    0.4310 h2        1 ADG      0.089700
     15 HO1         3.3900    0.8360   -0.2410 ho        1 ADG      0.444000
     16 H2          1.3820   -0.7640    1.7980 h1        1 ADG      0.110700
     17 HO2         2.0260   -2.5470    1.0080 ho        1 ADG      0.439000
     18 H3         -0.7350   -1.6800    1.3670 hx        1 ADG      0.147700
     19 H31        -0.9560    0.1350    2.4990 hn        1 ADG      0.467133
     20 H32        -1.7150    0.5550    1.2880 hn        1 ADG      0.467133
     21 H33        -0.3050    0.9990    1.4750 hn        1 ADG      0.467133
     22 H4         -1.9570   -0.7640   -0.4150 h1        1 ADG      0.061700
     23 HO4        -1.4660   -2.4900   -1.4270 ho        1 ADG      0.443000
     24 H61        -1.8020    1.4420   -0.4970 h1        1 ADG      0.074700
     25 H62        -0.3070    1.8410   -0.1120 h1        1 ADG      0.074700
     26 H6         -1.3680    3.1810   -1.6570 ho        1 ADG      0.449000
@<TRIPOS>BOND
     1    1    2 1   
     2    1    9 1   
     3    1   11 1   
     4    1   13 1   
     5    2    3 1   
     6    3    4 1   
     7    3    5 1   
     8    3   14 1   
     9    4   15 1   
    10    5    6 1   
    11    5    7 1   
    12    5   16 1   
    13    6   17 1   
    14    7    8 1   
    15    7    9 1   
    16    7   18 1   
    17    8   19 1   
    18    8   20 1   
    19    8   21 1   
    20    9   10 1   
    21    9   22 1   
    22   10   23 1   
    23   11   12 1   
    24   11   24 1   
    25   11   25 1   
    26   12   26 1   
@<TRIPOS>SUBSTRUCTURE
     1 ADG         1 TEMP              0 ****  ****    0 ROOT
