@<TRIPOS>MOLECULE
ADG
   26    26     1     0     0
SMALL
bcc


@<TRIPOS>ATOM
      1 C5         -1.2100    0.0700    0.0510 c3        1 ADG      0.075100
      2 O          -0.7540    1.1410    0.8770 os        1 ADG     -0.414600
      3 C1          0.5650    1.5780    0.6390 c3        1 ADG      0.310900
      4 O1          0.6120    2.0670   -0.6780 oh        1 ADG     -0.641800
      5 C2          1.6020    0.4390    0.7270 c3        1 ADG      0.112100
      6 O2          2.8970    0.8440    0.3540 oh        1 ADG     -0.595800
      7 C3          1.1450   -0.7080   -0.2050 c3        1 ADG      0.069500
      8 N3          2.1120   -1.8490   -0.1870 n4        1 ADG     -0.823600
      9 C4         -0.2810   -1.1500    0.1940 c3        1 ADG      0.117100
     10 O4         -0.6100   -2.2040   -0.6890 oh        1 ADG     -0.633800
     11 C6         -2.6320   -0.2470    0.5470 c3        1 ADG      0.128400
     12 O6         -3.2440   -1.1520   -0.3440 oh        1 ADG     -0.603800
     13 H5         -1.2300    0.4000   -1.0240 h1        1 ADG      0.079700
     14 H1          0.7580    2.3700    1.4180 h2        1 ADG      0.124700
     15 HO1         0.0760    2.8720   -0.7220 ho        1 ADG      0.456000
     16 H2          1.6800    0.0900    1.7960 h1        1 ADG      0.108700
     17 HO2         2.8250    1.5470   -0.3110 ho        1 ADG      0.451000
     18 H3          1.1210   -0.3210   -1.2720 hx        1 ADG      0.138700
     19 H31         2.1370   -2.2760    0.7420 hn        1 ADG      0.467800
     20 H32         3.0480   -1.4960   -0.4210 hn        1 ADG      0.467800
     21 H33         1.8060   -2.5520   -0.8700 hn        1 ADG      0.467800
     22 H4         -0.3010   -1.5240    1.2570 h1        1 ADG      0.070700
     23 HO4        -1.5710   -2.3420   -0.6630 ho        1 ADG      0.476000
     24 H61        -2.5950   -0.7760    1.5370 h1        1 ADG      0.083200
     25 H62        -3.2120    0.7060    0.6520 h1        1 ADG      0.083200
     26 H6         -3.6490   -0.6450   -1.0600 ho        1 ADG      0.426000
@<TRIPOS>BOND
     1    1    2 1   
     2    1    9 1   
     3    1   11 1   
     4    1   13 1   
     5    2    3 1   
     6    3    4 1   
     7    3    5 1   
     8    3   14 1   
     9    4   15 1   
    10    5    6 1   
    11    5    7 1   
    12    5   16 1   
    13    6   17 1   
    14    7    8 1   
    15    7    9 1   
    16    7   18 1   
    17    8   19 1   
    18    8   20 1   
    19    8   21 1   
    20    9   10 1   
    21    9   22 1   
    22   10   23 1   
    23   11   12 1   
    24   11   24 1   
    25   11   25 1   
    26   12   26 1   
@<TRIPOS>SUBSTRUCTURE
     1 ADG         1 TEMP              0 ****  ****    0 ROOT
