@<TRIPOS>MOLECULE
ADH
   25    25     1     0     0
SMALL
bcc


@<TRIPOS>ATOM
      1 C1         -0.0250    0.0070   -0.0510 c3        1 ADH      0.182700
      2 C2          1.5180   -0.0610   -0.0050 c3        1 ADH      0.130100
      3 C3          2.0350    0.0190    1.4420 c3        1 ADH      0.114100
      4 C4          1.5960    1.3230    2.0980 c3        1 ADH     -0.115200
      5 C5          0.1660    1.6330    1.8390 c2        1 ADH     -0.007400
      6 C6         -0.4090    2.7020    2.7170 c3        1 ADH      0.151600
      7 C7         -0.5610    1.0440    0.8750 c2        1 ADH     -0.271200
      8 N1         -0.6500   -1.3350    0.2600 n4        1 ADH     -0.838600
      9 O2          1.9090   -1.2790   -0.6110 oh        1 ADH     -0.633800
     10 O3          3.4450   -0.0600    1.3220 oh        1 ADH     -0.593800
     11 O6         -1.8130    2.7480    2.5230 oh        1 ADH     -0.606800
     12 H1         -0.3320    0.2450   -1.1170 hx        1 ADH      0.123700
     13 H2          1.9200    0.8120   -0.5950 h1        1 ADH      0.104700
     14 H3          1.6620   -0.8630    2.0350 h1        1 ADH      0.038700
     15 H41         2.2280    2.1670    1.6990 hc        1 ADH      0.094700
     16 H42         1.7870    1.2650    3.2040 hc        1 ADH      0.094700
     17 H61        -0.1850    2.4680    3.7950 h1        1 ADH      0.062200
     18 H62         0.0600    3.6890    2.4490 h1        1 ADH      0.062200
     19 H71        -1.6090    1.3490    0.7020 ha        1 ADH      0.182000
     20 HN12       -0.2300   -2.0450   -0.3550 hn        1 ADH      0.461800
     21 HN22       -0.4630   -1.5870    1.2330 hn        1 ADH      0.461800
     22 HO2         2.8790   -1.3140   -0.5850 ho        1 ADH      0.471000
     23 HO3         3.8210    0.0350    2.2070 ho        1 ADH      0.435000
     24 HO6        -2.1350    3.5250    2.9990 ho        1 ADH      0.432000
     25 H13        -1.6600   -1.2890    0.1110 hn        1 ADH      0.461800
@<TRIPOS>BOND
     1    1    2 1   
     2    1    7 1   
     3    1    8 1   
     4    1   12 1   
     5    2    3 1   
     6    2    9 1   
     7    2   13 1   
     8    3    4 1   
     9    3   10 1   
    10    3   14 1   
    11    4    5 1   
    12    4   15 1   
    13    4   16 1   
    14    5    6 1   
    15    5    7 2   
    16    6   11 1   
    17    6   17 1   
    18    6   18 1   
    19    7   19 1   
    20    8   20 1   
    21    8   21 1   
    22    8   25 1   
    23    9   22 1   
    24   10   23 1   
    25   11   24 1   
@<TRIPOS>SUBSTRUCTURE
     1 ADH         1 TEMP              0 ****  ****    0 ROOT
