@<TRIPOS>MOLECULE
ADH
   24    24     1     0     0
SMALL
bcc


@<TRIPOS>ATOM
      1 C1         -1.4760    0.1720   -0.3710 c3        1 ADH      0.211700
      2 C2         -0.3140    0.5990   -1.3000 c3        1 ADH      0.114100
      3 C3          0.9070   -0.3000   -1.0500 c3        1 ADH      0.113100
      4 C4          1.4370   -0.0570    0.3590 c3        1 ADH     -0.042200
      5 C5          0.3370    0.0290    1.3590 c2        1 ADH     -0.121400
      6 C6          0.8220   -0.0000    2.7740 c3        1 ADH      0.169600
      7 C7         -0.9600    0.1320    1.0430 c2        1 ADH     -0.138200
      8 N1         -2.0640   -1.1030   -0.7530 n3        1 ADH     -0.907800
      9 O2         -0.7470    0.5120   -2.6480 oh        1 ADH     -0.606800
     10 O3          1.9410    0.0510   -1.9640 oh        1 ADH     -0.608800
     11 O6         -0.2420    0.3370    3.6520 oh        1 ADH     -0.599800
     12 H1         -2.2430    1.0090   -0.4250 h1        1 ADH      0.028700
     13 H2         -0.0440    1.6670   -1.0640 h1        1 ADH      0.050700
     14 H3          0.6200   -1.3790   -1.1810 h1        1 ADH      0.071700
     15 H41         2.0280    0.9000    0.3680 hc        1 ADH      0.062200
     16 H42         2.1430   -0.8850    0.6330 hc        1 ADH      0.062200
     17 H61         1.2030   -1.0310    3.0160 h1        1 ADH      0.031200
     18 H62         1.6630    0.7370    2.9030 h1        1 ADH      0.031200
     19 H71        -1.7310    0.1890    1.8290 ha        1 ADH      0.147000
     20 HN12       -2.8980   -1.2640   -0.2260 hn        1 ADH      0.359300
     21 HN22       -2.2770   -1.0970   -1.7320 hn        1 ADH      0.359300
     22 HO2        -0.0270    0.8680   -3.1840 ho        1 ADH      0.409000
     23 HO3         1.8050   -0.4870   -2.7520 ho        1 ADH      0.404000
     24 HO6         0.1100    0.2570    4.5450 ho        1 ADH      0.402000
@<TRIPOS>BOND
     1    1    2 1   
     2    1    7 1   
     3    1    8 1   
     4    1   12 1   
     5    2    3 1   
     6    2    9 1   
     7    2   13 1   
     8    3    4 1   
     9    3   10 1   
    10    3   14 1   
    11    4    5 1   
    12    4   15 1   
    13    4   16 1   
    14    5    6 1   
    15    5    7 2   
    16    6   11 1   
    17    6   17 1   
    18    6   18 1   
    19    7   19 1   
    20    8   20 1   
    21    8   21 1   
    22    9   22 1   
    23   10   23 1   
    24   11   24 1   
@<TRIPOS>SUBSTRUCTURE
     1 ADH         1 TEMP              0 ****  ****    0 ROOT
