@<TRIPOS>MOLECULE
ADH
   24    24     1     0     0
SMALL
bcc


@<TRIPOS>ATOM
      1 C1         -0.7980   -0.5620   -1.3290 c3        1 ADH      0.205700
      2 C2          0.8530   -0.5620   -1.3290 c3        1 ADH      0.151100
      3 C3          1.4140   -0.5620   -0.1620 c3        1 ADH      0.107100
      4 C4          0.9990    0.6790    0.8250 c3        1 ADH     -0.071200
      5 C5         -0.4490    0.8360    0.9300 c2        1 ADH     -0.123400
      6 C6         -1.0390    1.7530    1.9900 c3        1 ADH      0.170600
      7 C7         -1.3450    0.4740   -0.4860 c2        1 ADH     -0.130200
      8 N1         -1.3380   -1.8860   -0.9790 n3        1 ADH     -0.907800
      9 O2          1.3190   -1.7840   -2.0690 oh        1 ADH     -0.608800
     10 O3          2.9090   -0.5220   -0.3610 oh        1 ADH     -0.616800
     11 O6         -1.8530    1.0000    2.8640 oh        1 ADH     -0.598800
     12 H1         -1.1330   -0.4640   -2.2410 h1        1 ADH      0.031700
     13 H2          1.1590    0.2270   -1.8150 h1        1 ADH      0.050700
     14 H3          1.1860   -1.3990    0.2870 h1        1 ADH      0.069700
     15 H41         1.4020    0.7420    1.7120 hc        1 ADH      0.054700
     16 H42         1.3930    1.4670    0.4060 hc        1 ADH      0.054700
     17 H61        -1.5770    2.4450    1.5600 h1        1 ADH      0.029200
     18 H62        -0.3180    2.1710    2.4980 h1        1 ADH      0.029200
     19 H71        -1.9540    1.1380   -0.8610 ha        1 ADH      0.147000
     20 HN12       -2.1580   -1.7870   -0.5920 hn        1 ADH      0.359800
     21 HN22       -1.4180   -2.3910   -1.7340 hn        1 ADH      0.359800
     22 HO2         1.6450   -1.5450   -2.8600 ho        1 ADH      0.425000
     23 HO3         3.3050   -1.0050    0.2690 ho        1 ADH      0.408000
     24 HO6        -2.2050    1.5370    3.4770 ho        1 ADH      0.402000
@<TRIPOS>BOND
     1    1    2 1   
     2    1    7 1   
     3    1    8 1   
     4    1   12 1   
     5    2    3 1   
     6    2    9 1   
     7    2   13 1   
     8    3    4 1   
     9    3   10 1   
    10    3   14 1   
    11    4    5 1   
    12    4   15 1   
    13    4   16 1   
    14    5    6 1   
    15    5    7 2   
    16    6   11 1   
    17    6   17 1   
    18    6   18 1   
    19    7   19 1   
    20    8   20 1   
    21    8   21 1   
    22    9   22 1   
    23   10   23 1   
    24   11   24 1   
@<TRIPOS>SUBSTRUCTURE
     1 ADH         1 TEMP              0 ****  ****    0 ROOT
