@<TRIPOS>MOLECULE
ADH
   25    25     1     0     0
SMALL
bcc


@<TRIPOS>ATOM
      1 C1         -0.0290    0.0040   -0.0470 c3        1 ADH      0.182700
      2 C2          1.5150   -0.0590   -0.0080 c3        1 ADH      0.130100
      3 C3          2.0380    0.0240    1.4370 c3        1 ADH      0.114100
      4 C4          1.5980    1.3270    2.0930 c3        1 ADH     -0.115200
      5 C5          0.1660    1.6320    1.8400 c2        1 ADH     -0.007400
      6 C6         -0.4090    2.7010    2.7200 c3        1 ADH      0.151600
      7 C7         -0.5630    1.0410    0.8800 c2        1 ADH     -0.271200
      8 N1         -0.6480   -1.3390    0.2670 nz        1 ADH     -0.838600
      9 O2          1.9070   -1.2770   -0.6150 oh        1 ADH     -0.633800
     10 O3          3.4470   -0.0520    1.3100 oh        1 ADH     -0.593800
     11 O6         -1.8130    2.7420    2.5330 oh        1 ADH     -0.606800
     12 H1         -0.3410    0.2400   -1.1130 hx        1 ADH      0.123700
     13 H2          1.9120    0.8150   -0.6010 h1        1 ADH      0.104700
     14 H3          1.6700   -0.8590    2.0320 h1        1 ADH      0.038700
     15 H41         2.2260    2.1730    1.6910 hc        1 ADH      0.094700
     16 H42         1.7940    1.2700    3.1990 hc        1 ADH      0.094700
     17 H61        -0.1780    2.4690    3.7970 h1        1 ADH      0.062200
     18 H62         0.0560    3.6890    2.4480 h1        1 ADH      0.062200
     19 H71        -1.6130    1.3430    0.7110 ha        1 ADH      0.182000
     20 HN12       -0.2290   -2.0480   -0.3480 hn        1 ADH      0.461800
     21 HN22       -1.6590   -1.2960    0.1230 hn        1 ADH      0.461800
     22 HO2         2.8770   -1.3090   -0.5930 ho        1 ADH      0.471000
     23 HO3         3.8280    0.0450    2.1940 ho        1 ADH      0.435000
     24 HO6        -2.1360    3.5180    3.0100 ho        1 ADH      0.432000
     25 H13        -0.4570   -1.5890    1.2400 hn        1 ADH      0.461800
@<TRIPOS>BOND
     1    1    2 1   
     2    1    7 1   
     3    1    8 1   
     4    1   12 1   
     5    2    3 1   
     6    2    9 1   
     7    2   13 1   
     8    3    4 1   
     9    3   10 1   
    10    3   14 1   
    11    4    5 1   
    12    4   15 1   
    13    4   16 1   
    14    5    6 1   
    15    5    7 2   
    16    6   11 1   
    17    6   17 1   
    18    6   18 1   
    19    7   19 1   
    20    8   20 1   
    21    8   21 1   
    22    8   25 1   
    23    9   22 1   
    24   10   23 1   
    25   11   24 1   
@<TRIPOS>SUBSTRUCTURE
     1 ADH         1 TEMP              0 ****  ****    0 ROOT
