@<TRIPOS>MOLECULE
ADK
   18    19     1     0     0
SMALL
bcc


@<TRIPOS>ATOM
      1 N9         -0.0480    0.1040    0.0940 nc        1 ADK     -0.421300
      2 C4          1.3150    0.0390    0.0330 cd        1 ADK     -0.028300
      3 N3          2.2850   -0.0310    1.0280 na        1 ADK     -0.187900
      4 C2          3.5960   -0.0850    0.6020 cc        1 ADK      0.572400
      5 N1          4.0450   -0.0790   -0.6470 nd        1 ADK     -0.777000
      6 C6          3.1240   -0.0100   -1.7010 cc        1 ADK      0.776200
      7 N6          3.5640   -0.0020   -2.9910 nh        1 ADK     -0.942500
      8 C5          1.7430    0.0510   -1.3930 cd        1 ADK     -0.172900
      9 N7          0.5930    0.1250   -2.1730 nd        1 ADK     -0.587100
     10 C8         -0.4170    0.1530   -1.2630 cc        1 ADK      0.531200
     11 C3A         1.9110   -0.0460    2.4180 c3        1 ADK      0.015600
     12 HC2         4.3710   -0.1410    1.3980 h5        1 ADK      0.054100
     13 HN61        2.8930    0.0480   -3.7200 hn        1 ADK      0.455300
     14 HN62        4.5280   -0.0440   -3.2070 hn        1 ADK      0.455300
     15 H8         -1.4740    0.2110   -1.5480 h5        1 ADK      0.059800
     16 H3A1        1.2610   -0.9400    2.6200 h1        1 ADK      0.065700
     17 H3A2        1.3270    0.8840    2.6580 h1        1 ADK      0.065700
     18 H3A3        2.8270   -0.0920    3.0640 h1        1 ADK      0.065700
@<TRIPOS>BOND
     1    1    2 2   
     2    1   10 1   
     3    2    3 1   
     4    2    8 1   
     5    3    4 1   
     6    3   11 1   
     7    4    5 2   
     8    4   12 1   
     9    5    6 1   
    10    6    7 1   
    11    6    8 2   
    12    7   13 1   
    13    7   14 1   
    14    8    9 1   
    15    9   10 2   
    16   10   15 1   
    17   11   16 1   
    18   11   17 1   
    19   11   18 1   
@<TRIPOS>SUBSTRUCTURE
     1 ADK         1 TEMP              0 ****  ****    0 ROOT
