@<TRIPOS>MOLECULE
ADK
   18    19     1     0     0
SMALL
bcc


@<TRIPOS>ATOM
      1 N9         -0.0490    0.0580    0.1010 nc        1 ADK     -0.421300
      2 C4          1.3140    0.0240    0.0350 cd        1 ADK     -0.028300
      3 N3          2.2890   -0.0170    1.0270 na        1 ADK     -0.187900
      4 C2          3.6000   -0.0440    0.5970 cc        1 ADK      0.572400
      5 N1          4.0450   -0.0360   -0.6540 nd        1 ADK     -0.777000
      6 C6          3.1180    0.0050   -1.7040 cc        1 ADK      0.776200
      7 N6          3.5530    0.0140   -2.9970 nv        1 ADK     -0.942500
      8 C5          1.7380    0.0350   -1.3920 cd        1 ADK     -0.172900
      9 N7          0.5840    0.0780   -2.1690 nd        1 ADK     -0.587100
     10 C8         -0.4230    0.0890   -1.2550 cc        1 ADK      0.531200
     11 C3A         1.9210   -0.0310    2.4180 c3        1 ADK      0.015600
     12 HC2         4.3790   -0.0770    1.3910 h5        1 ADK      0.054100
     13 HN61        4.5180   -0.0080   -3.2160 hn        1 ADK      0.455300
     14 HN62        2.8800    0.0430   -3.7230 hn        1 ADK      0.455300
     15 H8         -1.4820    0.1210   -1.5370 h5        1 ADK      0.059800
     16 H3A1        1.2900   -0.9360    2.6290 h1        1 ADK      0.065700
     17 H3A2        1.3190    0.8880    2.6540 h1        1 ADK      0.065700
     18 H3A3        2.8390   -0.0540    3.0610 h1        1 ADK      0.065700
@<TRIPOS>BOND
     1    1    2 2   
     2    1   10 1   
     3    2    3 1   
     4    2    8 1   
     5    3    4 1   
     6    3   11 1   
     7    4    5 2   
     8    4   12 1   
     9    5    6 1   
    10    6    7 1   
    11    6    8 2   
    12    7   13 1   
    13    7   14 1   
    14    8    9 1   
    15    9   10 2   
    16   10   15 1   
    17   11   16 1   
    18   11   17 1   
    19   11   18 1   
@<TRIPOS>SUBSTRUCTURE
     1 ADK         1 TEMP              0 ****  ****    0 ROOT
