@<TRIPOS>MOLECULE
ADK
   18    19     1     0     0
SMALL
bcc


@<TRIPOS>ATOM
      1 N9         -1.7790   -0.0000    1.1820 nc        1 ADK     -0.421300
      2 C4         -0.4890   -0.0000    0.7360 cd        1 ADK     -0.028300
      3 N3          0.7270   -0.0000    1.4150 na        1 ADK     -0.187900
      4 C2          1.8640   -0.0000    0.6340 cc        1 ADK      0.572400
      5 N1          1.9400   -0.0000   -0.6910 nd        1 ADK     -0.777000
      6 C6          0.7550   -0.0000   -1.4400 cc        1 ADK      0.776200
      7 N6          0.8100   -0.0000   -2.8020 nh        1 ADK     -0.942500
      8 C5         -0.4830   -0.0000   -0.7520 cd        1 ADK     -0.172900
      9 N7         -1.8090   -0.0000   -1.1750 nd        1 ADK     -0.587100
     10 C8         -2.5190   -0.0000   -0.0150 cc        1 ADK      0.531200
     11 C3A         0.7630   -0.0000    2.8540 c3        1 ADK      0.015600
     12 HC2         2.8350   -0.0000    1.1780 h5        1 ADK      0.054100
     13 HN61        1.6750   -0.0000   -3.2830 hn        1 ADK      0.455300
     14 HN62       -0.0410   -0.0000   -3.3110 hn        1 ADK      0.455300
     15 H8         -3.6150   -0.0000    0.0110 h5        1 ADK      0.059800
     16 H3A1        1.8250   -0.0010    3.2130 h1        1 ADK      0.065700
     17 H3A2        0.2340    0.9130    3.2410 h1        1 ADK      0.065700
     18 H3A3        0.2340   -0.9120    3.2410 h1        1 ADK      0.065700
@<TRIPOS>BOND
     1    1    2 2   
     2    1   10 1   
     3    2    3 1   
     4    2    8 1   
     5    3    4 1   
     6    3   11 1   
     7    4    5 2   
     8    4   12 1   
     9    5    6 1   
    10    6    7 1   
    11    6    8 2   
    12    7   13 1   
    13    7   14 1   
    14    8    9 1   
    15    9   10 2   
    16   10   15 1   
    17   11   16 1   
    18   11   17 1   
    19   11   18 1   
@<TRIPOS>SUBSTRUCTURE
     1 ADK         1 TEMP              0 ****  ****    0 ROOT
