@<TRIPOS>MOLECULE
ADK
   18    14     1     0     0
SMALL
bcc


@<TRIPOS>ATOM
      1 N9         -2.1520   -0.0050    0.2150 n2        1 ADK     -0.202000
      2 C4         -0.7920   -0.0050    0.2150 c1        1 ADK     -0.004000
      3 N3          0.1210   -0.0050    1.2270 n2        1 ADK     -0.143000
      4 C2          1.4550   -0.0050    0.9420 c1        1 ADK      0.084000
      5 N1          1.8770   -0.0050   -0.3560 n1        1 ADK     -0.251000
      6 C6          0.9800   -0.0050   -1.3550 c1        1 ADK      0.255000
      7 N6          1.6850    0.0080   -2.5860 n2        1 ADK     -0.340000
      8 C5         -0.3760   -0.0050   -1.0680 c1        1 ADK     -0.247000
      9 N7         -1.4770   -0.0050   -1.8660 n1        1 ADK     -0.160000
     10 C8         -2.5700   -0.0050   -1.0700 c1        1 ADK     -0.105000
     11 C3A        -0.2390    0.0050    2.6040 c3        1 ADK     -0.083000
     12 HC2         2.1090   -0.0050    1.6670 ha        1 ADK      0.191000
     13 HN61        1.9090    0.8020   -2.9750 hn        1 ADK      0.250500
     14 HN62        1.9330   -0.7780   -2.9780 hn        1 ADK      0.250500
     15 H8         -3.4990   -0.0070   -1.3710 DU        1 ADK      0.189000
     16 H3A1        0.0980    0.8200    3.0220 h1        1 ADK      0.105000
     17 H3A2       -1.2110   -0.0250    2.6870 h1        1 ADK      0.105000
     18 H3A3        0.1500   -0.7730    3.0480 h1        1 ADK      0.105000
@<TRIPOS>BOND
     1    1    2 1   
     2    1   10 1   
     3    2    8 1   
     4    3    4 1   
     5    3   11 1   
     6    4   12 1   
     7    5    6 1   
     8    6    8 1   
     9    7   13 1   
    10    7   14 1   
    11    9   10 1   
    12   11   16 1   
    13   11   17 1   
    14   11   18 1   
@<TRIPOS>SUBSTRUCTURE
     1 ADK         1 TEMP              0 ****  ****    0 ROOT
