@<TRIPOS>MOLECULE
ADK
   19    20     1     0     0
SMALL
bcc


@<TRIPOS>ATOM
      1 N9         -0.0510    0.0950    0.0940 nc        1 ADK     -0.384300
      2 C4          1.3060    0.0370    0.0650 cd        1 ADK      0.028700
      3 N3          2.2680   -0.0250    1.0440 na        1 ADK     -0.138900
      4 C2          3.5950   -0.0740    0.6300 cc        1 ADK      0.556400
      5 N1          4.0400   -0.0670   -0.6230 nd        1 ADK     -0.693000
      6 C6          3.1120   -0.0050   -1.6480 cc        1 ADK      0.488200
      7 N6          3.6130    0.0030   -3.0320 n4        1 ADK     -0.808300
      8 C5          1.7520    0.0490   -1.4050 cd        1 ADK     -0.015900
      9 N7          0.6060    0.1140   -2.1800 nd        1 ADK     -0.628100
     10 C8         -0.4100    0.1390   -1.2690 cc        1 ADK      0.675200
     11 C3A         1.8980   -0.0390    2.4450 c3        1 ADK     -0.007400
     12 HC2         4.3690   -0.1240    1.4330 h5        1 ADK      0.099100
     13 HN61        2.8120    0.0500   -3.6780 hn        1 ADK      0.479800
     14 HN62        4.1530   -0.8540   -3.2130 hn        1 ADK      0.479800
     15 H8         -1.4730    0.1910   -1.5630 h5        1 ADK      0.105800
     16 H3A1        1.3220    0.8970    2.6840 h1        1 ADK      0.094700
     17 H3A2        1.2440   -0.9320    2.6460 h1        1 ADK      0.094700
     18 H3A3        2.8190   -0.0920    3.0840 h1        1 ADK      0.094700
     19 H63         4.2220    0.8180   -3.1780 hn        1 ADK      0.479800
@<TRIPOS>BOND
     1    1    2 2   
     2    1   10 1   
     3    2    3 1   
     4    2    8 1   
     5    3    4 1   
     6    3   11 1   
     7    4    5 2   
     8    4   12 1   
     9    5    6 1   
    10    6    7 1   
    11    6    8 2   
    12    7   13 1   
    13    7   14 1   
    14    7   19 1   
    15    8    9 1   
    16    9   10 2   
    17   10   15 1   
    18   11   16 1   
    19   11   17 1   
    20   11   18 1   
@<TRIPOS>SUBSTRUCTURE
     1 ADK         1 TEMP              0 ****  ****    0 ROOT
