@<TRIPOS>MOLECULE
ADL
   32    34     1     0     0
SMALL
bcc


@<TRIPOS>ATOM
      1 C1          0.9640   -0.0880   -5.0110 ca        1 ADL     -0.072000
      2 C2          1.6920    0.2320   -3.8660 ca        1 ADL     -0.198000
      3 C3          1.0710    0.2420   -2.6140 ca        1 ADL      0.016700
      4 C4         -0.2960   -0.0660   -2.4890 ca        1 ADL     -0.237600
      5 C5         -1.0210   -0.3780   -3.6600 ca        1 ADL      0.201100
      6 C6         -0.3850   -0.3940   -4.9200 ca        1 ADL     -0.198000
      7 C7         -0.9280   -0.0620   -1.1530 c         1 ADL      0.627300
      8 C8         -0.0570   -0.1070    0.0190 ca        1 ADL     -0.260600
      9 C9          1.3190    0.1790   -0.1230 ca        1 ADL     -0.039300
     10 C10         1.8810    0.6160   -1.4270 c3        1 ADL     -0.004800
     11 C11        -0.5420   -0.4440    1.3040 ca        1 ADL      0.183100
     12 C12         0.3270   -0.5280    2.4250 ca        1 ADL     -0.054300
     13 C13         1.6800   -0.2600    2.2310 ca        1 ADL     -0.065000
     14 C14         2.1700    0.0960    0.9720 ca        1 ADL     -0.182000
     15 C15        -0.1940   -0.8990    3.7620 c3        1 ADL     -0.169100
     16 C16         0.5140   -0.1830    4.9350 c         1 ADL      0.914600
     17 O1         -2.3500   -0.6930   -3.7100 oh        1 ADL     -0.515100
     18 O2         -2.1760   -0.0410   -1.0570 o         1 ADL     -0.634100
     19 O3         -1.8490   -0.7710    1.5540 oh        1 ADL     -0.501100
     20 O5          1.7440   -0.4160    5.1320 o         1 ADL     -0.840300
     21 O4         -0.1850    0.5740    5.6620 o         1 ADL     -0.840300
     22 HC1         1.4620   -0.0980   -5.9920 ha        1 ADL      0.126000
     23 HC2         2.7610    0.4740   -3.9450 ha        1 ADL      0.131000
     24 HC6        -0.9780   -0.6480   -5.8100 ha        1 ADL      0.145000
     25 H101        1.9810    1.7400   -1.4110 hc        1 ADL      0.065700
     26 H102        2.9210    0.1990   -1.5420 hc        1 ADL      0.065700
     27 HC13        2.3540   -0.3130    3.1130 ha        1 ADL      0.208000
     28 HC14        3.2400    0.3200    0.8530 ha        1 ADL      0.123000
     29 H151       -0.0510   -2.0030    3.9070 hc        1 ADL      0.052200
     30 H152       -1.2920   -0.6800    3.8220 hc        1 ADL      0.052200
     31 HO1        -2.7430   -0.6530   -2.8220 ho        1 ADL      0.462000
     32 HO3        -2.4220   -0.3630    0.8880 ho        1 ADL      0.441000
@<TRIPOS>BOND
     1    1    2 ar  
     2    1    6 ar  
     3    1   22 1   
     4    2    3 ar  
     5    2   23 1   
     6    3    4 ar  
     7    3   10 1   
     8    4    5 ar  
     9    4    7 1   
    10    5    6 ar  
    11    5   17 1   
    12    6   24 1   
    13    7    8 1   
    14    7   18 2   
    15    8    9 ar  
    16    8   11 ar  
    17    9   10 1   
    18    9   14 ar  
    19   10   25 1   
    20   10   26 1   
    21   11   12 ar  
    22   11   19 1   
    23   12   13 ar  
    24   12   15 1   
    25   13   14 ar  
    26   13   27 1   
    27   14   28 1   
    28   15   16 1   
    29   15   29 1   
    30   15   30 1   
    31   16   20 1   
    32   16   21 1   
    33   17   31 1   
    34   19   32 1   
@<TRIPOS>SUBSTRUCTURE
     1 ADL         1 TEMP              0 ****  ****    0 ROOT
