@<TRIPOS>MOLECULE
ADL
   32    29     1     0     0
SMALL
bcc


@<TRIPOS>ATOM
      1 C1         -3.4470   -0.0530   -3.2500 c1        1 ADL     -0.161500
      2 C2         -2.0570   -0.0480   -3.2660 c1        1 ADL     -0.186000
      3 C3         -1.3420    0.0330   -2.0620 c1        1 ADL      0.005000
      4 C4         -2.0200    0.1060   -0.8610 c1        1 ADL     -0.151000
      5 C5         -3.4230    0.1010   -0.8460 c1        1 ADL      0.128000
      6 C6         -4.1300    0.0210   -2.0390 c1        1 ADL     -0.161500
      7 C7         -1.2410    0.1920    0.4530 c2        1 ADL      0.332000
      8 C8          0.2870    0.1350    0.4400 c2        1 ADL     -0.200000
      9 C9          0.9610    0.0040   -0.7560 c2        1 ADL     -0.036000
     10 C10         0.1940    0.1000   -2.0840 c3        1 ADL     -0.090000
     11 C11         1.0000    0.1630    1.6480 c1        1 ADL      0.179000
     12 C12         2.3860    0.0600    1.6390 c1        1 ADL     -0.099000
     13 C13         3.0660   -0.0710    0.4320 c1        1 ADL     -0.086000
     14 C14         2.3600   -0.1000   -0.7640 c1        1 ADL     -0.191000
     15 C15         3.3010    0.2180    2.8330 c3        1 ADL     -0.217000
     16 C16         3.3760   -1.0920    3.5870 c2        1 ADL      0.337000
     17 O1         -4.0570    0.0060    0.4070 oh        1 ADL     -0.214000
     18 O2         -1.8370    0.2570    1.5100 o         1 ADL     -0.265000
     19 O3          0.1840    0.5500    2.7260 oh        1 ADL     -0.269000
     20 O5          3.7970   -2.1270    3.0090 o         1 ADL     -0.565500
     21 O4          3.0240   -1.1440    4.7950 o         1 ADL     -0.565500
     22 HC1        -3.9840   -0.0740   -4.0660 ha        1 ADL      0.124000
     23 HC2        -1.7120   -0.0900   -4.1800 ha        1 ADL      0.127000
     24 HC6        -5.0950    0.1320   -2.1530 ha        1 ADL      0.124000
     25 H101        0.4450    0.9460   -2.5060 hc        1 ADL      0.096500
     26 H102        0.5110   -0.6250   -2.6580 hc        1 ADL      0.096500
     27 HC13        4.0390   -0.1440    0.4260 ha        1 ADL      0.132000
     28 HC14        2.8380   -0.1920   -1.6100 ha        1 ADL      0.114000
     29 H151        2.9500    0.9140    3.4240 hc        1 ADL      0.082000
     30 H152        4.1950    0.4700    2.5280 hc        1 ADL      0.082000
     31 HO1        -4.9380   -0.0390    0.2910 ho        1 ADL      0.207000
     32 HO3         0.3700    1.3900    2.9530 ho        1 ADL      0.292000
@<TRIPOS>BOND
     1    1    6 1   
     2    1   22 1   
     3    2    3 1   
     4    2   23 1   
     5    3   10 1   
     6    4    5 1   
     7    4    7 1   
     8    5   17 1   
     9    6   24 1   
    10    7    8 1   
    11    7   18 1   
    12    8    9 1   
    13    8   11 1   
    14    9   10 1   
    15    9   14 1   
    16   10   25 1   
    17   10   26 1   
    18   11   19 1   
    19   12   13 1   
    20   12   15 1   
    21   13   27 1   
    22   14   28 1   
    23   15   16 1   
    24   15   29 1   
    25   15   30 1   
    26   16   20 1   
    27   16   21 1   
    28   17   31 1   
    29   19   32 1   
@<TRIPOS>SUBSTRUCTURE
     1 ADL         1 TEMP              0 ****  ****    0 ROOT
