@<TRIPOS>MOLECULE
ADL
   32    34     1     0     0
SMALL
bcc


@<TRIPOS>ATOM
      1 C1          0.0600   -0.1190   -0.1070 ca        1 ADL     -0.072000
      2 C2          1.4330    0.0850   -0.0110 ca        1 ADL     -0.189000
      3 C3          2.0580    0.1200    1.2420 ca        1 ADL      0.009700
      4 C4          1.3070   -0.0380    2.4150 ca        1 ADL     -0.177600
      5 C5         -0.0830   -0.2560    2.2990 ca        1 ADL      0.176100
      6 C6         -0.7070   -0.2950    1.0410 ca        1 ADL     -0.248000
      7 C7          1.9680    0.0220    3.7390 c         1 ADL      0.614300
      8 C8          3.4030   -0.2850    3.7600 ca        1 ADL     -0.262600
      9 C9          4.1510   -0.1600    2.5700 ca        1 ADL     -0.046300
     10 C10         3.5240    0.3470    1.3200 c3        1 ADL     -0.001800
     11 C11         4.0660   -0.7080    4.9320 ca        1 ADL      0.179100
     12 C12         5.4510   -1.0300    4.9230 ca        1 ADL     -0.052300
     13 C13         6.1450   -0.9100    3.7220 ca        1 ADL     -0.071000
     14 C14         5.5050   -0.4730    2.5590 ca        1 ADL     -0.181000
     15 C15         6.1250   -1.4930    6.1600 c3        1 ADL     -0.167100
     16 C16         7.6150   -1.0970    6.2620 c         1 ADL      0.913600
     17 O1         -0.7930   -0.4450    3.4580 oh        1 ADL     -0.461100
     18 O2          1.3180    0.3170    4.7570 o         1 ADL     -0.567100
     19 O3          3.4350   -0.8850    6.1360 oh        1 ADL     -0.500100
     20 O5          8.4270   -1.5680    5.4120 o         1 ADL     -0.842300
     21 O4          7.9540   -0.3490    7.2180 o         1 ADL     -0.842300
     22 HC1        -0.4250   -0.1470   -1.0940 ha        1 ADL      0.125000
     23 HC2         2.0360    0.2140   -0.9210 ha        1 ADL      0.132000
     24 HC6        -1.7890   -0.4640    0.9700 ha        1 ADL      0.128000
     25 H101        4.0240   -0.1260    0.4290 hc        1 ADL      0.063200
     26 H102        3.7140    1.4570    1.2500 hc        1 ADL      0.063200
     27 HC13        7.2290   -1.1550    3.7180 ha        1 ADL      0.206000
     28 HC14        6.0850   -0.3740    1.6300 ha        1 ADL      0.120000
     29 H151        5.5880   -1.0910    7.0590 hc        1 ADL      0.051200
     30 H152        6.0710   -2.6130    6.1950 hc        1 ADL      0.051200
     31 HO1        -1.7240   -0.5690    3.2180 ho        1 ADL      0.409000
     32 HO3         2.5760   -0.4370    6.1260 ho        1 ADL      0.440000
@<TRIPOS>BOND
     1    1    2 ar  
     2    1    6 ar  
     3    1   22 1   
     4    2    3 ar  
     5    2   23 1   
     6    3    4 ar  
     7    3   10 1   
     8    4    5 ar  
     9    4    7 1   
    10    5    6 ar  
    11    5   17 1   
    12    6   24 1   
    13    7    8 1   
    14    7   18 2   
    15    8    9 ar  
    16    8   11 ar  
    17    9   10 1   
    18    9   14 ar  
    19   10   25 1   
    20   10   26 1   
    21   11   12 ar  
    22   11   19 1   
    23   12   13 ar  
    24   12   15 1   
    25   13   14 ar  
    26   13   27 1   
    27   14   28 1   
    28   15   16 1   
    29   15   29 1   
    30   15   30 1   
    31   16   20 1   
    32   16   21 1   
    33   17   31 1   
    34   19   32 1   
@<TRIPOS>SUBSTRUCTURE
     1 ADL         1 TEMP              0 ****  ****    0 ROOT
