@<TRIPOS>MOLECULE
ADL
   32    34     1     0     0
SMALL
bcc


@<TRIPOS>ATOM
      1 C1          0.0620   -0.0850   -0.1050 ca        1 ADL     -0.072000
      2 C2          1.4310    0.1380   -0.0010 ca        1 ADL     -0.189000
      3 C3          2.0530    0.1500    1.2540 ca        1 ADL      0.009700
      4 C4          1.3020   -0.0500    2.4200 ca        1 ADL     -0.177600
      5 C5         -0.0840   -0.2870    2.2960 ca        1 ADL      0.176100
      6 C6         -0.7040   -0.3030    1.0360 ca        1 ADL     -0.248000
      7 C7          1.9590   -0.0140    3.7480 c         1 ADL      0.614300
      8 C8          3.3990   -0.2980    3.7650 ca        1 ADL     -0.262600
      9 C9          4.1480   -0.1310    2.5800 ca        1 ADL     -0.046300
     10 C10         3.5160    0.3990    1.3410 c3        1 ADL     -0.001800
     11 C11         4.0660   -0.7400    4.9270 ca        1 ADL      0.179100
     12 C12         5.4560   -1.0400    4.9130 ca        1 ADL     -0.052300
     13 C13         6.1510   -0.8790    3.7170 ca        1 ADL     -0.071000
     14 C14         5.5060   -0.4220    2.5640 ca        1 ADL     -0.181000
     15 C15         6.1340   -1.5240    6.1390 c3        1 ADL     -0.167100
     16 C16         7.6180   -1.1080    6.2550 c         1 ADL      0.913600
     17 O1         -0.7930   -0.5170    3.4470 oh        1 ADL     -0.461100
     18 O2          1.3030    0.2450    4.7710 o         1 ADL     -0.567100
     19 O3          3.4360   -0.9590    6.1240 oh        1 ADL     -0.500100
     20 O5          8.4400   -1.5440    5.3950 o         1 ADL     -0.842300
     21 O4          7.9430   -0.3790    7.2310 o         1 ADL     -0.842300
     22 HC1        -0.4200   -0.0950   -1.0950 ha        1 ADL      0.125000
     23 HC2         2.0340    0.3000   -0.9060 ha        1 ADL      0.132000
     24 HC6        -1.7840   -0.4860    0.9570 ha        1 ADL      0.128000
     25 H101        3.6880    1.5130    1.3010 hc        1 ADL      0.063200
     26 H102        4.0240   -0.0440    0.4410 hc        1 ADL      0.063200
     27 HC13        7.2380   -1.1060    3.7100 ha        1 ADL      0.206000
     28 HC14        6.0860   -0.2890    1.6400 ha        1 ADL      0.120000
     29 H151        5.5900   -1.1550    7.0470 hc        1 ADL      0.051200
     30 H152        6.0980   -2.6460    6.1460 hc        1 ADL      0.051200
     31 HO1        -1.7220   -0.6480    3.2020 ho        1 ADL      0.409000
     32 HO3         2.5700   -0.5240    6.1230 ho        1 ADL      0.440000
@<TRIPOS>BOND
     1    1    2 ar  
     2    1    6 ar  
     3    1   22 1   
     4    2    3 ar  
     5    2   23 1   
     6    3    4 ar  
     7    3   10 1   
     8    4    5 ar  
     9    4    7 1   
    10    5    6 ar  
    11    5   17 1   
    12    6   24 1   
    13    7    8 1   
    14    7   18 2   
    15    8    9 ar  
    16    8   11 ar  
    17    9   10 1   
    18    9   14 ar  
    19   10   25 1   
    20   10   26 1   
    21   11   12 ar  
    22   11   19 1   
    23   12   13 ar  
    24   12   15 1   
    25   13   14 ar  
    26   13   27 1   
    27   14   28 1   
    28   15   16 1   
    29   15   29 1   
    30   15   30 1   
    31   16   20 1   
    32   16   21 1   
    33   17   31 1   
    34   19   32 1   
@<TRIPOS>SUBSTRUCTURE
     1 ADL         1 TEMP              0 ****  ****    0 ROOT
