@<TRIPOS>MOLECULE
ADM
   26    28     1     0     0
SMALL
bcc


@<TRIPOS>ATOM
      1 C1         -1.4920    0.1860    0.2680 c3        1 ADM     -0.061700
      2 C2         -0.6870    1.0130    1.2660 c3        1 ADM     -0.068400
      3 C3          0.8040    0.8280    1.0000 c3        1 ADM     -0.061700
      4 C4          1.1260    1.2870   -0.4190 c3        1 ADM     -0.068400
      5 C5          0.3240    0.4600   -1.4190 c3        1 ADM     -0.061700
      6 C6          0.6870   -1.0140   -1.2660 c3        1 ADM     -0.068400
      7 C7          0.3640   -1.4750    0.1520 c3        1 ADM     -0.061700
      8 C8         -1.1260   -1.2870    0.4190 c3        1 ADM     -0.068400
      9 C9         -1.1670    0.6460   -1.1500 c3        1 ADM     -0.068400
     10 C10         1.1670   -0.6460    1.1500 c3        1 ADM     -0.068400
     11 H1         -2.5880    0.3230    0.4650 hc        1 ADM      0.046700
     12 H21        -0.9580    2.0950    1.1680 hc        1 ADM      0.039700
     13 H22        -0.9290    0.6890    2.3100 hc        1 ADM      0.039700
     14 H3          1.3950    1.4370    1.7340 hc        1 ADM      0.046700
     15 H41         0.8730    2.3720   -0.5340 hc        1 ADM      0.039700
     16 H42         2.2210    1.1650   -0.6180 hc        1 ADM      0.039700
     17 H5          0.5610    0.7990   -2.4630 hc        1 ADM      0.046700
     18 H61         1.7780   -1.1590   -1.4730 hc        1 ADM      0.039700
     19 H62         0.1100   -1.6260   -2.0050 hc        1 ADM      0.039700
     20 H7          0.6310   -2.5590    0.2640 hc        1 ADM      0.046700
     21 H81        -1.3730   -1.6350    1.4550 hc        1 ADM      0.039700
     22 H82        -1.7220   -1.9020   -0.3030 hc        1 ADM      0.039700
     23 H91        -1.7620    0.0500   -1.8880 hc        1 ADM      0.039700
     24 H92        -1.4430    1.7240   -1.2720 hc        1 ADM      0.039700
     25 H101        0.9430   -0.9870    2.1930 hc        1 ADM      0.039700
     26 H102        2.2620   -0.7880    0.9670 hc        1 ADM      0.039700
@<TRIPOS>BOND
     1    1    2 1   
     2    1    8 1   
     3    1    9 1   
     4    1   11 1   
     5    2    3 1   
     6    2   12 1   
     7    2   13 1   
     8    3    4 1   
     9    3   10 1   
    10    3   14 1   
    11    4    5 1   
    12    4   15 1   
    13    4   16 1   
    14    5    6 1   
    15    5    9 1   
    16    5   17 1   
    17    6    7 1   
    18    6   18 1   
    19    6   19 1   
    20    7    8 1   
    21    7   10 1   
    22    7   20 1   
    23    8   21 1   
    24    8   22 1   
    25    9   23 1   
    26    9   24 1   
    27   10   25 1   
    28   10   26 1   
@<TRIPOS>SUBSTRUCTURE
     1 ADM         1 TEMP              0 ****  ****    0 ROOT
