@<TRIPOS>MOLECULE
ADN
   33    35     1     0     0
SMALL
bcc


@<TRIPOS>ATOM
      1 O5'         0.5840   -1.7890    0.4620 oh        1 ADN     -0.602800
      2 C5'         1.8710   -1.2490    0.2460 c3        1 ADN      0.110400
      3 C4'         2.1960   -0.1530    1.2610 c3        1 ADN      0.082100
      4 O4'         1.5400   -0.4320    2.5120 os        1 ADN     -0.396600
      5 C3'         3.7050   -0.0370    1.5320 c3        1 ADN      0.089100
      6 O3'         4.0470    1.3280    1.3960 oh        1 ADN     -0.583800
      7 C2'         3.9050   -0.4910    2.9990 c3        1 ADN      0.088100
      8 O2'         4.4630    0.5190    3.7950 oh        1 ADN     -0.564800
      9 C1'         2.4680   -0.8470    3.5060 c3        1 ADN      0.214800
     10 N9          2.2700   -2.2640    3.7940 na        1 ADN     -0.273000
     11 C8          1.3740   -3.1580    3.1690 cc        1 ADN      0.519700
     12 N7          1.3190   -4.3750    3.7500 nd        1 ADN     -0.598100
     13 C5          2.2030   -4.3000    4.8260 ca        1 ADN     -0.130200
     14 C6          2.6070   -5.1940    5.8320 ca        1 ADN      0.508200
     15 N6          2.0240   -6.5480    5.8390 n4        1 ADN     -0.813300
     16 N1          3.5040   -4.8470    6.7890 nb        1 ADN     -0.678000
     17 C2          3.9990   -3.5770    6.7310 ca        1 ADN      0.666900
     18 N3          3.7180   -2.5940    5.8350 nb        1 ADN     -0.610000
     19 C4          2.8230   -2.9520    4.8850 ca        1 ADN      0.449800
     20 HO5'       -0.0520   -1.0620    0.4180 ho        1 ADN      0.424000
     21 H5'1        2.5620   -2.1290    0.3480 h1        1 ADN      0.065700
     22 H5'2        1.9550   -0.8270   -0.7910 h1        1 ADN      0.065700
     23 H4'         1.7650    0.8360    0.9350 h1        1 ADN      0.118700
     24 H3'         4.3060   -0.6690    0.8280 h1        1 ADN      0.075700
     25 HO3'        5.0110    1.3900    1.4600 ho        1 ADN      0.432000
     26 H2'         4.6200   -1.3520    3.0820 h1        1 ADN      0.107700
     27 HO2'        3.9830    1.3450    3.6240 ho        1 ADN      0.431000
     28 H1'         2.2120   -0.2670    4.4460 h2        1 ADN      0.125700
     29 H8          0.7890   -2.8440    2.2770 h5        1 ADN      0.143800
     30 HN61        1.0090   -6.4650    5.9750 hn        1 ADN      0.477133
     31 HN62        2.2060   -6.9860    4.9270 hn        1 ADN      0.477133
     32 H2          4.7330   -3.3150    7.5290 h5        1 ADN      0.100100
     33 H63         2.4280   -7.1250    6.5890 hn        1 ADN      0.477133
@<TRIPOS>BOND
     1    1    2 1   
     2    1   20 1   
     3    2    3 1   
     4    2   21 1   
     5    2   22 1   
     6    3    4 1   
     7    3    5 1   
     8    3   23 1   
     9    4    9 1   
    10    5    6 1   
    11    5    7 1   
    12    5   24 1   
    13    6   25 1   
    14    7    8 1   
    15    7    9 1   
    16    7   26 1   
    17    8   27 1   
    18    9   10 1   
    19    9   28 1   
    20   10   11 1   
    21   10   19 1   
    22   11   12 2   
    23   11   29 1   
    24   12   13 1   
    25   13   14 ar  
    26   13   19 ar  
    27   14   15 1   
    28   14   16 ar  
    29   15   30 1   
    30   15   31 1   
    31   15   33 1   
    32   16   17 ar  
    33   17   18 ar  
    34   17   32 1   
    35   18   19 ar  
@<TRIPOS>SUBSTRUCTURE
     1 ADN         1 TEMP              0 ****  ****    0 ROOT
