@<TRIPOS>MOLECULE
ADN
   32    34     1     0     0
SMALL
bcc


@<TRIPOS>ATOM
      1 O5'         0.5010   -1.4470    0.2810 oh        1 ADN     -0.590800
      2 C5'         1.9000   -1.2570    0.3950 c3        1 ADN      0.106400
      3 C4'         2.1280   -0.0680    1.3280 c3        1 ADN      0.092100
      4 O4'         1.4420   -0.2560    2.5730 os        1 ADN     -0.384600
      5 C3'         3.6320    0.0990    1.6410 c3        1 ADN      0.128100
      6 O3'         4.0640    1.4170    1.4230 oh        1 ADN     -0.573800
      7 C2'         3.7900   -0.3790    3.1040 c3        1 ADN      0.081100
      8 O2'         4.2650    0.7020    3.8760 oh        1 ADN     -0.591800
      9 C1'         2.3400   -0.7400    3.5720 c3        1 ADN      0.219800
     10 N9          2.1330   -2.1550    3.7890 na        1 ADN     -0.296000
     11 C8          1.1560   -2.9960    3.1990 cc        1 ADN      0.423700
     12 N7          1.1690   -4.2450    3.6850 nd        1 ADN     -0.553100
     13 C5          2.1880   -4.2550    4.6510 ca        1 ADN     -0.227200
     14 C6          2.6990   -5.2740    5.5240 ca        1 ADN      0.761200
     15 N6          2.1920   -6.5460    5.4710 nh        1 ADN     -0.955500
     16 N1          3.7210   -4.9540    6.3890 nb        1 ADN     -0.795000
     17 C2          4.2010   -3.6830    6.3540 ca        1 ADN      0.687900
     18 N3          3.8310   -2.6290    5.5880 nb        1 ADN     -0.757000
     19 C4          2.8080   -2.9390    4.7350 ca        1 ADN      0.448800
     20 HO5'        0.3680   -2.0900   -0.4260 ho        1 ADN      0.405000
     21 H5'1        2.3700   -2.1860    0.8180 h1        1 ADN      0.036200
     22 H5'2        2.3540   -1.0310   -0.6060 h1        1 ADN      0.036200
     23 H4'         1.6780    0.8650    0.8930 h1        1 ADN      0.106700
     24 H3'         4.2650   -0.5240    0.9510 h1        1 ADN      0.091700
     25 HO3'        3.7390    1.9670    2.1500 ho        1 ADN      0.426000
     26 H2'         4.4910   -1.2520    3.1670 h1        1 ADN      0.083700
     27 HO2'        4.5720    0.3330    4.7150 ho        1 ADN      0.432000
     28 H1'         2.0710   -0.1820    4.5200 h2        1 ADN      0.106700
     29 H8          0.4840   -2.5990    2.4200 h5        1 ADN      0.102800
     30 HN61        1.3910   -6.7130    4.9130 hn        1 ADN      0.447800
     31 HN62        2.4820   -7.2290    6.1260 hn        1 ADN      0.447800
     32 H2          5.0270   -3.4830    7.0710 h5        1 ADN      0.051100
@<TRIPOS>BOND
     1    1    2 1   
     2    1   20 1   
     3    2    3 1   
     4    2   21 1   
     5    2   22 1   
     6    3    4 1   
     7    3    5 1   
     8    3   23 1   
     9    4    9 1   
    10    5    6 1   
    11    5    7 1   
    12    5   24 1   
    13    6   25 1   
    14    7    8 1   
    15    7    9 1   
    16    7   26 1   
    17    8   27 1   
    18    9   10 1   
    19    9   28 1   
    20   10   11 1   
    21   10   19 1   
    22   11   12 2   
    23   11   29 1   
    24   12   13 1   
    25   13   14 ar  
    26   13   19 ar  
    27   14   15 1   
    28   14   16 ar  
    29   15   30 1   
    30   15   31 1   
    31   16   17 ar  
    32   17   18 ar  
    33   17   32 1   
    34   18   19 ar  
@<TRIPOS>SUBSTRUCTURE
     1 ADN         1 TEMP              0 ****  ****    0 ROOT
