@<TRIPOS>MOLECULE
ADN
   32    30     1     0     0
SMALL
bcc


@<TRIPOS>ATOM
      1 O5'        -2.4400    2.7900   -3.0840 oh        1 ADN     -0.587800
      2 C5'        -1.1800    2.1520   -3.0450 c3        1 ADN      0.113400
      3 C4'        -0.6520    2.1570   -1.6050 c3        1 ADN      0.087100
      4 O4'        -1.0150    1.0730   -0.9890 os        1 ADN     -0.420600
      5 C3'         0.8910    2.1260   -1.6010 c3        1 ADN      0.133100
      6 O3'         1.3830    3.3130   -1.1810 oh        1 ADN     -0.586800
      7 C2'         1.2810    1.0000   -0.6090 c3        1 ADN      0.086100
      8 O2'         2.3030    1.4900    0.3510 oh        1 ADN     -0.597800
      9 C1'         0.1830    0.7080    0.0130 c3        1 ADN      0.230800
     10 N9          0.1520   -0.6890    0.3310 n3        1 ADN     -0.136400
     11 C8          0.1790   -1.7280   -0.5400 c1        1 ADN      0.188400
     12 N7         -0.0640   -2.8680    0.1590 ne        1 ADN     -0.389400
     13 C5         -0.2430   -2.5280    1.4760 cg        1 ADN     -0.186000
     14 C6         -0.4630   -3.2910    2.6090 c1        1 ADN      0.628600
     15 N6         -0.4240   -4.6780    2.8410 n3        1 ADN     -0.820400
     16 N1         -0.5450   -2.6960    3.8190 n1        1 ADN     -0.594800
     17 C2         -0.4110   -1.3430    3.9260 c1        1 ADN      0.414300
     18 N3         -0.1940   -0.5880    2.8110 n1        1 ADN     -0.567800
     19 C4         -0.1110   -1.1890    1.5820 c1        1 ADN      0.006700
     20 HO5'       -2.8040    2.6830   -3.8950 ho        1 ADN      0.407000
     21 H5'1       -1.2720    1.2320   -3.3540 h1        1 ADN      0.055700
     22 H5'2       -0.5600    2.6250   -3.6170 h1        1 ADN      0.055700
     23 H4'        -0.9780    2.9480   -1.1250 h1        1 ADN      0.115700
     24 H3'         1.2340    1.9130   -2.5210 h1        1 ADN      0.060700
     25 HO3'        1.9020    3.6630   -1.8190 ho        1 ADN      0.433000
     26 H2'         1.6150    0.2210   -1.0920 h1        1 ADN      0.077700
     27 HO2'        3.0850    1.1020    0.1760 ho        1 ADN      0.442000
     28 H1'         0.1100    1.2380    0.8290 h2        1 ADN      0.103700
     29 H8          0.3660   -1.6700   -1.4950 DU        1 ADN      0.212000
     30 HN61       -0.4040   -5.2550    2.1390 hn        1 ADN      0.451800
     31 HN62       -0.4550   -5.0010    3.6990 hn        1 ADN      0.451800
     32 H2         -0.4710   -0.9090    4.8110 ha        1 ADN      0.131500
@<TRIPOS>BOND
     1    1    2 1   
     2    1   20 1   
     3    2    3 1   
     4    2   21 1   
     5    2   22 1   
     6    3    4 1   
     7    3    5 1   
     8    3   23 1   
     9    4    9 1   
    10    5    6 1   
    11    5    7 1   
    12    5   24 1   
    13    6   25 1   
    14    7    8 1   
    15    7    9 1   
    16    7   26 1   
    17    8   27 1   
    18    9   10 1   
    19    9   28 1   
    20   10   11 2   
    21   10   19 1   
    22   11   12 2   
    23   12   13 1   
    24   13   19 3   
    25   14   15 1   
    26   14   16 3   
    27   15   30 1   
    28   15   31 1   
    29   17   18 3   
    30   17   32 1   
@<TRIPOS>SUBSTRUCTURE
     1 ADN         1 TEMP              0 ****  ****    0 ROOT
