@<TRIPOS>MOLECULE
ADN
   32    34     1     0     0
SMALL
bcc


@<TRIPOS>ATOM
      1 O5'        -2.4860    1.1220   -2.8530 oh        1 ADN     -0.588800
      2 C5'        -1.6730   -0.0250   -2.9520 c3        1 ADN      0.121400
      3 C4'        -0.1930    0.3530   -3.0040 c3        1 ADN      0.053100
      4 O4'         0.1750    1.0130   -1.7870 os        1 ADN     -0.415600
      5 C3'         0.7230   -0.8690   -3.1830 c3        1 ADN      0.086100
      6 O3'         1.5870   -0.7410   -4.2890 oh        1 ADN     -0.584800
      7 C2'         1.5280   -0.9780   -1.8670 c3        1 ADN      0.076100
      8 O2'         2.8970   -0.7050   -2.0880 oh        1 ADN     -0.585800
      9 C1'         1.0030    0.1790   -0.9600 c3        1 ADN      0.252800
     10 N9          0.2900   -0.2850    0.2020 na        1 ADN     -0.287000
     11 C8         -0.6750   -1.3260    0.2870 cc        1 ADN      0.395700
     12 N7         -1.2690   -1.4160    1.4820 nd        1 ADN     -0.532100
     13 C5         -0.7120   -0.3790    2.2470 ca        1 ADN     -0.240200
     14 C6         -0.9220    0.0550    3.5990 ca        1 ADN      0.766200
     15 N6         -1.8050   -0.6070    4.4080 nh        1 ADN     -0.959500
     16 N1         -0.2070    1.1360    4.0650 nb        1 ADN     -0.794000
     17 C2          0.6690    1.7250    3.2110 ca        1 ADN      0.691900
     18 N3          0.9740    1.4260    1.9250 nb        1 ADN     -0.733000
     19 C4          0.2640    0.3600    1.4530 ca        1 ADN      0.478800
     20 HO5'       -2.1860    1.6190   -2.0790 ho        1 ADN      0.417000
     21 H5'1       -1.9800   -0.5190   -3.9120 h1        1 ADN      0.050200
     22 H5'2       -1.8670   -0.7130   -2.0860 h1        1 ADN      0.050200
     23 H4'        -0.0250    1.1180   -3.8130 h1        1 ADN      0.099700
     24 H3'         0.1360   -1.8040   -3.3890 h1        1 ADN      0.095700
     25 HO3'        2.0970    0.0740   -4.1710 ho        1 ADN      0.421000
     26 H2'         1.4090   -1.9900   -1.3980 h1        1 ADN      0.069700
     27 HO2'        3.2200   -1.3770   -2.7050 ho        1 ADN      0.425000
     28 H1'         1.8500    0.8510   -0.6170 h2        1 ADN      0.144700
     29 H8         -0.8680   -1.9900   -0.5640 h5        1 ADN      0.066800
     30 HN61       -1.9850   -0.2890    5.3270 hn        1 ADN      0.450300
     31 HN62       -2.3430   -1.3450    4.0270 hn        1 ADN      0.450300
     32 H2          1.2210    2.5910    3.6380 h5        1 ADN      0.054100
@<TRIPOS>BOND
     1    1    2 1   
     2    1   20 1   
     3    2    3 1   
     4    2   21 1   
     5    2   22 1   
     6    3    4 1   
     7    3    5 1   
     8    3   23 1   
     9    4    9 1   
    10    5    6 1   
    11    5    7 1   
    12    5   24 1   
    13    6   25 1   
    14    7    8 1   
    15    7    9 1   
    16    7   26 1   
    17    8   27 1   
    18    9   10 1   
    19    9   28 1   
    20   10   11 1   
    21   10   19 1   
    22   11   12 2   
    23   11   29 1   
    24   12   13 1   
    25   13   14 ar  
    26   13   19 ar  
    27   14   15 1   
    28   14   16 ar  
    29   15   30 1   
    30   15   31 1   
    31   16   17 ar  
    32   17   18 ar  
    33   17   32 1   
    34   18   19 ar  
@<TRIPOS>SUBSTRUCTURE
     1 ADN         1 TEMP              0 ****  ****    0 ROOT
