@<TRIPOS>MOLECULE
ADN
   32    34     1     0     0
SMALL
bcc


@<TRIPOS>ATOM
      1 O5'        -0.1950   -0.8910    1.2200 oh        1 ADN     -0.588800
      2 C5'         1.1540   -0.9860    0.8240 c3        1 ADN      0.121400
      3 C4'         2.0320   -0.0250    1.6250 c3        1 ADN      0.053100
      4 O4'         1.9850   -0.3790    3.0130 os        1 ADN     -0.415600
      5 C3'         3.5010   -0.0500    1.1730 c3        1 ADN      0.086100
      6 O3'         3.9860    1.2300    0.8350 oh        1 ADN     -0.584800
      7 C2'         4.2910   -0.6390    2.3650 c3        1 ADN      0.076100
      8 O2'         5.1380    0.3350    2.9410 oh        1 ADN     -0.585800
      9 C1'         3.2200   -0.9690    3.4520 c3        1 ADN      0.252800
     10 N9          3.0710   -2.3800    3.6960 na        1 ADN     -0.287000
     11 C8          3.0150   -3.4380    2.7490 cc        1 ADN      0.395700
     12 N7          2.7190   -4.6280    3.2840 nd        1 ADN     -0.532100
     13 C5          2.5360   -4.3790    4.6530 ca        1 ADN     -0.240200
     14 C6          2.2070   -5.2290    5.7620 ca        1 ADN      0.766200
     15 N6          2.0280   -6.5720    5.5740 nv        1 ADN     -0.959500
     16 N1          2.0920   -4.6670    7.0140 nb        1 ADN     -0.794000
     17 C2          2.3090   -3.3310    7.1250 ca        1 ADN      0.691900
     18 N3          2.6290   -2.4140    6.1800 nb        1 ADN     -0.733000
     19 C4          2.7370   -2.9620    4.9340 ca        1 ADN      0.478800
     20 HO5'       -0.2240   -1.0440    2.1750 ho        1 ADN      0.417000
     21 H5'1        1.5210   -2.0410    0.9480 h1        1 ADN      0.050200
     22 H5'2        1.1620   -0.7020   -0.2620 h1        1 ADN      0.050200
     23 H4'         1.6010    1.0140    1.5740 h1        1 ADN      0.099700
     24 H3'         3.6400   -0.6600    0.2400 h1        1 ADN      0.095700
     25 HO3'        3.8580    1.8050    1.6040 ho        1 ADN      0.421000
     26 H2'         4.8910   -1.5340    2.0560 h1        1 ADN      0.069700
     27 HO2'        5.7660    0.5990    2.2540 ho        1 ADN      0.425000
     28 H1'         3.4590   -0.4570    4.4350 h2        1 ADN      0.144700
     29 H8          3.2270   -3.2600    1.6880 h5        1 ADN      0.066800
     30 HN61        1.7610   -7.1570    6.3260 hn        1 ADN      0.450300
     31 HN62        2.0630   -6.9360    4.6550 hn        1 ADN      0.450300
     32 H2          2.2050   -2.9290    8.1570 h5        1 ADN      0.054100
@<TRIPOS>BOND
     1    1    2 1   
     2    1   20 1   
     3    2    3 1   
     4    2   21 1   
     5    2   22 1   
     6    3    4 1   
     7    3    5 1   
     8    3   23 1   
     9    4    9 1   
    10    5    6 1   
    11    5    7 1   
    12    5   24 1   
    13    6   25 1   
    14    7    8 1   
    15    7    9 1   
    16    7   26 1   
    17    8   27 1   
    18    9   10 1   
    19    9   28 1   
    20   10   11 1   
    21   10   19 1   
    22   11   12 2   
    23   11   29 1   
    24   12   13 1   
    25   13   14 ar  
    26   13   19 ar  
    27   14   15 1   
    28   14   16 ar  
    29   15   30 1   
    30   15   31 1   
    31   16   17 ar  
    32   17   18 ar  
    33   17   32 1   
    34   18   19 ar  
@<TRIPOS>SUBSTRUCTURE
     1 ADN         1 TEMP              0 ****  ****    0 ROOT
