@<TRIPOS>MOLECULE
ADO
   25    27     1     0     0
SMALL
bcc


@<TRIPOS>ATOM
      1 C1         -0.6040   -0.3630   -1.2800 c3        1 ADO     -0.162700
      2 C2          0.8700   -0.3630   -1.2800 c         1 ADO      0.579100
      3 C3          1.4960   -0.3630    0.0510 c3        1 ADO     -0.162700
      4 C4          1.4950   -0.3900    0.0610 c3        1 ADO     -0.066400
      5 C5         -0.1610   -0.7040    0.3380 c3        1 ADO     -0.067700
      6 C6         -0.8100    0.7550    0.9140 c3        1 ADO     -0.071400
      7 C7         -0.8040    0.7650    0.9080 c3        1 ADO     -0.067700
      8 C8         -1.2660    0.6720   -0.4860 c3        1 ADO     -0.066400
      9 C9         -0.7560   -1.0040   -0.8520 c3        1 ADO     -0.066400
     10 C10         0.7860    0.5200    1.1380 c3        1 ADO     -0.066400
     11 O2          1.4800    0.0750   -2.2410 o         1 ADO     -0.526100
     12 H1         -0.9750   -0.4340   -2.1800 hc        1 ADO      0.076700
     13 H3          2.4330   -0.0990   -0.0260 hc        1 ADO      0.076700
     14 H41         1.9960   -0.4800    0.8930 hc        1 ADO      0.049700
     15 H42         1.8450   -1.0070   -0.6100 hc        1 ADO      0.049700
     16 H5         -0.2810   -1.4240    0.9850 hc        1 ADO      0.055700
     17 H61        -0.6400    0.8420    1.8720 hc        1 ADO      0.043700
     18 H62        -1.7700    0.7870    0.7410 hc        1 ADO      0.043700
     19 H7         -1.0610    1.6290    1.2830 hc        1 ADO      0.055700
     20 H81        -2.2250    0.4900   -0.4820 hc        1 ADO      0.049700
     21 H82        -1.1160    1.5340   -0.9180 hc        1 ADO      0.049700
     22 H91        -0.3480   -1.7940   -1.2550 hc        1 ADO      0.049700
     23 H92        -1.7170   -1.1260   -0.7390 hc        1 ADO      0.049700
     24 H101        0.9060    0.0920    2.0060 hc        1 ADO      0.049700
     25 H102        1.2280    1.3900    1.1610 hc        1 ADO      0.049700
@<TRIPOS>BOND
     1    1    2 1   
     2    1    8 1   
     3    1    9 1   
     4    1   12 1   
     5    2    3 1   
     6    2   11 2   
     7    3    4 1   
     8    3   10 1   
     9    3   13 1   
    10    4    5 1   
    11    4   14 1   
    12    4   15 1   
    13    5    6 1   
    14    5    9 1   
    15    5   16 1   
    16    6    7 1   
    17    6   17 1   
    18    6   18 1   
    19    7    8 1   
    20    7   10 1   
    21    7   19 1   
    22    8   20 1   
    23    8   21 1   
    24    9   22 1   
    25    9   23 1   
    26   10   24 1   
    27   10   25 1   
@<TRIPOS>SUBSTRUCTURE
     1 ADO         1 TEMP              0 ****  ****    0 ROOT
