@<TRIPOS>MOLECULE
ADO
   25    27     1     0     0
SMALL
bcc


@<TRIPOS>ATOM
      1 C1          1.2580    0.0200   -0.6040 c3        1 ADO     -0.162700
      2 C2         -0.0000   -0.0000   -1.4460 c         1 ADO      0.579100
      3 C3         -1.2590   -0.0200   -0.6040 c3        1 ADO     -0.162700
      4 C4         -1.2660    1.2290    0.2750 c3        1 ADO     -0.066400
      5 C5         -0.0200    1.2470    1.1550 c3        1 ADO     -0.067700
      6 C6         -0.0000    0.0010    2.0340 c3        1 ADO     -0.071400
      7 C7          0.0190   -1.2460    1.1550 c3        1 ADO     -0.067700
      8 C8          1.2660   -1.2280    0.2760 c3        1 ADO     -0.066400
      9 C9          1.2270    1.2680    0.2750 c3        1 ADO     -0.066400
     10 C10        -1.2280   -1.2670    0.2760 c3        1 ADO     -0.066400
     11 O2         -0.0000   -0.0000   -2.6770 o         1 ADO     -0.526100
     12 H1          2.1670    0.0340   -1.2620 hc        1 ADO      0.076700
     13 H3         -2.1670   -0.0340   -1.2620 hc        1 ADO      0.076700
     14 H41        -2.1850    1.2260    0.9160 hc        1 ADO      0.049700
     15 H42        -1.2950    2.1460   -0.3670 hc        1 ADO      0.049700
     16 H5         -0.0340    2.1640    1.8020 hc        1 ADO      0.055700
     17 H61         0.9050    0.0150    2.6920 hc        1 ADO      0.043700
     18 H62        -0.9060   -0.0130    2.6920 hc        1 ADO      0.043700
     19 H7          0.0340   -2.1630    1.8040 hc        1 ADO      0.055700
     20 H81         1.2940   -2.1460   -0.3660 hc        1 ADO      0.049700
     21 H82         2.1840   -1.2260    0.9170 hc        1 ADO      0.049700
     22 H91         2.1450    1.2940    0.9160 hc        1 ADO      0.049700
     23 H92         1.2270    2.1850   -0.3670 hc        1 ADO      0.049700
     24 H101       -1.2270   -2.1850   -0.3660 hc        1 ADO      0.049700
     25 H102       -2.1460   -1.2930    0.9160 hc        1 ADO      0.049700
@<TRIPOS>BOND
     1    1    2 1   
     2    1    8 1   
     3    1    9 1   
     4    1   12 1   
     5    2    3 1   
     6    2   11 2   
     7    3    4 1   
     8    3   10 1   
     9    3   13 1   
    10    4    5 1   
    11    4   14 1   
    12    4   15 1   
    13    5    6 1   
    14    5    9 1   
    15    5   16 1   
    16    6    7 1   
    17    6   17 1   
    18    6   18 1   
    19    7    8 1   
    20    7   10 1   
    21    7   19 1   
    22    8   20 1   
    23    8   21 1   
    24    9   22 1   
    25    9   23 1   
    26   10   24 1   
    27   10   25 1   
@<TRIPOS>SUBSTRUCTURE
     1 ADO         1 TEMP              0 ****  ****    0 ROOT
