@<TRIPOS>MOLECULE
ADR
   24    24     1     0     0
SMALL
bcc


@<TRIPOS>ATOM
      1 C           0.0370    0.2510    0.9090 c3        1 ADR      0.138100
      2 O           1.2560   -0.1980    0.3130 os        1 ADR     -0.423600
      3 C1          1.4250    0.2630   -1.0200 c3        1 ADR      0.130400
      4 C2          0.3120   -0.3120   -1.9230 c3        1 ADR      0.141500
      5 N2          0.4950    0.0960   -3.3050 n3        1 ADR     -0.910800
      6 C3         -1.0430    0.1400   -1.3630 c3        1 ADR     -0.118400
      7 C4         -1.1600   -0.2790    0.0990 c3        1 ADR      0.112100
      8 O4         -2.3270    0.2720    0.6940 oh        1 ADR     -0.592800
      9 C5          0.0140   -0.3220    2.3350 c3        1 ADR      0.165800
     10 N6          1.0220    0.2530    3.1930 n3        1 ADR     -0.911800
     11 HC          0.0110    1.3750    0.9230 h1        1 ADR      0.071700
     12 H11         1.4220    1.3830   -1.0480 h1        1 ADR      0.058700
     13 H12         2.4340   -0.1290   -1.3170 h1        1 ADR      0.058700
     14 H2          0.3560   -1.4420   -1.8140 h1        1 ADR      0.021700
     15 H21         1.3540   -0.2740   -3.6610 hn        1 ADR      0.353800
     16 H22        -0.2670   -0.2270   -3.8650 hn        1 ADR      0.353800
     17 H31        -1.1420    1.2540   -1.4400 hc        1 ADR      0.056700
     18 H32        -1.8790   -0.3190   -1.9510 hc        1 ADR      0.056700
     19 H4         -1.1980   -1.4030    0.1740 h1        1 ADR      0.042700
     20 HO4        -3.0680    0.0310    0.1260 ho        1 ADR      0.403000
     21 H51         0.0980   -1.4460    2.2540 h1        1 ADR      0.042200
     22 H52        -0.9980   -0.0800    2.7720 h1        1 ADR      0.042200
     23 H61         1.1010   -0.2810    4.0350 hn        1 ADR      0.352300
     24 H62         1.9100    0.2720    2.7310 hn        1 ADR      0.352300
@<TRIPOS>BOND
     1    1    2 1   
     2    1    7 1   
     3    1    9 1   
     4    1   11 1   
     5    2    3 1   
     6    3    4 1   
     7    3   12 1   
     8    3   13 1   
     9    4    5 1   
    10    4    6 1   
    11    4   14 1   
    12    5   15 1   
    13    5   16 1   
    14    6    7 1   
    15    6   17 1   
    16    6   18 1   
    17    7    8 1   
    18    7   19 1   
    19    8   20 1   
    20    9   10 1   
    21    9   21 1   
    22    9   22 1   
    23   10   23 1   
    24   10   24 1   
@<TRIPOS>SUBSTRUCTURE
     1 ADR         1 TEMP              0 ****  ****    0 ROOT
