@<TRIPOS>MOLECULE
ADR
   24    24     1     0     0
SMALL
bcc


@<TRIPOS>ATOM
      1 C          -0.3820   -0.5210   -0.7880 c3        1 ADR      0.138100
      2 O           1.0740   -0.5210   -0.7880 os        1 ADR     -0.423600
      3 C1          1.6440   -0.5210    0.5620 c3        1 ADR      0.130400
      4 C2          1.0680    0.5890    1.4400 c3        1 ADR      0.141500
      5 N2          1.5450    0.4070    2.8040 n3        1 ADR     -0.910800
      6 C3         -0.4020    0.5900    1.4480 c3        1 ADR     -0.118400
      7 C4         -0.9680    0.5900    0.0850 c3        1 ADR      0.112100
      8 O4         -2.3920    0.4090    0.1730 oh        1 ADR     -0.592800
      9 C5         -0.8670   -0.3400   -2.1950 c3        1 ADR      0.165800
     10 N6         -0.3880   -1.4120   -3.0050 n3        1 ADR     -0.911800
     11 HC         -0.6970   -1.3830   -0.4540 h1        1 ADR      0.071700
     12 H11         1.4600   -1.3830    0.9830 h1        1 ADR      0.058700
     13 H12         2.6100   -0.4020    0.4970 h1        1 ADR      0.058700
     14 H2          1.3830    1.4510    1.1070 h1        1 ADR      0.021700
     15 H21         1.3020    1.1250    3.3110 hn        1 ADR      0.353800
     16 H22         2.4540    0.3320    2.8010 hn        1 ADR      0.353800
     17 H31        -0.7160    1.3850    1.9200 hc        1 ADR      0.056700
     18 H32        -0.7170   -0.2040    1.9200 hc        1 ADR      0.056700
     19 H4         -0.7830    1.4520   -0.3340 h1        1 ADR      0.042700
     20 HO4        -2.7850    1.1990    0.2690 ho        1 ADR      0.403000
     21 H51        -0.5350    0.5080   -2.5470 h1        1 ADR      0.042200
     22 H52        -1.8430   -0.3360   -2.2040 h1        1 ADR      0.042200
     23 H61         0.0210   -1.0740   -3.7470 hn        1 ADR      0.352300
     24 H62        -1.0880   -1.9390   -3.2580 hn        1 ADR      0.352300
@<TRIPOS>BOND
     1    1    2 1   
     2    1    7 1   
     3    1    9 1   
     4    1   11 1   
     5    2    3 1   
     6    3    4 1   
     7    3   12 1   
     8    3   13 1   
     9    4    5 1   
    10    4    6 1   
    11    4   14 1   
    12    5   15 1   
    13    5   16 1   
    14    6    7 1   
    15    6   17 1   
    16    6   18 1   
    17    7    8 1   
    18    7   19 1   
    19    8   20 1   
    20    9   10 1   
    21    9   21 1   
    22    9   22 1   
    23   10   23 1   
    24   10   24 1   
@<TRIPOS>SUBSTRUCTURE
     1 ADR         1 TEMP              0 ****  ****    0 ROOT
