@<TRIPOS>MOLECULE
ADS
   37    39     1     0     0
SMALL
bcc


@<TRIPOS>ATOM
      1 P          -0.1080    0.0850   -0.0450 p5        1 ADS      1.142500
      2 O1P         1.2270    0.4820    0.3300 o         1 ADS     -0.619300
      3 S2P        -1.1550   -1.2800    1.1710 sh        1 ADS     -0.557200
      4 S3P        -0.5120   -1.3230   -1.5610 sh        1 ADS     -0.557200
      5 O5'        -1.0000    1.3870   -0.2480 os        1 ADS     -0.500200
      6 C5'        -2.2340    1.3470   -0.9410 c3        1 ADS      0.145400
      7 C4'        -2.1840    2.3800   -2.0680 c3        1 ADS      0.079100
      8 O4'        -1.5750    1.7860   -3.2220 os        1 ADS     -0.413600
      9 C3'        -3.5880    2.8930   -2.4470 c3        1 ADS      0.134100
     10 O3'        -3.8120    4.1960   -1.9770 oh        1 ADS     -0.572800
     11 C2'        -3.6670    2.7530   -3.9820 c3        1 ADS      0.082100
     12 O2'        -3.5410    4.0370   -4.5530 oh        1 ADS     -0.598800
     13 C1'        -2.4170    1.8990   -4.3770 c3        1 ADS      0.234800
     14 N9         -2.7560    0.5930   -4.8890 na        1 ADS     -0.299000
     15 C8         -2.3040   -0.6900   -4.4840 cc        1 ADS      0.427700
     16 N7         -2.7450   -1.6790   -5.2730 nd        1 ADS     -0.547100
     17 C5         -3.5170   -1.0510   -6.2630 ca        1 ADS     -0.225200
     18 C6         -4.2500   -1.5460   -7.3940 ca        1 ADS      0.764200
     19 N6         -4.3070   -2.8900   -7.6440 nh        1 ADS     -0.956500
     20 N1         -4.9050   -0.6450   -8.2040 nb        1 ADS     -0.794000
     21 C2         -4.8300    0.6700   -7.8740 ca        1 ADS      0.689900
     22 N3         -4.1910    1.2780   -6.8450 nb        1 ADS     -0.764000
     23 C4         -3.5310    0.3880   -6.0440 ca        1 ADS      0.445800
     24 HSP2       -0.9620   -1.0480    2.4740 hs        1 ADS      0.383800
     25 HSP3       -0.9070   -2.4270   -0.8540 hs        1 ADS      0.383800
     26 H5'1       -3.0340    1.6400   -0.2040 h1        1 ADS      0.084200
     27 H5'2       -2.4100    0.3090   -1.3430 h1        1 ADS      0.084200
     28 H4'        -1.5130    3.2340   -1.7650 h1        1 ADS      0.103700
     29 H3'        -4.3930    2.2730   -1.9620 h1        1 ADS      0.092700
     30 HO3'       -3.3160    4.8130   -2.5340 ho        1 ADS      0.430000
     31 H2'        -4.6330    2.2730   -4.2880 h1        1 ADS      0.090700
     32 HO2'       -3.8580    3.9700   -5.4640 ho        1 ADS      0.439000
     33 H1'        -1.7970    2.4430   -5.1550 h2        1 ADS      0.103700
     34 H8         -1.6540   -0.8120   -3.5980 h5        1 ADS      0.111800
     35 HN61       -3.7610   -3.5010   -7.0880 hn        1 ADS      0.449800
     36 HN62       -4.7560   -3.2340   -8.4560 hn        1 ADS      0.449800
     37 H2         -5.3790    1.3510   -8.5610 h5        1 ADS      0.051100
@<TRIPOS>BOND
     1    1    2 2   
     2    1    3 1   
     3    1    4 1   
     4    1    5 1   
     5    3   24 1   
     6    4   25 1   
     7    5    6 1   
     8    6    7 1   
     9    6   26 1   
    10    6   27 1   
    11    7    8 1   
    12    7    9 1   
    13    7   28 1   
    14    8   13 1   
    15    9   10 1   
    16    9   11 1   
    17    9   29 1   
    18   10   30 1   
    19   11   12 1   
    20   11   13 1   
    21   11   31 1   
    22   12   32 1   
    23   13   14 1   
    24   13   33 1   
    25   14   15 1   
    26   14   23 1   
    27   15   16 2   
    28   15   34 1   
    29   16   17 1   
    30   17   18 ar  
    31   17   23 ar  
    32   18   19 1   
    33   18   20 ar  
    34   19   35 1   
    35   19   36 1   
    36   20   21 ar  
    37   21   22 ar  
    38   21   37 1   
    39   22   23 ar  
@<TRIPOS>SUBSTRUCTURE
     1 ADS         1 TEMP              0 ****  ****    0 ROOT
