@<TRIPOS>MOLECULE
ADS
   37    39     1     0     0
SMALL
bcc


@<TRIPOS>ATOM
      1 P          -0.1660    0.0640   -0.0050 p5        1 ADS      1.142500
      2 O1P         1.1700    0.4440    0.3830 o         1 ADS     -0.619300
      3 S2P        -1.2480   -1.2780    1.2060 sh        1 ADS     -0.557200
      4 S3P        -0.5730   -1.3470   -1.5170 sh        1 ADS     -0.557200
      5 O5'        -1.0360    1.3770   -0.2270 os        1 ADS     -0.500200
      6 C5'        -2.2620    1.3520   -0.9340 c3        1 ADS      0.145400
      7 C4'        -2.1830    2.3770   -2.0660 c3        1 ADS      0.079100
      8 O4'        -1.5700    1.7670   -3.2090 os        1 ADS     -0.413600
      9 C3'        -3.5750    2.9080   -2.4660 c3        1 ADS      0.134100
     10 O3'        -3.7860    4.2170   -2.0060 oh        1 ADS     -0.572800
     11 C2'        -3.6370    2.7600   -4.0000 c3        1 ADS      0.082100
     12 O2'        -3.4850    4.0390   -4.5770 oh        1 ADS     -0.598800
     13 C1'        -2.3950    1.8850   -4.3750 c3        1 ADS      0.234800
     14 N9         -2.7480    0.5820   -4.8840 na        1 ADS     -0.299000
     15 C8         -2.3200   -0.7050   -4.4660 cc        1 ADS      0.427700
     16 N7         -2.7670   -1.6920   -5.2540 nd        1 ADS     -0.547100
     17 C5         -3.5170   -1.0580   -6.2580 ca        1 ADS     -0.225200
     18 C6         -4.2420   -1.5490   -7.3950 ca        1 ADS      0.764200
     19 N6         -4.3170   -2.8940   -7.6370 nv        1 ADS     -0.956500
     20 N1         -4.8740   -0.6430   -8.2190 nb        1 ADS     -0.794000
     21 C2         -4.7830    0.6720   -7.8950 ca        1 ADS      0.689900
     22 N3         -4.1480    1.2770   -6.8620 nb        1 ADS     -0.764000
     23 C4         -3.5110    0.3820   -6.0470 ca        1 ADS      0.445800
     24 HSP2       -1.0660   -1.0410    2.5100 hs        1 ADS      0.383800
     25 HSP3       -0.9930   -2.4410   -0.8080 hs        1 ADS      0.383800
     26 H5'1       -3.0670    1.6620   -0.2080 h1        1 ADS      0.084200
     27 H5'2       -2.4490    0.3140   -1.3320 h1        1 ADS      0.084200
     28 H4'        -1.5040    3.2230   -1.7610 h1        1 ADS      0.103700
     29 H3'        -4.3950    2.3030   -1.9870 h1        1 ADS      0.092700
     30 HO3'       -3.2740    4.8230   -2.5600 ho        1 ADS      0.430000
     31 H2'        -4.6070    2.2930   -4.3160 h1        1 ADS      0.090700
     32 HO2'       -3.7920    3.9720   -5.4920 ho        1 ADS      0.439000
     33 H1'        -1.7580    2.4160   -5.1490 h2        1 ADS      0.103700
     34 H8         -1.6830   -0.8320   -3.5710 h5        1 ADS      0.111800
     35 HN61       -3.7880   -3.5100   -7.0720 hn        1 ADS      0.449800
     36 HN62       -4.7610   -3.2360   -8.4530 hn        1 ADS      0.449800
     37 H2         -5.3130    1.3570   -8.5930 h5        1 ADS      0.051100
@<TRIPOS>BOND
     1    1    2 2   
     2    1    3 1   
     3    1    4 1   
     4    1    5 1   
     5    3   24 1   
     6    4   25 1   
     7    5    6 1   
     8    6    7 1   
     9    6   26 1   
    10    6   27 1   
    11    7    8 1   
    12    7    9 1   
    13    7   28 1   
    14    8   13 1   
    15    9   10 1   
    16    9   11 1   
    17    9   29 1   
    18   10   30 1   
    19   11   12 1   
    20   11   13 1   
    21   11   31 1   
    22   12   32 1   
    23   13   14 1   
    24   13   33 1   
    25   14   15 1   
    26   14   23 1   
    27   15   16 2   
    28   15   34 1   
    29   16   17 1   
    30   17   18 ar  
    31   17   23 ar  
    32   18   19 1   
    33   18   20 ar  
    34   19   35 1   
    35   19   36 1   
    36   20   21 ar  
    37   21   22 ar  
    38   21   37 1   
    39   22   23 ar  
@<TRIPOS>SUBSTRUCTURE
     1 ADS         1 TEMP              0 ****  ****    0 ROOT
