@<TRIPOS>MOLECULE
ADS
   37    39     1     0     0
SMALL
bcc


@<TRIPOS>ATOM
      1 P           1.0330   -0.0500    6.5460 p5        1 ADS      1.135500
      2 O1P         1.3120   -1.0000    7.5950 o         1 ADS     -0.618300
      3 S2P         1.7270    1.9290    6.7360 sh        1 ADS     -0.553700
      4 S3P        -0.8430    0.8710    6.2890 sh        1 ADS     -0.553700
      5 O5'         1.5380   -0.6500    5.1620 os        1 ADS     -0.501200
      6 C5'         1.1620   -0.0900    3.9170 c3        1 ADS      0.143400
      7 C4'         0.5840   -1.2130    3.0530 c3        1 ADS      0.108100
      8 O4'        -0.8480   -1.2100    3.1400 os        1 ADS     -0.414600
      9 C3'         0.9710   -1.0830    1.5680 c3        1 ADS      0.085100
     10 O3'         1.7370   -2.2270    1.2400 oh        1 ADS     -0.590800
     11 C2'        -0.3660   -1.0630    0.7920 c3        1 ADS      0.081100
     12 O2'        -0.5780   -2.2850    0.1270 oh        1 ADS     -0.570800
     13 C1'        -1.4520   -0.8360    1.8910 c3        1 ADS      0.230800
     14 N9         -1.9560    0.5160    1.9620 na        1 ADS     -0.303000
     15 C8         -2.2420    1.2580    3.1410 cc        1 ADS      0.413700
     16 N7         -2.9030    2.3980    2.9060 nd        1 ADS     -0.544100
     17 C5         -3.1090    2.4280    1.5180 ca        1 ADS     -0.230200
     18 C6         -3.7590    3.3690    0.6510 ca        1 ADS      0.760200
     19 N6         -4.2760    4.5320    1.1590 nh        1 ADS     -0.955500
     20 N1         -3.8240    3.0930   -0.6960 nb        1 ADS     -0.793000
     21 C2         -3.2470    1.9420   -1.1290 ca        1 ADS      0.686900
     22 N3         -2.5950    0.9770   -0.4380 nb        1 ADS     -0.744000
     23 C4         -2.5350    1.2370    0.9020 ca        1 ADS      0.455800
     24 HSP2        2.9470    1.9850    7.2800 hs        1 ADS      0.384800
     25 HSP3       -0.6100    2.1570    6.6980 hs        1 ADS      0.384800
     26 H5'1        0.4060    0.7300    4.0820 h1        1 ADS      0.083200
     27 H5'2        2.1010    0.3160    3.4440 h1        1 ADS      0.083200
     28 H4'         0.9080   -2.2130    3.4630 h1        1 ADS      0.121700
     29 H3'         1.5670   -0.1560    1.3630 h1        1 ADS      0.067700
     30 HO3'        1.7520   -2.2920    0.2740 ho        1 ADS      0.427000
     31 H2'        -0.3790   -0.2890   -0.0210 h1        1 ADS      0.134700
     32 HO2'       -0.5190   -2.9940    0.7850 ho        1 ADS      0.415000
     33 H1'        -2.3190   -1.5520    1.7560 h2        1 ADS      0.107700
     34 H8         -1.9220    0.8970    4.1370 h5        1 ADS      0.110800
     35 HN61       -4.3060    4.6460    2.1420 hn        1 ADS      0.447800
     36 HN62       -4.7980    5.1420    0.5810 hn        1 ADS      0.447800
     37 H2         -3.3280    1.7670   -2.2240 h5        1 ADS      0.053100
@<TRIPOS>BOND
     1    1    2 2   
     2    1    3 1   
     3    1    4 1   
     4    1    5 1   
     5    3   24 1   
     6    4   25 1   
     7    5    6 1   
     8    6    7 1   
     9    6   26 1   
    10    6   27 1   
    11    7    8 1   
    12    7    9 1   
    13    7   28 1   
    14    8   13 1   
    15    9   10 1   
    16    9   11 1   
    17    9   29 1   
    18   10   30 1   
    19   11   12 1   
    20   11   13 1   
    21   11   31 1   
    22   12   32 1   
    23   13   14 1   
    24   13   33 1   
    25   14   15 1   
    26   14   23 1   
    27   15   16 2   
    28   15   34 1   
    29   16   17 1   
    30   17   18 ar  
    31   17   23 ar  
    32   18   19 1   
    33   18   20 ar  
    34   19   35 1   
    35   19   36 1   
    36   20   21 ar  
    37   21   22 ar  
    38   21   37 1   
    39   22   23 ar  
@<TRIPOS>SUBSTRUCTURE
     1 ADS         1 TEMP              0 ****  ****    0 ROOT
