@<TRIPOS>MOLECULE
ADS
   38    40     1     0     0
SMALL
bcc


@<TRIPOS>ATOM
      1 P          -0.0410   -0.1650   -0.4990 p5        1 ADS      1.165500
      2 O1P         1.3830   -0.1750   -0.7010 o         1 ADS     -0.605300
      3 S2P        -0.9130   -1.0780    1.1690 sh        1 ADS     -0.585700
      4 S3P        -1.3560   -1.4650   -1.5500 sh        1 ADS     -0.585700
      5 O5'        -0.6020    1.3200   -0.6440 os        1 ADS     -0.492200
      6 C5'        -1.9750    1.5770   -0.8470 c3        1 ADS      0.147400
      7 C4'        -2.1250    2.4680   -2.0810 c3        1 ADS      0.117100
      8 O4'        -1.8260    1.7020   -3.2610 os        1 ADS     -0.417600
      9 C3'        -3.5550    3.0230   -2.2040 c3        1 ADS      0.086100
     10 O3'        -3.4580    4.4320   -2.1360 oh        1 ADS     -0.581800
     11 C2'        -4.0590    2.5910   -3.5990 c3        1 ADS      0.081100
     12 O2'        -4.4840    3.6770   -4.3760 oh        1 ADS     -0.565800
     13 C1'        -2.8340    1.8780   -4.2630 c3        1 ADS      0.220800
     14 N9         -3.1400    0.5880   -4.8550 na        1 ADS     -0.264000
     15 C8         -3.0890   -0.6960   -4.2680 cc        1 ADS      0.522700
     16 N7         -3.3740   -1.6990   -5.1220 nd        1 ADS     -0.592100
     17 C5         -3.6070   -1.0740   -6.3490 ca        1 ADS     -0.127200
     18 C6         -3.9280   -1.5300   -7.6380 ca        1 ADS      0.508200
     19 N6         -4.0850   -2.9810   -7.8480 n4        1 ADS     -0.813300
     20 N1         -4.0900   -0.6800   -8.6840 nb        1 ADS     -0.678000
     21 C2         -3.9200    0.6470   -8.4250 ca        1 ADS      0.668900
     22 N3         -3.6070    1.2520   -7.2470 nb        1 ADS     -0.614000
     23 C4         -3.4510    0.3940   -6.2110 ca        1 ADS      0.457800
     24 HSP2       -0.1950   -0.9070    2.2920 hs        1 ADS      0.402300
     25 HSP3       -1.6870   -2.4000   -0.5990 hs        1 ADS      0.402300
     26 H5'1       -2.3480    2.1490    0.0510 h1        1 ADS      0.085700
     27 H5'2       -2.5330    0.6050   -0.9660 h1        1 ADS      0.085700
     28 H4'        -1.3650    3.3010   -2.0450 h1        1 ADS      0.127700
     29 H3'        -4.2280    2.6310   -1.3970 h1        1 ADS      0.074700
     30 HO3'       -4.3580    4.7780   -2.0580 ho        1 ADS      0.434000
     31 H2'        -4.9580    1.9220   -3.5220 h1        1 ADS      0.107700
     32 HO2'       -3.8010    4.3660   -4.3420 ho        1 ADS      0.430000
     33 H1'        -2.3910    2.5300   -5.0770 h2        1 ADS      0.118700
     34 H8         -2.8020   -0.8420   -3.1980 h5        1 ADS      0.145800
     35 HN61       -4.8790   -3.3080   -7.2820 hn        1 ADS      0.477467
     36 HN62       -3.2280   -3.4500   -7.5270 hn        1 ADS      0.477467
     37 H2         -4.0550    1.3250   -9.3000 h5        1 ADS      0.100100
     38 H63        -4.2520   -3.1990   -8.8380 hn        1 ADS      0.477467
@<TRIPOS>BOND
     1    1    2 2   
     2    1    3 1   
     3    1    4 1   
     4    1    5 1   
     5    3   24 1   
     6    4   25 1   
     7    5    6 1   
     8    6    7 1   
     9    6   26 1   
    10    6   27 1   
    11    7    8 1   
    12    7    9 1   
    13    7   28 1   
    14    8   13 1   
    15    9   10 1   
    16    9   11 1   
    17    9   29 1   
    18   10   30 1   
    19   11   12 1   
    20   11   13 1   
    21   11   31 1   
    22   12   32 1   
    23   13   14 1   
    24   13   33 1   
    25   14   15 1   
    26   14   23 1   
    27   15   16 2   
    28   15   34 1   
    29   16   17 1   
    30   17   18 ar  
    31   17   23 ar  
    32   18   19 1   
    33   18   20 ar  
    34   19   35 1   
    35   19   36 1   
    36   19   38 1   
    37   20   21 ar  
    38   21   22 ar  
    39   21   37 1   
    40   22   23 ar  
@<TRIPOS>SUBSTRUCTURE
     1 ADS         1 TEMP              0 ****  ****    0 ROOT
