@<TRIPOS>MOLECULE
ADS
   37    34     1     0     0
SMALL
bcc


@<TRIPOS>ATOM
      1 P           2.0100    0.1180    4.7490 p4        1 ADS      1.474100
      2 O1P         2.6410   -1.2300    4.5610 o         1 ADS     -0.655300
      3 S2P         3.3080    1.3500    5.8390 s         1 ADS     -0.770000
      4 S3P         0.2060   -0.0930    5.7920 sh        1 ADS     -0.418200
      5 O5'         1.7290    0.7630    3.3540 os        1 ADS     -0.525200
      6 C5'         1.2270   -0.0470    2.3340 c3        1 ADS      0.127400
      7 C4'         1.0820    0.7620    1.0820 c3        1 ADS      0.086100
      8 O4'         1.1790    0.0020    0.0530 os        1 ADS     -0.396600
      9 C3'        -0.4230    1.4450    1.0170 c3        1 ADS      0.085100
     10 O3'        -0.4460    2.7080    1.7990 oh        1 ADS     -0.593800
     11 C2'        -0.6360    1.6810   -0.1580 c3        1 ADS      0.126100
     12 O2'        -0.1810    3.0980   -0.5000 oh        1 ADS     -0.580800
     13 C1'         0.2500    0.6050   -0.9610 c3        1 ADS      0.244800
     14 N9         -0.5090   -0.3150   -1.4710 n3        1 ADS     -0.131400
     15 C8         -1.2550   -1.2800   -0.8700 c1        1 ADS      0.153400
     16 N7         -1.7470   -2.0840   -1.8300 ne        1 ADS     -0.375400
     17 C5         -1.3130   -1.6240   -3.0240 cg        1 ADS     -0.199000
     18 C6         -1.4490   -2.1140   -4.3010 c1        1 ADS      0.628600
     19 N6         -2.3270   -3.1070   -4.8500 n3        1 ADS     -0.823400
     20 N1         -0.8250   -1.5080   -5.3200 n1        1 ADS     -0.593800
     21 C2         -0.0500   -0.4010   -5.0900 c1        1 ADS      0.414300
     22 N3          0.0850    0.0840   -3.8320 n1        1 ADS     -0.531800
     23 C4         -0.5460   -0.5270   -2.7960 c1        1 ADS      0.034700
     24 HSP2        3.7850    0.7310    6.7320 hs        1 ADS      0.181000
     25 HSP3        0.3820   -0.7550    6.7560 hs        1 ADS      0.392800
     26 H5'1        0.3310   -0.4090    2.6040 h1        1 ADS      0.087200
     27 H5'2        1.8460   -0.7920    2.1720 h1        1 ADS      0.087200
     28 H4'         1.7790    1.4690    1.0510 h1        1 ADS      0.084700
     29 H3'        -1.0930    0.8200    1.3640 h1        1 ADS      0.066700
     30 HO3'       -1.1170    2.6790    2.3950 ho        1 ADS      0.429000
     31 H2'        -1.6030    1.5630   -0.3680 h1        1 ADS      0.070700
     32 HO2'       -0.8510    3.5440   -0.8520 ho        1 ADS      0.437000
     33 H1'         0.7610    1.0490   -1.6650 h2        1 ADS      0.151700
     34 H8         -1.3780   -1.3920    0.0800 DU        1 ADS      0.196000
     35 HN61       -2.4650   -3.1430   -5.7370 hn        1 ADS      0.451300
     36 HN62       -2.7920   -3.6860   -4.2810 hn        1 ADS      0.451300
     37 H2          0.4040    0.0380   -5.8300 ha        1 ADS      0.134500
@<TRIPOS>BOND
     1    1    2 2   
     2    1    4 1   
     3    1    5 1   
     4    3   24 1   
     5    4   25 1   
     6    5    6 1   
     7    6    7 1   
     8    6   26 1   
     9    6   27 1   
    10    7    8 1   
    11    7    9 1   
    12    7   28 1   
    13    8   13 1   
    14    9   10 1   
    15    9   11 1   
    16    9   29 1   
    17   10   30 1   
    18   11   12 1   
    19   11   13 1   
    20   11   31 1   
    21   12   32 1   
    22   13   14 1   
    23   13   33 1   
    24   14   15 2   
    25   14   23 1   
    26   15   16 2   
    27   16   17 1   
    28   17   23 3   
    29   18   19 1   
    30   18   20 3   
    31   19   35 1   
    32   19   36 1   
    33   21   22 3   
    34   21   37 1   
@<TRIPOS>SUBSTRUCTURE
     1 ADS         1 TEMP              0 ****  ****    0 ROOT
