@<TRIPOS>MOLECULE
ADT
   38    39     1     0     0
SMALL
bcc


@<TRIPOS>ATOM
      1 N1         -0.3850    0.4770   -0.1550 n         1 ADT     -0.386000
      2 C2          0.9840    0.7030   -0.4750 c         1 ADT      0.822500
      3 O2          1.3340    0.9700   -1.6510 o         1 ADT     -0.703500
      4 N3          1.9300    0.6660    0.5450 n         1 ADT     -0.574500
      5 C4          1.6150    0.3410    1.8830 c         1 ADT      0.707700
      6 O4          2.5270    0.3290    2.7180 o         1 ADT     -0.556500
      7 C5          0.1950    0.0340    2.1550 cc        1 ADT     -0.195400
      8 C5M        -0.1550   -0.3240    3.5450 c3        1 ADT     -0.047900
      9 C6         -0.7170    0.0870    1.1510 cd        1 ADT      0.006600
     10 C1'        -1.3930    0.3300   -1.1850 c3        1 ADT      0.324500
     11 O4'        -1.3540   -1.0050   -1.7550 os        1 ADT     -0.402600
     12 C4'        -1.1450   -0.9610   -3.1610 c3        1 ADT      0.131100
     13 C5'        -0.0480   -1.9480   -3.5600 c3        1 ADT      0.117400
     14 O5'         0.1000   -1.7710   -4.9640 oh        1 ADT     -0.659800
     15 C3'        -0.7380    0.4960   -3.5170 c3        1 ADT      0.079500
     16 N3'        -1.1750    0.8760   -4.8930 n4        1 ADT     -0.675800
     17 C8'        -0.5100    2.1580   -5.3660 c         1 ADT      0.554100
     18 O8'         0.5460    2.0100   -5.9560 o         1 ADT     -0.386100
     19 C9'        -1.2450    3.4200   -5.0750 c3        1 ADT     -0.186100
     20 C2'        -1.3100    1.3300   -2.3650 c3        1 ADT     -0.121400
     21 HN3         2.8770    0.8700    0.2960 hn        1 ADT      0.364500
     22 HM51       -1.2410   -0.5630    3.6440 hc        1 ADT      0.066700
     23 HM52        0.0950    0.5260    4.2300 hc        1 ADT      0.066700
     24 HM53        0.4450   -1.2120    3.8710 hc        1 ADT      0.066700
     25 H6         -1.7830   -0.1570    1.3220 h4        1 ADT      0.174000
     26 H1'        -2.4050    0.3980   -0.6810 h2        1 ADT      0.107700
     27 H4'        -2.1190   -1.2570   -3.6440 h1        1 ADT      0.072700
     28 H5'1        0.9160   -1.7130   -3.0350 h1        1 ADT      0.074700
     29 H5'2       -0.3680   -2.9950   -3.3200 h1        1 ADT      0.074700
     30 HO5'        0.7110   -2.4500   -5.2770 ho        1 ADT      0.451000
     31 H3'         0.3980    0.5700   -3.5130 hx        1 ADT      0.173700
     32 HN3'       -2.1920    0.9770   -4.9280 hn        1 ADT      0.467800
     33 H9'1       -0.5800    4.2870   -5.3370 hc        1 ADT      0.112367
     34 H9'2       -2.1730    3.4820   -5.7000 hc        1 ADT      0.112367
     35 H9'3       -1.5200    3.4890   -3.9920 hc        1 ADT      0.112367
     36 H2'1       -0.6460    2.2010   -2.1310 hc        1 ADT      0.092200
     37 H2'2       -2.3410    1.7070   -2.5810 hc        1 ADT      0.092200
     38 H3'2       -0.8870    0.0970   -5.5160 hn        1 ADT      0.467800
@<TRIPOS>BOND
     1    1    2 1   
     2    1    9 1   
     3    1   10 1   
     4    2    3 2   
     5    2    4 1   
     6    4    5 1   
     7    4   21 1   
     8    5    6 2   
     9    5    7 1   
    10    7    8 1   
    11    7    9 2   
    12    8   22 1   
    13    8   23 1   
    14    8   24 1   
    15    9   25 1   
    16   10   11 1   
    17   10   20 1   
    18   10   26 1   
    19   11   12 1   
    20   12   13 1   
    21   12   15 1   
    22   12   27 1   
    23   13   14 1   
    24   13   28 1   
    25   13   29 1   
    26   14   30 1   
    27   15   16 1   
    28   15   20 1   
    29   15   31 1   
    30   16   17 1   
    31   16   32 1   
    32   16   38 1   
    33   17   18 2   
    34   17   19 1   
    35   19   33 1   
    36   19   34 1   
    37   19   35 1   
    38   20   36 1   
    39   20   37 1   
@<TRIPOS>SUBSTRUCTURE
     1 ADT         1 TEMP              0 ****  ****    0 ROOT
