@<TRIPOS>MOLECULE
ADT
   38    39     1     0     0
SMALL
bcc


@<TRIPOS>ATOM
      1 N1         -0.3870    0.4730   -0.1550 n         1 ADT     -0.386000
      2 C2          0.9820    0.6980   -0.4730 c         1 ADT      0.822500
      3 O2          1.3340    0.9680   -1.6480 o         1 ADT     -0.703500
      4 N3          1.9280    0.6570    0.5480 n         1 ADT     -0.574500
      5 C4          1.6110    0.3280    1.8850 c         1 ADT      0.707700
      6 O4          2.5220    0.3110    2.7210 o         1 ADT     -0.556500
      7 C5          0.1900    0.0230    2.1550 cc        1 ADT     -0.195400
      8 C5M        -0.1620   -0.3380    3.5430 c3        1 ADT     -0.047900
      9 C6         -0.7210    0.0810    1.1500 cd        1 ADT      0.006600
     10 C1'        -1.3940    0.3310   -1.1870 c3        1 ADT      0.324500
     11 O4'        -1.3580   -1.0020   -1.7590 os        1 ADT     -0.402600
     12 C4'        -1.1470   -0.9560   -3.1650 c3        1 ADT      0.131100
     13 C5'        -0.0510   -1.9440   -3.5650 c3        1 ADT      0.117400
     14 O5'         0.0990   -1.7640   -4.9680 oh        1 ADT     -0.659800
     15 C3'        -0.7360    0.5010   -3.5170 c3        1 ADT      0.079500
     16 N3'        -1.1700    0.8850   -4.8930 n4        1 ADT     -0.675800
     17 C8'        -0.5010    2.1670   -5.3620 c         1 ADT      0.554100
     18 O8'         0.5560    2.0180   -5.9500 o         1 ADT     -0.386100
     19 C9'        -1.2330    3.4300   -5.0700 c3        1 ADT     -0.186100
     20 C2'        -1.3080    1.3340   -2.3650 c3        1 ADT     -0.121400
     21 HN3         2.8760    0.8600    0.3010 hn        1 ADT      0.364500
     22 HM51       -1.2480   -0.5830    3.6390 hc        1 ADT      0.066367
     23 HM52        0.0810    0.5120    4.2300 hc        1 ADT      0.066367
     24 HM53        0.4410   -1.2240    3.8700 hc        1 ADT      0.066367
     25 H6         -1.7870   -0.1620    1.3190 h4        1 ADT      0.174000
     26 H1'        -2.4070    0.4010   -0.6840 h2        1 ADT      0.107700
     27 H4'        -2.1210   -1.2490   -3.6500 h1        1 ADT      0.072700
     28 H5'1        0.9120   -1.7130   -3.0380 h1        1 ADT      0.074700
     29 H5'2       -0.3740   -2.9910   -3.3270 h1        1 ADT      0.074700
     30 HO5'        0.7080   -2.4440   -5.2820 ho        1 ADT      0.451000
     31 H3'         0.4010    0.5730   -3.5110 hx        1 ADT      0.173700
     32 HN3'       -2.1870    0.9880   -4.9290 hn        1 ADT      0.467800
     33 H9'1       -0.5660    4.2960   -5.3280 hc        1 ADT      0.112367
     34 H9'2       -2.1600    3.4950   -5.6960 hc        1 ADT      0.112367
     35 H9'3       -1.5100    3.4970   -3.9870 hc        1 ADT      0.112367
     36 H2'1       -2.3380    1.7130   -2.5810 hc        1 ADT      0.092200
     37 H2'2       -0.6430    2.2030   -2.1270 hc        1 ADT      0.092200
     38 H3'2       -0.8830    0.1070   -5.5180 hn        1 ADT      0.467800
@<TRIPOS>BOND
     1    1    2 1   
     2    1    9 1   
     3    1   10 1   
     4    2    3 2   
     5    2    4 1   
     6    4    5 1   
     7    4   21 1   
     8    5    6 2   
     9    5    7 1   
    10    7    8 1   
    11    7    9 2   
    12    8   22 1   
    13    8   23 1   
    14    8   24 1   
    15    9   25 1   
    16   10   11 1   
    17   10   20 1   
    18   10   26 1   
    19   11   12 1   
    20   12   13 1   
    21   12   15 1   
    22   12   27 1   
    23   13   14 1   
    24   13   28 1   
    25   13   29 1   
    26   14   30 1   
    27   15   16 1   
    28   15   20 1   
    29   15   31 1   
    30   16   17 1   
    31   16   32 1   
    32   16   38 1   
    33   17   18 2   
    34   17   19 1   
    35   19   33 1   
    36   19   34 1   
    37   19   35 1   
    38   20   36 1   
    39   20   37 1   
@<TRIPOS>SUBSTRUCTURE
     1 ADT         1 TEMP              0 ****  ****    0 ROOT
