@<TRIPOS>MOLECULE
ADT
   37    38     1     0     0
SMALL
bcc


@<TRIPOS>ATOM
      1 N1          0.9870   -0.9860    0.9770 n         1 ADT     -0.383000
      2 C2          2.4550   -0.9860    0.9770 c         1 ADT      0.809500
      3 O2          3.0630   -1.0610   -0.0770 o         1 ADT     -0.652500
      4 N3          3.1900   -0.9860    2.2480 n         1 ADT     -0.584500
      5 C4          2.4900   -0.8020    3.4750 c         1 ADT      0.715700
      6 O4          3.1100   -0.6600    4.5160 o         1 ADT     -0.603500
      7 C5          1.0170   -0.7050    3.4750 cc        1 ADT     -0.245400
      8 C5M         0.2520   -0.6490    4.8030 c3        1 ADT     -0.032900
      9 C6          0.2760   -0.7940    2.1990 cd        1 ADT      0.036600
     10 C1'         0.2750   -1.3460   -0.2140 c3        1 ADT      0.311500
     11 O4'         0.9480   -0.9890   -1.2700 os        1 ADT     -0.421600
     12 C4'         0.4340    0.4840   -1.6520 c3        1 ADT      0.075100
     13 C5'         1.1270    1.5050   -0.8130 c3        1 ADT      0.116400
     14 O5'         1.2360    2.7190   -1.5390 oh        1 ADT     -0.601800
     15 C3'        -0.8850    0.5010   -1.4030 c3        1 ADT      0.075700
     16 N3'        -1.6490    0.1200   -2.6320 n         1 ADT     -0.572900
     17 C8'        -2.7430    0.9410   -3.0850 c         1 ADT      0.666100
     18 O8'        -3.0460    1.9470   -2.4670 o         1 ADT     -0.610100
     19 C9'        -3.5160    0.5570   -4.3500 c3        1 ADT     -0.174100
     20 C2'        -1.0940   -0.5420   -0.3030 c3        1 ADT     -0.109400
     21 HN3         4.1020   -0.9870    2.2430 hn        1 ADT      0.354500
     22 HM51        0.4590    0.1880    5.2620 hc        1 ADT      0.052700
     23 HM52       -0.7070   -0.6950    4.6290 hc        1 ADT      0.052700
     24 HM53        0.5180   -1.4020    5.3640 hc        1 ADT      0.052700
     25 H6         -0.7000   -0.7620    2.1980 h4        1 ADT      0.165000
     26 H1'         0.1040   -2.3070   -0.2300 h2        1 ADT      0.082700
     27 H4'         0.5990    0.6610   -2.5980 h1        1 ADT      0.079700
     28 H5'1        0.6140    1.6590    0.0030 h1        1 ADT      0.062700
     29 H5'2        2.0190    1.1840   -0.5800 h1        1 ADT      0.062700
     30 HO5'        1.7980    3.2650   -1.1210 ho        1 ADT      0.424000
     31 H3'        -1.1610    1.3840   -1.0910 h1        1 ADT      0.122700
     32 HN3'       -1.4250   -0.6360   -3.0910 hn        1 ADT      0.307500
     33 H9'1       -2.9090    0.5570   -5.1150 hc        1 ADT      0.069367
     34 H9'2       -3.9000   -0.3330   -4.2390 hc        1 ADT      0.069367
     35 H9'3       -4.2320    1.2040   -4.5030 hc        1 ADT      0.069367
     36 H2'1       -1.8240   -1.1440   -0.5420 hc        1 ADT      0.079200
     37 H2'2       -1.2830   -0.1020    0.5480 hc        1 ADT      0.079200
@<TRIPOS>BOND
     1    1    2 1   
     2    1    9 1   
     3    1   10 1   
     4    2    3 2   
     5    2    4 1   
     6    4    5 1   
     7    4   21 1   
     8    5    6 2   
     9    5    7 1   
    10    7    8 1   
    11    7    9 2   
    12    8   22 1   
    13    8   23 1   
    14    8   24 1   
    15    9   25 1   
    16   10   11 1   
    17   10   20 1   
    18   10   26 1   
    19   11   12 1   
    20   12   13 1   
    21   12   15 1   
    22   12   27 1   
    23   13   14 1   
    24   13   28 1   
    25   13   29 1   
    26   14   30 1   
    27   15   16 1   
    28   15   20 1   
    29   15   31 1   
    30   16   17 1   
    31   16   32 1   
    32   17   18 2   
    33   17   19 1   
    34   19   33 1   
    35   19   34 1   
    36   19   35 1   
    37   20   36 1   
    38   20   37 1   
@<TRIPOS>SUBSTRUCTURE
     1 ADT         1 TEMP              0 ****  ****    0 ROOT
