@<TRIPOS>MOLECULE
ADT
   37    38     1     0     0
SMALL
bcc


@<TRIPOS>ATOM
      1 N1          0.4380   -0.4670   -1.3250 n         1 ADT     -0.385000
      2 C2          0.1410    0.9230   -1.3480 c         1 ADT      0.808500
      3 O2          0.1640    1.6250   -0.3130 o         1 ADT     -0.647500
      4 N3         -0.1550    1.5250   -2.5800 n         1 ADT     -0.584500
      5 C4         -0.2560    0.8100   -3.7850 c         1 ADT      0.715700
      6 O4         -0.5240    1.4290   -4.8280 o         1 ADT     -0.603500
      7 C5         -0.0300   -0.6450   -3.6940 cc        1 ADT     -0.245400
      8 C5M        -0.1610   -1.4250   -4.9390 c3        1 ADT     -0.032900
      9 C6          0.2770   -1.2070   -2.4940 cd        1 ADT      0.034600
     10 C1'         0.6500   -1.1910   -0.0720 c3        1 ADT      0.314500
     11 O4'        -0.6000   -1.5400    0.5370 os        1 ADT     -0.436600
     12 C4'        -0.7880   -0.8560    1.7830 c3        1 ADT      0.078100
     13 C5'        -1.9540    0.1240    1.6470 c3        1 ADT      0.113400
     14 O5'        -3.1580   -0.5610    1.3750 oh        1 ADT     -0.595800
     15 C3'         0.5350   -0.1240    2.1440 c3        1 ADT      0.086700
     16 N3'         1.0420   -0.4660    3.4430 n         1 ADT     -0.579900
     17 C8'         1.1620    0.4530    4.4730 c         1 ADT      0.662100
     18 O8'         0.8560    1.6500    4.3120 o         1 ADT     -0.593100
     19 C9'         1.6870   -0.0630    5.7900 c3        1 ADT     -0.175100
     20 C2'         1.5030   -0.4750    0.9890 c3        1 ADT     -0.117400
     21 HN3        -0.3250    2.5090   -2.5720 hn        1 ADT      0.354500
     22 HM51        0.5030   -0.9950   -5.7310 hc        1 ADT      0.053367
     23 HM52        0.1130   -2.4970   -4.7790 hc        1 ADT      0.053367
     24 HM53       -1.2150   -1.3740   -5.3130 hc        1 ADT      0.053367
     25 H6          0.4340   -2.2990   -2.3940 h4        1 ADT      0.165000
     26 H1'         1.1170   -2.1840   -0.3570 h2        1 ADT      0.080700
     27 H4'        -1.0620   -1.6680    2.5130 h1        1 ADT      0.079700
     28 H5'1       -2.1290    0.6490    2.6230 h1        1 ADT      0.068700
     29 H5'2       -1.7350    0.8750    0.8410 h1        1 ADT      0.068700
     30 HO5'       -3.0220   -1.0590    0.5580 ho        1 ADT      0.407000
     31 H3'         0.3490    0.9950    2.1200 h1        1 ADT      0.130700
     32 HN3'        1.2590   -1.4170    3.6150 hn        1 ADT      0.306500
     33 H9'1        1.7390    0.7890    6.5110 hc        1 ADT      0.067700
     34 H9'2        1.0060   -0.8460    6.2030 hc        1 ADT      0.067700
     35 H9'3        2.7080   -0.4950    5.6650 hc        1 ADT      0.067700
     36 H2'1        1.9810    0.4590    0.6030 hc        1 ADT      0.079700
     37 H2'2        2.3160   -1.1710    1.3130 hc        1 ADT      0.079700
@<TRIPOS>BOND
     1    1    2 1   
     2    1    9 1   
     3    1   10 1   
     4    2    3 2   
     5    2    4 1   
     6    4    5 1   
     7    4   21 1   
     8    5    6 2   
     9    5    7 1   
    10    7    8 1   
    11    7    9 2   
    12    8   22 1   
    13    8   23 1   
    14    8   24 1   
    15    9   25 1   
    16   10   11 1   
    17   10   20 1   
    18   10   26 1   
    19   11   12 1   
    20   12   13 1   
    21   12   15 1   
    22   12   27 1   
    23   13   14 1   
    24   13   28 1   
    25   13   29 1   
    26   14   30 1   
    27   15   16 1   
    28   15   20 1   
    29   15   31 1   
    30   16   17 1   
    31   16   32 1   
    32   17   18 2   
    33   17   19 1   
    34   19   33 1   
    35   19   34 1   
    36   19   35 1   
    37   20   36 1   
    38   20   37 1   
@<TRIPOS>SUBSTRUCTURE
     1 ADT         1 TEMP              0 ****  ****    0 ROOT
