@<TRIPOS>MOLECULE
ADT
   38    39     1     0     0
SMALL
bcc


@<TRIPOS>ATOM
      1 N1         -0.4040    0.4660   -0.1550 n         1 ADT     -0.386000
      2 C2          0.9680    0.6930   -0.4580 c         1 ADT      0.822500
      3 O2          1.3320    0.9680   -1.6290 o         1 ADT     -0.703500
      4 N3          1.9030    0.6490    0.5720 ns        1 ADT     -0.574500
      5 C4          1.5730    0.3140    1.9040 c         1 ADT      0.707700
      6 O4          2.4760    0.2950    2.7490 o         1 ADT     -0.556500
      7 C5          0.1500    0.0060    2.1590 cc        1 ADT     -0.195400
      8 C5M        -0.2160   -0.3610    3.5410 c3        1 ADT     -0.047900
      9 C6         -0.7500    0.0680    1.1450 cd        1 ADT      0.006600
     10 C1'        -1.4000    0.3270   -1.1980 c3        1 ADT      0.324500
     11 O4'        -1.3570   -1.0030   -1.7750 os        1 ADT     -0.402600
     12 C4'        -1.1320   -0.9510   -3.1780 c3        1 ADT      0.131100
     13 C5'        -0.0320   -1.9370   -3.5720 c3        1 ADT      0.117400
     14 O5'         0.1320   -1.7510   -4.9730 oh        1 ADT     -0.659800
     15 C3'        -0.7190    0.5080   -3.5210 c3        1 ADT      0.079500
     16 N3'        -1.1390    0.8970   -4.8990 ny        1 ADT     -0.675800
     17 C8'        -0.4670    2.1810   -5.3560 c         1 ADT      0.554100
     18 O8'         0.5960    2.0360   -5.9340 o         1 ADT     -0.386100
     19 C9'        -1.2020    3.4430   -5.0650 c3        1 ADT     -0.186100
     20 C2'        -1.3030    1.3350   -2.3700 c3        1 ADT     -0.121400
     21 HN3         2.8540    0.8530    0.3360 hn        1 ADT      0.364500
     22 HM51        0.3820   -1.2500    3.8690 hc        1 ADT      0.066367
     23 HM52        0.0240    0.4850    4.2350 hc        1 ADT      0.066367
     24 HM53       -1.3030   -0.6030    3.6260 hc        1 ADT      0.066367
     25 H6         -1.8180   -0.1770    1.3020 h4        1 ADT      0.174000
     26 H1'        -2.4180    0.3940   -0.7050 h2        1 ADT      0.107700
     27 H4'        -2.1010   -1.2420   -3.6750 h1        1 ADT      0.072700
     28 H5'1       -0.3560   -2.9850   -3.3420 h1        1 ADT      0.074700
     29 H5'2        0.9260   -1.7070   -3.0340 h1        1 ADT      0.074700
     30 HO5'        0.7460   -2.4290   -5.2830 ho        1 ADT      0.451000
     31 H3'         0.4180    0.5800   -3.5030 hx        1 ADT      0.173700
     32 HN3'       -0.8450    0.1220   -5.5240 hn        1 ADT      0.467800
     33 H9'1       -2.1230    3.5100   -5.7010 hc        1 ADT      0.112367
     34 H9'2       -0.5330    4.3110   -5.3130 hc        1 ADT      0.112367
     35 H9'3       -1.4910    3.5050   -3.9850 hc        1 ADT      0.112367
     36 H2'1       -2.3310    1.7150   -2.5950 hc        1 ADT      0.092200
     37 H2'2       -0.6410    2.2040   -2.1230 hc        1 ADT      0.092200
     38 H3'2       -2.1550    1.0000   -4.9450 hn        1 ADT      0.467800
@<TRIPOS>BOND
     1    1    2 1   
     2    1    9 1   
     3    1   10 1   
     4    2    3 2   
     5    2    4 1   
     6    4    5 1   
     7    4   21 1   
     8    5    6 2   
     9    5    7 1   
    10    7    8 1   
    11    7    9 2   
    12    8   22 1   
    13    8   23 1   
    14    8   24 1   
    15    9   25 1   
    16   10   11 1   
    17   10   20 1   
    18   10   26 1   
    19   11   12 1   
    20   12   13 1   
    21   12   15 1   
    22   12   27 1   
    23   13   14 1   
    24   13   28 1   
    25   13   29 1   
    26   14   30 1   
    27   15   16 1   
    28   15   20 1   
    29   15   31 1   
    30   16   17 1   
    31   16   32 1   
    32   16   38 1   
    33   17   18 2   
    34   17   19 1   
    35   19   33 1   
    36   19   34 1   
    37   19   35 1   
    38   20   36 1   
    39   20   37 1   
@<TRIPOS>SUBSTRUCTURE
     1 ADT         1 TEMP              0 ****  ****    0 ROOT
