@<TRIPOS>MOLECULE
ADU
   35    36     1     0     0
SMALL
bcc


@<TRIPOS>ATOM
      1 N1         -1.0850   -1.8970    1.3680 n         1 ADU     -0.390000
      2 C2         -1.5580   -2.5400    2.5510 c         1 ADU      0.813500
      3 O2         -2.7460   -2.9080    2.6560 o         1 ADU     -0.631500
      4 N3         -0.6630   -2.7170    3.6160 n         1 ADU     -0.585500
      5 C4          0.6900   -2.3330    3.5560 c         1 ADU      0.713700
      6 O4          1.4160   -2.5340    4.5430 o         1 ADU     -0.602500
      7 C5          1.1300   -1.7170    2.2980 cc        1 ADU     -0.308200
      8 C6          0.2560   -1.5470    1.2740 cd        1 ADU      0.042600
      9 C1'        -1.9620   -1.8480    0.2070 c3        1 ADU      0.297500
     10 O4'        -1.4860   -2.7290   -0.8180 os        1 ADU     -0.420600
     11 C4'        -1.1220   -2.0200   -2.0090 c3        1 ADU      0.066100
     12 C5'         0.3140   -2.3890   -2.3830 c3        1 ADU      0.121400
     13 O5'         0.3870   -3.7080   -2.8740 oh        1 ADU     -0.589800
     14 C3'        -1.2790   -0.4990   -1.7470 c3        1 ADU      0.047700
     15 N3'        -1.8660    0.2360   -2.8290 n         1 ADU     -0.568900
     16 C8'        -1.0850    0.8650   -3.7910 c         1 ADU      0.661100
     17 O8'         0.1530    0.9260   -3.6640 o         1 ADU     -0.600100
     18 C9'        -1.8050    1.4950   -4.9550 c3        1 ADU     -0.173100
     19 C2'        -2.0780   -0.4190   -0.4130 c3        1 ADU      0.102100
     20 O2'        -3.4630   -0.2050   -0.6010 oh        1 ADU     -0.580800
     21 HN3        -1.0190   -3.1560    4.4380 hn        1 ADU      0.354500
     22 H5          2.1820   -1.4140    2.2370 ha        1 ADU      0.182000
     23 H6          0.5580   -1.1060    0.3040 h4        1 ADU      0.162000
     24 H1'        -2.9840   -2.2400    0.5080 h2        1 ADU      0.151700
     25 H4'        -1.8250   -2.3950   -2.8050 h1        1 ADU      0.085700
     26 H5'1        0.9910   -2.2650   -1.4960 h1        1 ADU      0.059700
     27 H5'2        0.6660   -1.7350   -3.2280 h1        1 ADU      0.059700
     28 HO5'        0.0560   -4.2900   -2.1780 ho        1 ADU      0.412000
     29 H3'        -0.2500   -0.0630   -1.5600 h1        1 ADU      0.096700
     30 HN3'       -2.8240    0.0560   -3.0190 hn        1 ADU      0.318500
     31 H9'1       -1.0520    2.0000   -5.6100 hc        1 ADU      0.072033
     32 H9'2       -2.3390    0.7160   -5.5510 hc        1 ADU      0.072033
     33 H9'3       -2.5430    2.2530   -4.5990 hc        1 ADU      0.072033
     34 H2'        -1.6430    0.3750    0.2480 h1        1 ADU      0.070700
     35 HO2'       -3.5950    0.7490   -0.6680 ho        1 ADU      0.417000
@<TRIPOS>BOND
     1    1    2 1   
     2    1    8 1   
     3    1    9 1   
     4    2    3 2   
     5    2    4 1   
     6    4    5 1   
     7    4   21 1   
     8    5    6 2   
     9    5    7 1   
    10    7    8 2   
    11    7   22 1   
    12    8   23 1   
    13    9   10 1   
    14    9   19 1   
    15    9   24 1   
    16   10   11 1   
    17   11   12 1   
    18   11   14 1   
    19   11   25 1   
    20   12   13 1   
    21   12   26 1   
    22   12   27 1   
    23   13   28 1   
    24   14   15 1   
    25   14   19 1   
    26   14   29 1   
    27   15   16 1   
    28   15   30 1   
    29   16   17 2   
    30   16   18 1   
    31   18   31 1   
    32   18   32 1   
    33   18   33 1   
    34   19   20 1   
    35   19   34 1   
    36   20   35 1   
@<TRIPOS>SUBSTRUCTURE
     1 ADU         1 TEMP              0 ****  ****    0 ROOT
