@<TRIPOS>MOLECULE
ADU
   36    37     1     0     0
SMALL
bcc


@<TRIPOS>ATOM
      1 N1         -0.2010   -0.0910    0.2730 n         1 ADU     -0.415000
      2 C2          1.0860   -0.6880    0.4170 c         1 ADU      0.820500
      3 O2          1.6750   -1.1220   -0.6050 o         1 ADU     -0.700500
      4 N3          1.6350   -0.8000    1.6870 n         1 ADU     -0.571500
      5 C4          0.9820   -0.3170    2.8490 c         1 ADU      0.708700
      6 O4          1.5500   -0.4450    3.9400 o         1 ADU     -0.556500
      7 C5         -0.3340    0.3000    2.6360 cc        1 ADU     -0.281200
      8 C6         -0.8650    0.4070    1.3940 cd        1 ADU      0.037600
      9 C1'        -0.6150    0.2130   -1.0870 c3        1 ADU      0.282500
     10 O4'        -1.8950    0.8590   -1.1420 os        1 ADU     -0.385600
     11 C4'        -2.8940   -0.0520   -1.6080 c3        1 ADU      0.077100
     12 C5'        -3.5340   -0.8400   -0.4570 c3        1 ADU      0.114400
     13 O5'        -3.9050    0.0250    0.5870 oh        1 ADU     -0.567800
     14 C3'        -2.1630   -1.0120   -2.5820 c3        1 ADU      0.087500
     15 N3'        -2.1850   -0.5230   -3.9980 n4        1 ADU     -0.675800
     16 C8'        -3.4710   -0.8130   -4.7480 c         1 ADU      0.556100
     17 O8'        -4.4520   -1.0790   -4.0750 o         1 ADU     -0.406100
     18 C9'        -3.3600   -0.7350   -6.2320 c3        1 ADU     -0.192100
     19 C2'        -0.7190   -1.0680   -1.9920 c3        1 ADU      0.115100
     20 O2'         0.2320   -1.0130   -3.0260 oh        1 ADU     -0.641800
     21 HN3         2.5370   -1.2260    1.7630 hn        1 ADU      0.365500
     22 H5         -0.8560    0.6630    3.5330 ha        1 ADU      0.197000
     23 H6         -1.8590    0.8640    1.1970 h4        1 ADU      0.201000
     24 H1'         0.1140    0.9540   -1.5400 h2        1 ADU      0.114700
     25 H4'        -3.6670    0.6010   -2.1000 h1        1 ADU      0.101700
     26 H5'1       -4.4120   -1.4170   -0.8510 h1        1 ADU      0.073700
     27 H5'2       -2.7860   -1.5400    0.0070 h1        1 ADU      0.073700
     28 HO5'       -4.6750    0.5330    0.2990 ho        1 ADU      0.419000
     29 H3'        -2.6350   -2.0350   -2.5710 hx        1 ADU      0.132700
     30 HN3'       -2.0220    0.4920   -3.9930 hn        1 ADU      0.476300
     31 H9'1       -2.7600   -1.5990   -6.6210 hc        1 ADU      0.119033
     32 H9'2       -2.8830    0.2220   -6.5640 hc        1 ADU      0.119033
     33 H9'3       -4.3930   -0.7940   -6.6700 hc        1 ADU      0.119033
     34 H2'        -0.6080   -2.0170   -1.3980 h1        1 ADU      0.111700
     35 HO2'        1.1050   -1.2000   -2.6310 ho        1 ADU      0.497000
     36 H3'2       -1.3950   -0.9620   -4.4980 hn        1 ADU      0.476300
@<TRIPOS>BOND
     1    1    2 1   
     2    1    8 1   
     3    1    9 1   
     4    2    3 2   
     5    2    4 1   
     6    4    5 1   
     7    4   21 1   
     8    5    6 2   
     9    5    7 1   
    10    7    8 2   
    11    7   22 1   
    12    8   23 1   
    13    9   10 1   
    14    9   19 1   
    15    9   24 1   
    16   10   11 1   
    17   11   12 1   
    18   11   14 1   
    19   11   25 1   
    20   12   13 1   
    21   12   26 1   
    22   12   27 1   
    23   13   28 1   
    24   14   15 1   
    25   14   19 1   
    26   14   29 1   
    27   15   16 1   
    28   15   30 1   
    29   15   36 1   
    30   16   17 2   
    31   16   18 1   
    32   18   31 1   
    33   18   32 1   
    34   18   33 1   
    35   19   20 1   
    36   19   34 1   
    37   20   35 1   
@<TRIPOS>SUBSTRUCTURE
     1 ADU         1 TEMP              0 ****  ****    0 ROOT
