@<TRIPOS>MOLECULE
ADU
   35    36     1     0     0
SMALL
bcc


@<TRIPOS>ATOM
      1 N1          1.3430    0.3280    1.5470 n         1 ADU     -0.401000
      2 C2          2.5640   -0.4800    1.4940 c         1 ADU      0.811500
      3 O2          2.9580   -0.9120    0.4310 o         1 ADU     -0.680500
      4 N3          3.3350   -0.7280    2.7150 n         1 ADU     -0.581500
      5 C4          2.9420   -0.1250    3.9370 c         1 ADU      0.714700
      6 O4          3.6650   -0.1990    4.9090 o         1 ADU     -0.605500
      7 C5          1.7170    0.6870    3.9930 cc        1 ADU     -0.329200
      8 C6          0.9460    0.9340    2.7670 cd        1 ADU      0.058600
      9 C1'         0.6060    0.5950    0.3410 c3        1 ADU      0.268500
     10 O4'        -0.8620    1.0380    0.6860 os        1 ADU     -0.387600
     11 C4'        -1.7670    0.1790   -0.2010 c3        1 ADU      0.116100
     12 C5'        -2.4750   -0.8910    0.6390 c3        1 ADU      0.101400
     13 O5'        -3.5030   -0.2910    1.3970 oh        1 ADU     -0.596800
     14 C3'        -0.9570   -0.3870   -1.0730 c3        1 ADU      0.077700
     15 N3'        -0.8620    0.4370   -2.2830 n         1 ADU     -0.546900
     16 C8'        -1.2470   -0.1050   -3.5490 c         1 ADU      0.657100
     17 O8'        -1.6530   -1.2480   -3.6220 o         1 ADU     -0.607100
     18 C9'        -1.2020    0.7640   -4.7930 c3        1 ADU     -0.173100
     19 C2'         0.4810   -0.4810   -0.3530 c3        1 ADU      0.105100
     20 O2'         1.5460   -0.5570   -1.3620 oh        1 ADU     -0.599800
     21 HN3         4.0940   -1.2310    2.6790 hn        1 ADU      0.353500
     22 H5          1.4450    1.1030    4.8330 ha        1 ADU      0.181000
     23 H6          0.1330    1.4720    2.8020 h4        1 ADU      0.207000
     24 H1'         1.0540    1.2870   -0.1840 h2        1 ADU      0.105700
     25 H4'        -2.4240    0.7400   -0.6610 h1        1 ADU      0.110700
     26 H5'1       -1.8300   -1.3130    1.2420 h1        1 ADU      0.041200
     27 H5'2       -2.8610   -1.5710    0.0460 h1        1 ADU      0.041200
     28 HO5'       -4.0440   -0.9210    1.7120 ho        1 ADU      0.408000
     29 H3'        -1.2780   -1.2820   -1.2990 h1        1 ADU      0.103700
     30 HN3'       -0.5760    1.3020   -2.2250 hn        1 ADU      0.322500
     31 H9'1       -0.2700    0.9960   -4.9960 hc        1 ADU      0.070033
     32 H9'2       -1.7150    1.5840   -4.6370 hc        1 ADU      0.070033
     33 H9'3       -1.5890    0.2750   -5.5490 hc        1 ADU      0.070033
     34 H2'         0.5140   -1.2640    0.2320 h1        1 ADU      0.069700
     35 HO2'        1.7710    0.2640   -1.6160 ho        1 ADU      0.448000
@<TRIPOS>BOND
     1    1    2 1   
     2    1    8 1   
     3    1    9 1   
     4    2    3 2   
     5    2    4 1   
     6    4    5 1   
     7    4   21 1   
     8    5    6 2   
     9    5    7 1   
    10    7    8 2   
    11    7   22 1   
    12    8   23 1   
    13    9   10 1   
    14    9   19 1   
    15    9   24 1   
    16   10   11 1   
    17   11   12 1   
    18   11   14 1   
    19   11   25 1   
    20   12   13 1   
    21   12   26 1   
    22   12   27 1   
    23   13   28 1   
    24   14   15 1   
    25   14   19 1   
    26   14   29 1   
    27   15   16 1   
    28   15   30 1   
    29   16   17 2   
    30   16   18 1   
    31   18   31 1   
    32   18   32 1   
    33   18   33 1   
    34   19   20 1   
    35   19   34 1   
    36   20   35 1   
@<TRIPOS>SUBSTRUCTURE
     1 ADU         1 TEMP              0 ****  ****    0 ROOT
