@<TRIPOS>MOLECULE
ADU
   36    37     1     0     0
SMALL
bcc


@<TRIPOS>ATOM
      1 N1         -0.1910   -0.0460    0.2540 n         1 ADU     -0.415000
      2 C2          1.0920   -0.6470    0.4120 c         1 ADU      0.820500
      3 O2          1.6730   -1.1190   -0.5980 o         1 ADU     -0.700500
      4 N3          1.6460   -0.7220    1.6830 n         1 ADU     -0.571500
      5 C4          1.0020   -0.1960    2.8310 c         1 ADU      0.708700
      6 O4          1.5730   -0.2930    3.9230 o         1 ADU     -0.556500
      7 C5         -0.3120    0.4240    2.6030 cc        1 ADU     -0.281200
      8 C6         -0.8470    0.4940    1.3610 cd        1 ADU      0.037600
      9 C1'        -0.6090    0.2160   -1.1130 c3        1 ADU      0.282500
     10 O4'        -1.8840    0.8700   -1.1850 os        1 ADU     -0.385600
     11 C4'        -2.8920   -0.0490   -1.6160 c3        1 ADU      0.077100
     12 C5'        -3.5320   -0.7940   -0.4370 c3        1 ADU      0.114400
     13 O5'        -3.8930    0.1070    0.5790 oh        1 ADU     -0.567800
     14 C3'        -2.1720   -1.0460   -2.5610 c3        1 ADU      0.087500
     15 N3'        -2.1970   -0.6030   -3.9920 n4        1 ADU     -0.675800
     16 C8'        -3.4880   -0.9080   -4.7270 c         1 ADU      0.556100
     17 O8'        -4.4680   -1.1470   -4.0420 o         1 ADU     -0.406100
     18 C9'        -3.3830   -0.8790   -6.2140 c3        1 ADU     -0.192100
     19 C2'        -0.7260   -1.0930   -1.9750 c3        1 ADU      0.115100
     20 O2'         0.2210   -1.0790   -3.0150 oh        1 ADU     -0.641800
     21 HN3         2.5450   -1.1510    1.7690 hn        1 ADU      0.365500
     22 H5         -0.8270    0.8200    3.4900 ha        1 ADU      0.197000
     23 H6         -1.8380    0.9510    1.1530 h4        1 ADU      0.201000
     24 H1'         0.1230    0.9360   -1.5940 h2        1 ADU      0.114700
     25 H4'        -3.6620    0.5930   -2.1260 h1        1 ADU      0.101700
     26 H5'1       -2.7870   -1.4840    0.0460 h1        1 ADU      0.073700
     27 H5'2       -4.4160   -1.3780   -0.8090 h1        1 ADU      0.073700
     28 HO5'       -4.6600    0.6110    0.2770 ho        1 ADU      0.419000
     29 H3'        -2.6510   -2.0640   -2.5140 hx        1 ADU      0.132700
     30 HN3'       -1.4120   -1.0640   -4.4810 hn        1 ADU      0.476300
     31 H9'1       -2.7900   -1.7590   -6.5770 hc        1 ADU      0.119033
     32 H9'2       -2.9020    0.0640   -6.5780 hc        1 ADU      0.119033
     33 H9'3       -4.4180   -0.9460   -6.6450 hc        1 ADU      0.119033
     34 H2'        -0.6190   -2.0230   -1.3510 h1        1 ADU      0.111700
     35 HO2'        1.0940   -1.2590   -2.6180 ho        1 ADU      0.497000
     36 H3'2       -2.0260    0.4100   -4.0210 hn        1 ADU      0.476300
@<TRIPOS>BOND
     1    1    2 1   
     2    1    8 1   
     3    1    9 1   
     4    2    3 2   
     5    2    4 1   
     6    4    5 1   
     7    4   21 1   
     8    5    6 2   
     9    5    7 1   
    10    7    8 2   
    11    7   22 1   
    12    8   23 1   
    13    9   10 1   
    14    9   19 1   
    15    9   24 1   
    16   10   11 1   
    17   11   12 1   
    18   11   14 1   
    19   11   25 1   
    20   12   13 1   
    21   12   26 1   
    22   12   27 1   
    23   13   28 1   
    24   14   15 1   
    25   14   19 1   
    26   14   29 1   
    27   15   16 1   
    28   15   30 1   
    29   15   36 1   
    30   16   17 2   
    31   16   18 1   
    32   18   31 1   
    33   18   32 1   
    34   18   33 1   
    35   19   20 1   
    36   19   34 1   
    37   20   35 1   
@<TRIPOS>SUBSTRUCTURE
     1 ADU         1 TEMP              0 ****  ****    0 ROOT
