@<TRIPOS>MOLECULE
ADU
   36    37     1     0     0
SMALL
bcc


@<TRIPOS>ATOM
      1 N1         -0.1890   -0.0860    0.2600 n         1 ADU     -0.415000
      2 C2          1.0920   -0.6960    0.4030 c         1 ADU      0.820500
      3 O2          1.6710   -1.1490   -0.6170 o         1 ADU     -0.700500
      4 N3          1.6470   -0.7990    1.6720 ns        1 ADU     -0.571500
      5 C4          1.0070   -0.2940    2.8320 c         1 ADU      0.708700
      6 O4          1.5790   -0.4170    3.9210 o         1 ADU     -0.556500
      7 C5         -0.3040    0.3350    2.6180 cc        1 ADU     -0.281200
      8 C6         -0.8400    0.4330    1.3780 cd        1 ADU      0.037600
      9 C1'        -0.6070    0.2070   -1.1010 c3        1 ADU      0.282500
     10 O4'        -1.8790    0.8660   -1.1570 os        1 ADU     -0.385600
     11 C4'        -2.8920   -0.0380   -1.6070 c3        1 ADU      0.077100
     12 C5'        -3.5340   -0.8050   -0.4430 c3        1 ADU      0.114400
     13 O5'        -3.8890    0.0760    0.5930 oh        1 ADU     -0.567800
     14 C3'        -2.1770   -1.0180   -2.5730 c3        1 ADU      0.087500
     15 N3'        -2.2010   -0.5460   -3.9940 ny        1 ADU     -0.675800
     16 C8'        -3.4950   -0.8310   -4.7340 c         1 ADU      0.556100
     17 O8'        -4.4750   -1.0770   -4.0520 o         1 ADU     -0.406100
     18 C9'        -3.3910   -0.7730   -6.2200 c3        1 ADU     -0.192100
     19 C2'        -0.7300   -1.0840   -1.9900 c3        1 ADU      0.115100
     20 O2'         0.2150   -1.0520   -3.0300 oh        1 ADU     -0.641800
     21 HN3         2.5450   -1.2340    1.7480 hn        1 ADU      0.365500
     22 H5         -0.8170    0.7140    3.5140 ha        1 ADU      0.197000
     23 H6         -1.8300    0.8980    1.1820 h4        1 ADU      0.201000
     24 H1'         0.1280    0.9330   -1.5680 h2        1 ADU      0.114700
     25 H4'        -3.6590    0.6170   -2.1020 h1        1 ADU      0.101700
     26 H5'1       -4.4200   -1.3780   -0.8250 h1        1 ADU      0.073700
     27 H5'2       -2.7910   -1.5080    0.0250 h1        1 ADU      0.073700
     28 HO5'       -4.6550    0.5900    0.3020 ho        1 ADU      0.419000
     29 H3'        -2.6610   -2.0360   -2.5470 hx        1 ADU      0.132700
     30 HN3'       -1.4190   -1.0000   -4.4940 hn        1 ADU      0.476300
     31 H9'1       -2.8030   -1.6490   -6.6010 hc        1 ADU      0.119033
     32 H9'2       -4.4270   -0.8260   -6.6510 hc        1 ADU      0.119033
     33 H9'3       -2.9050    0.1740   -6.5660 hc        1 ADU      0.119033
     34 H2'        -0.6260   -2.0270   -1.3860 h1        1 ADU      0.111700
     35 HO2'        1.0880   -1.2440   -2.6380 ho        1 ADU      0.497000
     36 H3'2       -2.0270    0.4670   -4.0030 hn        1 ADU      0.476300
@<TRIPOS>BOND
     1    1    2 1   
     2    1    8 1   
     3    1    9 1   
     4    2    3 2   
     5    2    4 1   
     6    4    5 1   
     7    4   21 1   
     8    5    6 2   
     9    5    7 1   
    10    7    8 2   
    11    7   22 1   
    12    8   23 1   
    13    9   10 1   
    14    9   19 1   
    15    9   24 1   
    16   10   11 1   
    17   11   12 1   
    18   11   14 1   
    19   11   25 1   
    20   12   13 1   
    21   12   26 1   
    22   12   27 1   
    23   13   28 1   
    24   14   15 1   
    25   14   19 1   
    26   14   29 1   
    27   15   16 1   
    28   15   30 1   
    29   15   36 1   
    30   16   17 2   
    31   16   18 1   
    32   18   31 1   
    33   18   32 1   
    34   18   33 1   
    35   19   20 1   
    36   19   34 1   
    37   20   35 1   
@<TRIPOS>SUBSTRUCTURE
     1 ADU         1 TEMP              0 ****  ****    0 ROOT
