@<TRIPOS>MOLECULE
ADX
   39    41     1     0     0
SMALL
bcc


@<TRIPOS>ATOM
      1 SB         -0.7370    0.5870   -5.7610 s6        1 ADX      1.751300
      2 O1B        -1.8250   -0.1980   -6.1520 o         1 ADX     -0.779200
      3 O2B        -1.0360    1.8390   -5.1920 o         1 ADX     -0.779200
      4 O3B         0.3200    0.5480   -6.6740 o         1 ADX     -0.779200
      5 PA         -0.1400    0.7750   -2.9360 p5        1 ADX      1.573800
      6 O1A         0.9500    1.7560   -2.7880 o         1 ADX     -0.884000
      7 O2A        -1.4670    0.9320   -2.2810 o         1 ADX     -0.884000
      8 O3A        -0.1850   -0.0010   -4.3190 os        1 ADX     -0.740100
      9 O5'         0.4240   -0.5400   -2.0040 os        1 ADX     -0.560200
     10 C5'         0.4670   -0.3020   -0.6500 c3        1 ADX      0.220400
     11 C4'        -0.7440   -0.9490    0.0580 c3        1 ADX      0.055100
     12 O4'        -0.3220   -1.5230    1.3180 os        1 ADX     -0.426600
     13 C3'        -1.9010    0.0300    0.3390 c3        1 ADX      0.125100
     14 O3'        -3.0570   -0.3340   -0.3790 oh        1 ADX     -0.659800
     15 C2'        -2.2000   -0.0960    1.8490 c3        1 ADX      0.106100
     16 O2'        -3.3930   -0.7750    2.1680 oh        1 ADX     -0.605800
     17 C1'        -0.9970   -0.9270    2.4140 c3        1 ADX      0.213800
     18 N9         -0.0600   -0.1330    3.1970 na        1 ADX     -0.258000
     19 C8          0.9220    0.7600    2.7090 cc        1 ADX      0.447700
     20 N7          1.6960    1.2950    3.6700 nd        1 ADX     -0.580100
     21 C5          1.2320    0.7290    4.8650 ca        1 ADX     -0.210200
     22 C6          1.6330    0.8770    6.2290 ca        1 ADX      0.710200
     23 N6          2.6090    1.8090    6.5660 nh        1 ADX     -0.936500
     24 N1          1.0050    0.1360    7.1950 nb        1 ADX     -0.803000
     25 C2         -0.0090   -0.6820    6.7910 ca        1 ADX      0.650900
     26 N3         -0.5100   -0.9110    5.5590 nb        1 ADX     -0.709000
     27 C4          0.1280   -0.1920    4.5830 ca        1 ADX      0.443800
     28 H5'         0.4880    0.8060   -0.4420 h1        1 ADX      0.006700
     29 H5''        1.4000   -0.7720   -0.2250 h1        1 ADX      0.006700
     30 H4'        -1.1060   -1.8190   -0.5560 h1        1 ADX      0.094700
     31 H3'        -1.6100    1.0860    0.0830 h1        1 ADX      0.102700
     32 HO3'       -2.9210   -0.0050   -1.2940 ho        1 ADX      0.505000
     33 H2'        -2.2880    0.9090    2.3370 h1        1 ADX      0.074700
     34 HO2'       -3.6550   -1.2990    1.3980 ho        1 ADX      0.432000
     35 H1'        -1.3640   -1.7700    3.0720 h2        1 ADX      0.101700
     36 H8          1.0110    0.9530    1.6250 h5        1 ADX      0.110800
     37 HN61        3.0610    1.6950    7.4420 hn        1 ADX      0.415800
     38 HN62        3.1870    2.1050    5.8130 hn        1 ADX      0.415800
     39 H2         -0.4930   -1.2520    7.6110 h5        1 ADX      0.033100
@<TRIPOS>BOND
     1    1    2 1   
     2    1    3 1   
     3    1    4 1   
     4    1    8 1   
     5    5    6 1   
     6    5    7 1   
     7    5    8 1   
     8    5    9 1   
     9    9   10 1   
    10   10   11 1   
    11   10   28 1   
    12   10   29 1   
    13   11   12 1   
    14   11   13 1   
    15   11   30 1   
    16   12   17 1   
    17   13   14 1   
    18   13   15 1   
    19   13   31 1   
    20   14   32 1   
    21   15   16 1   
    22   15   17 1   
    23   15   33 1   
    24   16   34 1   
    25   17   18 1   
    26   17   35 1   
    27   18   19 1   
    28   18   27 1   
    29   19   20 2   
    30   19   36 1   
    31   20   21 1   
    32   21   22 ar  
    33   21   27 ar  
    34   22   23 1   
    35   22   24 ar  
    36   23   37 1   
    37   23   38 1   
    38   24   25 ar  
    39   25   26 ar  
    40   25   39 1   
    41   26   27 ar  
@<TRIPOS>SUBSTRUCTURE
     1 ADX         1 TEMP              0 ****  ****    0 ROOT
