@<TRIPOS>MOLECULE
ADX
   39    34     1     0     0
SMALL
bcc


@<TRIPOS>ATOM
      1 SB          1.7630    7.1160    0.9740 ss        1 ADX      2.987000
      2 O1B         0.9990    7.5960   -0.2300 o         1 ADX     -1.098500
      3 O2B         3.1490    7.5630    0.6390 o         1 ADX     -1.098500
      4 O3B         1.2720    7.7690    2.2220 os        1 ADX     -1.167000
      5 PA          0.2750    4.9440    1.1480 p3        1 ADX      2.716000
      6 O1A        -0.3930    5.0990   -0.1770 o         1 ADX     -1.230500
      7 O2A        -0.5720    5.6000    2.2200 os        1 ADX     -1.167000
      8 O3A         1.6900    5.6280    1.1040 o         1 ADX     -1.230500
      9 O5'         0.4420    3.4160    1.4760 os        1 ADX     -0.751000
     10 C5'         0.2260    2.4700    0.4350 c3        1 ADX      0.035000
     11 C4'        -0.2180    1.1150    1.0560 c3        1 ADX     -0.045000
     12 O4'        -0.8970    0.4130    0.1870 os        1 ADX     -0.290000
     13 C3'         1.0050    0.2620    1.3910 c3        1 ADX     -0.009000
     14 O3'         1.1620    0.1780    2.7080 oh        1 ADX     -0.383000
     15 C2'         0.7080   -1.1520    0.7890 c3        1 ADX      0.001000
     16 O2'         0.9630   -2.2120    1.8100 oh        1 ADX     -0.335000
     17 C1'        -0.5360   -1.1260    0.4780 c3        1 ADX      0.126000
     18 N9         -0.7650   -1.9210   -0.6970 n3        1 ADX     -0.188000
     19 C8         -1.5240   -1.3920   -1.6670 c1        1 ADX      0.009000
     20 N7         -1.8530   -2.3840   -2.5300 n2        1 ADX     -0.146000
     21 C5         -1.2890   -3.5320   -2.0860 c1        1 ADX     -0.213000
     22 C6         -1.3590   -4.8540   -2.5530 c1        1 ADX      0.186000
     23 N6         -1.7940   -5.5760   -3.7250 n3        1 ADX     -0.335000
     24 N1         -0.7580   -5.8350   -1.8750 n1        1 ADX     -0.281000
     25 C2         -0.0730   -5.5530   -0.7240 c1        1 ADX     -0.018000
     26 N3         -0.0030   -4.2570   -0.2650 n1        1 ADX     -0.194000
     27 C4         -0.6170   -3.2530   -0.9560 c1        1 ADX      0.047000
     28 H5'         1.0450    2.3430   -0.0600 h1        1 ADX      0.071000
     29 H5''       -0.4680    2.7980   -0.1650 h1        1 ADX      0.071000
     30 H4'        -0.7510    1.2690    1.8580 h1        1 ADX      0.100000
     31 H3'         1.8200    0.6500    0.9710 h1        1 ADX      0.184000
     32 HO3'        2.0190    0.1210    2.8970 ho        1 ADX      0.287000
     33 H2'         1.2610   -1.3070   -0.0150 h1        1 ADX      0.130000
     34 HO2'        0.3120   -2.2140    2.3970 ho        1 ADX      0.222000
     35 H1'        -1.0790   -1.4650    1.2250 h2        1 ADX      0.140000
     36 H8         -1.7620   -0.4630   -1.7570 DU        1 ADX      0.283000
     37 HN61       -1.3600   -6.3600   -3.9750 hn        1 ADX      0.212000
     38 HN62       -2.4700   -5.2400   -4.2470 hn        1 ADX      0.212000
     39 H2          0.4330   -6.2490   -0.2800 ha        1 ADX      0.164000
@<TRIPOS>BOND
     1    1    2 1   
     2    1    3 1   
     3    5    6 1   
     4    5    8 1   
     5    5    9 1   
     6    9   10 1   
     7   10   11 1   
     8   10   28 1   
     9   10   29 1   
    10   11   12 1   
    11   11   13 1   
    12   11   30 1   
    13   12   17 1   
    14   13   14 1   
    15   13   15 1   
    16   13   31 1   
    17   14   32 1   
    18   15   16 1   
    19   15   17 1   
    20   15   33 1   
    21   16   34 1   
    22   17   18 1   
    23   17   35 1   
    24   18   19 1   
    25   18   27 1   
    26   19   20 1   
    27   20   21 1   
    28   21   27 1   
    29   22   23 1   
    30   22   24 1   
    31   23   37 1   
    32   23   38 1   
    33   25   26 1   
    34   25   39 1   
@<TRIPOS>SUBSTRUCTURE
     1 ADX         1 TEMP              0 ****  ****    0 ROOT
