@<TRIPOS>MOLECULE
ADY
   30    32     1     0     0
SMALL
bcc


@<TRIPOS>ATOM
      1 O5'        -0.2090   -0.9650    1.0200 oh        1 ADY     -0.583800
      2 C5'         1.1350   -0.9520    0.6020 c3        1 ADY      0.130400
      3 C4'         1.9890   -0.1030    1.5470 c3        1 ADY     -0.013900
      4 O4'         2.0650   -0.7320    2.8310 os        1 ADY     -0.412600
      5 C3'         3.4030    0.0830    1.0500 c         1 ADY      0.521100
      6 O3'         3.7590    0.6970    0.0520 o         1 ADY     -0.479100
      7 C2'         4.3430   -0.6160    2.0270 c3        1 ADY      0.008100
      8 O2'         5.1880    0.2970    2.6930 oh        1 ADY     -0.564800
      9 C1'         3.3970   -1.2160    3.1140 c3        1 ADY      0.255800
     10 N9          3.4210   -2.6530    3.1600 na        1 ADY     -0.288000
     11 C8          3.3200   -3.5710    2.0770 cc        1 ADY      0.395700
     12 N7          3.2030   -4.8460    2.4610 nd        1 ADY     -0.528100
     13 C5          3.1920   -4.8090    3.8640 ca        1 ADY     -0.241200
     14 C6          3.0920   -5.8330    4.8650 ca        1 ADY      0.768200
     15 N6          2.9950   -7.1480    4.5010 nh        1 ADY     -0.958500
     16 N1          3.1060   -5.4640    6.1920 nb        1 ADY     -0.793000
     17 C2          3.2210   -4.1420    6.4750 ca        1 ADY      0.693900
     18 N3          3.3270   -3.0740    5.6450 nb        1 ADY     -0.734000
     19 C4          3.3090   -3.4320    4.3290 ca        1 ADY      0.480800
     20 HO5'       -0.2260   -1.3210    1.9200 ho        1 ADY      0.417000
     21 H5'1        1.1240   -0.4890   -0.4210 h1        1 ADY      0.058700
     22 H5'2        1.5400   -1.9980    0.5530 h1        1 ADY      0.058700
     23 H4'         1.4890    0.8910    1.7280 h1        1 ADY      0.120700
     24 H2'         4.9550   -1.3940    1.4930 h1        1 ADY      0.085700
     25 HO2'        5.7040    0.7480    2.0100 ho        1 ADY      0.426000
     26 H1'         3.6480   -0.8120    4.1430 h2        1 ADY      0.149700
     27 H8          3.3640   -3.2280    1.0370 h5        1 ADY      0.067800
     28 HN61        2.9570   -7.3790    3.5400 hn        1 ADY      0.451300
     29 HN62        2.9060   -7.8580    5.1840 hn        1 ADY      0.451300
     30 H2          3.2270   -3.8980    7.5610 h5        1 ADY      0.055100
@<TRIPOS>BOND
     1    1    2 1   
     2    1   20 1   
     3    2    3 1   
     4    2   21 1   
     5    2   22 1   
     6    3    4 1   
     7    3    5 1   
     8    3   23 1   
     9    4    9 1   
    10    5    6 2   
    11    5    7 1   
    12    7    8 1   
    13    7    9 1   
    14    7   24 1   
    15    8   25 1   
    16    9   10 1   
    17    9   26 1   
    18   10   11 1   
    19   10   19 1   
    20   11   12 2   
    21   11   27 1   
    22   12   13 1   
    23   13   14 ar  
    24   13   19 ar  
    25   14   15 1   
    26   14   16 ar  
    27   15   28 1   
    28   15   29 1   
    29   16   17 ar  
    30   17   18 ar  
    31   17   30 1   
    32   18   19 ar  
@<TRIPOS>SUBSTRUCTURE
     1 ADY         1 TEMP              0 ****  ****    0 ROOT
