@<TRIPOS>MOLECULE
ADY
   30    28     1     0     0
SMALL
bcc


@<TRIPOS>ATOM
      1 O5'        -0.6220    3.7010   -3.6660 oh        1 ADY     -0.583800
      2 C5'        -0.7690    2.3990   -3.1530 c3        1 ADY      0.128400
      3 C4'        -0.3270    2.3720   -1.7110 c3        1 ADY     -0.009900
      4 O4'        -0.7690    1.3180   -1.1520 os        1 ADY     -0.397600
      5 C3'         1.2380    2.1540   -1.6390 c         1 ADY      0.514100
      6 O3'         2.0970    2.9320   -2.0640 o         1 ADY     -0.492100
      7 C2'         1.4850    0.9580   -0.6650 c3        1 ADY      0.010100
      8 O2'         2.5860    1.3140    0.2990 oh        1 ADY     -0.562800
      9 C1'         0.3370    0.8130   -0.1170 c3        1 ADY      0.254800
     10 N9          0.1150   -0.5920    0.2000 n3        1 ADY     -0.131400
     11 C8         -0.1590   -1.6090   -0.6560 c1        1 ADY      0.163400
     12 N7         -0.5520   -2.6770    0.0750 ne        1 ADY     -0.374400
     13 C5         -0.5210   -2.3210    1.3970 cg        1 ADY     -0.196000
     14 C6         -0.8450   -3.0190    2.5640 c1        1 ADY      0.627600
     15 N6         -1.1550   -4.3780    2.8300 n3        1 ADY     -0.821400
     16 N1         -0.7490   -2.4120    3.7580 n1        1 ADY     -0.592800
     17 C2         -0.3350   -1.1170    3.8330 c1        1 ADY      0.414300
     18 N3         -0.0150   -0.4270    2.6830 n1        1 ADY     -0.533800
     19 C4         -0.1110   -1.0390    1.4720 c1        1 ADY      0.034700
     20 HO5'       -0.9400    3.7290   -4.4960 ho        1 ADY      0.412000
     21 H5'1       -0.2220    1.7820   -3.6720 h1        1 ADY      0.061700
     22 H5'2       -1.7100    2.1300   -3.2110 h1        1 ADY      0.061700
     23 H4'        -0.6790    3.2370   -1.3880 h1        1 ADY      0.117700
     24 H2'         1.8190    0.1030   -1.0430 h1        1 ADY      0.087700
     25 HO2'        3.3900    1.1610   -0.0910 ho        1 ADY      0.425000
     26 H1'         0.2910    1.3530    0.7080 h2        1 ADY      0.149700
     27 H8         -0.1160   -1.5650   -1.6300 DU        1 ADY      0.196000
     28 HN61       -0.8020   -4.7880    3.5560 hn        1 ADY      0.450800
     29 HN62       -1.6940   -4.8420    2.2620 hn        1 ADY      0.450800
     30 H2         -0.2640   -0.6690    4.7160 ha        1 ADY      0.134500
@<TRIPOS>BOND
     1    1    2 1   
     2    1   20 1   
     3    2    3 1   
     4    2   21 1   
     5    2   22 1   
     6    3    4 1   
     7    3    5 1   
     8    3   23 1   
     9    4    9 1   
    10    5    6 2   
    11    5    7 1   
    12    7    8 1   
    13    7    9 1   
    14    7   24 1   
    15    8   25 1   
    16    9   10 1   
    17    9   26 1   
    18   10   11 2   
    19   10   19 1   
    20   11   12 2   
    21   12   13 1   
    22   13   19 3   
    23   14   15 1   
    24   14   16 3   
    25   15   28 1   
    26   15   29 1   
    27   17   18 3   
    28   17   30 1   
@<TRIPOS>SUBSTRUCTURE
     1 ADY         1 TEMP              0 ****  ****    0 ROOT
