@<TRIPOS>MOLECULE
ADY
   31    33     1     0     0
SMALL
bcc


@<TRIPOS>ATOM
      1 O5'         0.9170   -1.9560    0.6850 oh        1 ADY     -0.611800
      2 C5'         1.1750   -0.6050    0.3710 c3        1 ADY      0.125400
      3 C4'         2.0730    0.0450    1.4310 c3        1 ADY     -0.006900
      4 O4'         1.9670   -0.6880    2.6640 os        1 ADY     -0.404600
      5 C3'         3.5330    0.0690    1.0390 c         1 ADY      0.520100
      6 O3'         4.0320    0.6800    0.1050 o         1 ADY     -0.448100
      7 C2'         4.3040   -0.8040    2.0220 c3        1 ADY      0.011100
      8 O2'         5.2850   -0.0920    2.7400 oh        1 ADY     -0.566800
      9 C1'         3.2300   -1.2380    3.0680 c3        1 ADY      0.249800
     10 N9          3.1120   -2.6790    3.2100 na        1 ADY     -0.266000
     11 C8          2.7310   -3.6320    2.2390 cc        1 ADY      0.514700
     12 N7          2.6780   -4.8970    2.6990 nd        1 ADY     -0.591100
     13 C5          3.0230   -4.8020    4.0500 ca        1 ADY     -0.133200
     14 C6          3.1570   -5.7300    5.0960 ca        1 ADY      0.515200
     15 N6          2.9030   -7.1540    4.8090 n4        1 ADY     -0.814300
     16 N1          3.5100   -5.3540    6.3510 nb        1 ADY     -0.677000
     17 C2          3.7320   -4.0230    6.5520 ca        1 ADY      0.673900
     18 N3          3.6490   -3.0030    5.6570 nb        1 ADY     -0.614000
     19 C4          3.2960   -3.3900    4.4090 ca        1 ADY      0.465800
     20 HO5'        0.3270   -1.9640    1.4500 ho        1 ADY      0.421000
     21 H5'1        0.2170   -0.0260    0.2890 h1        1 ADY      0.080700
     22 H5'2        1.6900   -0.6210   -0.6270 h1        1 ADY      0.080700
     23 H4'         1.7170    1.0890    1.6670 h1        1 ADY      0.122700
     24 H2'         4.7730   -1.6700    1.4800 h1        1 ADY      0.087700
     25 HO2'        5.8370    0.3700    2.0900 ho        1 ADY      0.442000
     26 H1'         3.4590   -0.7970    4.0880 h2        1 ADY      0.151700
     27 H8          2.4830   -3.3270    1.2010 h5        1 ADY      0.132800
     28 HN61        3.5770   -7.4680    4.1000 hn        1 ADY      0.478467
     29 HN62        1.9510   -7.2450    4.4320 hn        1 ADY      0.478467
     30 H2          4.0190   -3.7390    7.5920 h5        1 ADY      0.102100
     31 H63         2.9980   -7.7280    5.6570 hn        1 ADY      0.478467
@<TRIPOS>BOND
     1    1    2 1   
     2    1   20 1   
     3    2    3 1   
     4    2   21 1   
     5    2   22 1   
     6    3    4 1   
     7    3    5 1   
     8    3   23 1   
     9    4    9 1   
    10    5    6 2   
    11    5    7 1   
    12    7    8 1   
    13    7    9 1   
    14    7   24 1   
    15    8   25 1   
    16    9   10 1   
    17    9   26 1   
    18   10   11 1   
    19   10   19 1   
    20   11   12 2   
    21   11   27 1   
    22   12   13 1   
    23   13   14 ar  
    24   13   19 ar  
    25   14   15 1   
    26   14   16 ar  
    27   15   28 1   
    28   15   29 1   
    29   15   31 1   
    30   16   17 ar  
    31   17   18 ar  
    32   17   30 1   
    33   18   19 ar  
@<TRIPOS>SUBSTRUCTURE
     1 ADY         1 TEMP              0 ****  ****    0 ROOT
