@<TRIPOS>MOLECULE
ADY
   30    32     1     0     0
SMALL
bcc


@<TRIPOS>ATOM
      1 O5'        -3.1760    2.4610   -0.9990 oh        1 ADY     -0.583800
      2 C5'        -3.1410    1.5470    0.0710 c3        1 ADY      0.130400
      3 C4'        -3.0340    0.1100   -0.4460 c3        1 ADY     -0.013900
      4 O4'        -1.7610   -0.0890   -1.0710 os        1 ADY     -0.412600
      5 C3'        -3.1630   -0.9180    0.6530 c         1 ADY      0.521100
      6 O3'        -4.1570   -1.1530    1.3290 o         1 ADY     -0.479100
      7 C2'        -1.8310   -1.6510    0.7740 c3        1 ADY      0.008100
      8 O2'        -1.9430   -3.0140    0.4250 oh        1 ADY     -0.564800
      9 C1'        -0.9250   -0.9900   -0.3130 c3        1 ADY      0.255800
     10 N9          0.2100   -0.2980    0.2350 na        1 ADY     -0.288000
     11 C8          0.2390    0.6300    1.3130 cc        1 ADY      0.395700
     12 N7          1.4220    1.2320    1.4740 nd        1 ADY     -0.528100
     13 C5          2.2360    0.7240    0.4490 ca        1 ADY     -0.241200
     14 C6          3.6020    0.9660    0.0810 ca        1 ADY      0.768200
     15 N6          4.3690    1.8370    0.8040 nh        1 ADY     -0.958500
     16 N1          4.1220    0.2960   -1.0050 nb        1 ADY     -0.793000
     17 C2          3.3040   -0.5650   -1.6630 ca        1 ADY      0.693900
     18 N3          2.0090   -0.8940   -1.4300 nb        1 ADY     -0.734000
     19 C4          1.4860   -0.2310   -0.3580 ca        1 ADY      0.480800
     20 HO5'       -2.3650    2.3340   -1.5120 ho        1 ADY      0.417000
     21 H5'1       -4.1140    1.6850    0.6130 h1        1 ADY      0.058700
     22 H5'2       -2.2780    1.7750    0.7530 h1        1 ADY      0.058700
     23 H4'        -3.7980   -0.0650   -1.2560 h1        1 ADY      0.120700
     24 H2'        -1.4210   -1.5480    1.8150 h1        1 ADY      0.085700
     25 HO2'       -2.5870   -3.4050    1.0330 ho        1 ADY      0.426000
     26 H1'        -0.5590   -1.7580   -1.0620 h2        1 ADY      0.149700
     27 H8         -0.6410    0.7910    1.9470 h5        1 ADY      0.067800
     28 HN61        5.3050    2.0240    0.5440 hn        1 ADY      0.451300
     29 HN62        3.9590    2.3250    1.5600 hn        1 ADY      0.451300
     30 H2          3.7720   -1.0780   -2.5310 h5        1 ADY      0.055100
@<TRIPOS>BOND
     1    1    2 1   
     2    1   20 1   
     3    2    3 1   
     4    2   21 1   
     5    2   22 1   
     6    3    4 1   
     7    3    5 1   
     8    3   23 1   
     9    4    9 1   
    10    5    6 2   
    11    5    7 1   
    12    7    8 1   
    13    7    9 1   
    14    7   24 1   
    15    8   25 1   
    16    9   10 1   
    17    9   26 1   
    18   10   11 1   
    19   10   19 1   
    20   11   12 2   
    21   11   27 1   
    22   12   13 1   
    23   13   14 ar  
    24   13   19 ar  
    25   14   15 1   
    26   14   16 ar  
    27   15   28 1   
    28   15   29 1   
    29   16   17 ar  
    30   17   18 ar  
    31   17   30 1   
    32   18   19 ar  
@<TRIPOS>SUBSTRUCTURE
     1 ADY         1 TEMP              0 ****  ****    0 ROOT
