@<TRIPOS>MOLECULE
ADY
   30    32     1     0     0
SMALL
bcc


@<TRIPOS>ATOM
      1 O5'        -0.1860   -0.8650    1.0650 oh        1 ADY     -0.583800
      2 C5'         1.1500   -0.9040    0.6220 c3        1 ADY      0.130400
      3 C4'         2.0520   -0.0790    1.5430 c3        1 ADY     -0.013900
      4 O4'         2.1300   -0.7000    2.8310 os        1 ADY     -0.412600
      5 C3'         3.4620    0.0510    1.0180 c         1 ADY      0.521100
      6 O3'         3.8210    0.6440    0.0080 o         1 ADY     -0.479100
      7 C2'         4.3950   -0.6740    1.9830 c3        1 ADY      0.008100
      8 O2'         5.2840    0.2130    2.6260 oh        1 ADY     -0.564800
      9 C1'         3.4480   -1.2300    3.0930 c3        1 ADY      0.255800
     10 N9          3.4200   -2.6660    3.1510 na        1 ADY     -0.288000
     11 C8          3.2660   -3.5880    2.0790 cc        1 ADY      0.395700
     12 N7          3.1090   -4.8560    2.4750 nd        1 ADY     -0.528100
     13 C5          3.1260   -4.8070    3.8780 ca        1 ADY     -0.241200
     14 C6          3.0080   -5.8190    4.8890 ca        1 ADY      0.768200
     15 N6          2.8560   -7.1320    4.5390 nv        1 ADY     -0.958500
     16 N1          3.0600   -5.4400    6.2130 nb        1 ADY     -0.793000
     17 C2          3.2290   -4.1200    6.4820 ca        1 ADY      0.693900
     18 N3          3.3580   -3.0640    5.6410 nb        1 ADY     -0.734000
     19 C4          3.3020   -3.4310    4.3280 ca        1 ADY      0.480800
     20 HO5'       -0.1990   -1.2120    1.9680 ho        1 ADY      0.417000
     21 H5'1        1.1360   -0.4490   -0.4050 h1        1 ADY      0.058700
     22 H5'2        1.5160   -1.9650    0.5740 h1        1 ADY      0.058700
     23 H4'         1.5910    0.9340    1.7250 h1        1 ADY      0.120700
     24 H2'         4.9670   -1.4780    1.4450 h1        1 ADY      0.085700
     25 HO2'        5.8030    0.6400    1.9290 ho        1 ADY      0.426000
     26 H1'         3.7330   -0.8270    4.1130 h2        1 ADY      0.149700
     27 H8          3.3030   -3.2560    1.0350 h5        1 ADY      0.067800
     28 HN61        2.7910   -7.3690    3.5810 hn        1 ADY      0.451300
     29 HN62        2.7540   -7.8330    5.2300 hn        1 ADY      0.451300
     30 H2          3.2640   -3.8680    7.5650 h5        1 ADY      0.055100
@<TRIPOS>BOND
     1    1    2 1   
     2    1   20 1   
     3    2    3 1   
     4    2   21 1   
     5    2   22 1   
     6    3    4 1   
     7    3    5 1   
     8    3   23 1   
     9    4    9 1   
    10    5    6 2   
    11    5    7 1   
    12    7    8 1   
    13    7    9 1   
    14    7   24 1   
    15    8   25 1   
    16    9   10 1   
    17    9   26 1   
    18   10   11 1   
    19   10   19 1   
    20   11   12 2   
    21   11   27 1   
    22   12   13 1   
    23   13   14 ar  
    24   13   19 ar  
    25   14   15 1   
    26   14   16 ar  
    27   15   28 1   
    28   15   29 1   
    29   16   17 ar  
    30   17   18 ar  
    31   17   30 1   
    32   18   19 ar  
@<TRIPOS>SUBSTRUCTURE
     1 ADY         1 TEMP              0 ****  ****    0 ROOT
