@<TRIPOS>MOLECULE
ADZ
   18    19     1     0     0
SMALL
bcc


@<TRIPOS>ATOM
      1 N9          0.0530   -0.0360    1.8790 na        1 ADZ     -0.263000
      2 C8          1.4580   -0.0160    1.6990 cc        1 ADZ      0.399700
      3 N7          1.8360   -0.0030    0.4120 nd        1 ADZ     -0.542100
      4 C5          0.6390   -0.0030   -0.3190 ca        1 ADZ     -0.235200
      5 C6          0.3540    0.0060   -1.7260 ca        1 ADZ      0.766200
      6 N6          1.3760    0.0240   -2.6360 nh        1 ADZ     -0.963500
      7 N1         -0.9590    0.0000   -2.1360 nb        1 ADZ     -0.799000
      8 C2         -1.9190   -0.0130   -1.1720 ca        1 ADZ      0.687900
      9 N3         -1.8040   -0.0230    0.1760 nb        1 ADZ     -0.737000
     10 C4         -0.5010   -0.0180    0.5910 ca        1 ADZ      0.457800
     11 C1'        -0.6520    0.0120    3.1150 c3        1 ADZ      0.032600
     12 H8          2.1380   -0.0210    2.5590 h5        1 ADZ      0.071800
     13 H6N1        1.1910    0.0180   -3.6080 hn        1 ADZ      0.449800
     14 H6N2        2.3090    0.0150   -2.3100 hn        1 ADZ      0.449800
     15 H2         -2.9610   -0.0170   -1.5600 h5        1 ADZ      0.051100
     16 H1'1       -0.8140    1.0790    3.4320 h1        1 ADZ      0.058033
     17 H1'2       -1.6520   -0.4860    3.0000 h1        1 ADZ      0.058033
     18 H1'3       -0.0570   -0.5190    3.9050 h1        1 ADZ      0.058033
@<TRIPOS>BOND
     1    1    2 1   
     2    1   10 1   
     3    1   11 1   
     4    2    3 2   
     5    2   12 1   
     6    3    4 1   
     7    4    5 ar  
     8    4   10 ar  
     9    5    6 1   
    10    5    7 ar  
    11    6   13 1   
    12    6   14 1   
    13    7    8 ar  
    14    8    9 ar  
    15    8   15 1   
    16    9   10 ar  
    17   11   16 1   
    18   11   17 1   
    19   11   18 1   
@<TRIPOS>SUBSTRUCTURE
     1 ADZ         1 TEMP              0 ****  ****    0 ROOT
