@<TRIPOS>MOLECULE
ADZ
   18    19     1     0     0
SMALL
bcc


@<TRIPOS>ATOM
      1 N9         -0.0350   -0.0440   -0.0260 na        1 ADZ     -0.263000
      2 C8          1.3750   -0.1830    0.0030 cc        1 ADZ      0.399700
      3 N7          1.8920   -0.1680    1.2400 nd        1 ADZ     -0.542100
      4 C5          0.7890   -0.0250    2.0940 ca        1 ADZ     -0.235200
      5 C6          0.6640    0.0590    3.5220 ca        1 ADZ      0.766200
      6 N6          1.7770   -0.0060    4.3170 nh        1 ADZ     -0.963500
      7 N1         -0.5890    0.2030    4.0700 nb        1 ADZ     -0.799000
      8 C2         -1.6460    0.2570    3.2160 ca        1 ADZ      0.687900
      9 N3         -1.6840    0.1920    1.8650 nb        1 ADZ     -0.737000
     10 C4         -0.4410    0.0490    1.3130 ca        1 ADZ      0.457800
     11 C1'        -0.8760   -0.0870   -1.1740 c3        1 ADZ      0.032600
     12 H8          1.9510   -0.2800   -0.9250 h5        1 ADZ      0.071800
     13 H6N1        1.7030    0.0600    5.3010 hn        1 ADZ      0.449800
     14 H6N2        2.6650   -0.1000    3.8920 hn        1 ADZ      0.449800
     15 H2         -2.6340    0.3720    3.7130 h5        1 ADZ      0.051100
     16 H1'1       -1.8090    0.5090   -0.9830 h1        1 ADZ      0.058033
     17 H1'2       -1.1670   -1.1480   -1.4070 h1        1 ADZ      0.058033
     18 H1'3       -0.3290    0.3440   -2.0540 h1        1 ADZ      0.058033
@<TRIPOS>BOND
     1    1    2 1   
     2    1   10 1   
     3    1   11 1   
     4    2    3 2   
     5    2   12 1   
     6    3    4 1   
     7    4    5 ar  
     8    4   10 ar  
     9    5    6 1   
    10    5    7 ar  
    11    6   13 1   
    12    6   14 1   
    13    7    8 ar  
    14    8    9 ar  
    15    8   15 1   
    16    9   10 ar  
    17   11   16 1   
    18   11   17 1   
    19   11   18 1   
@<TRIPOS>SUBSTRUCTURE
     1 ADZ         1 TEMP              0 ****  ****    0 ROOT
