@<TRIPOS>MOLECULE
ADZ
   18    14     1     0     0
SMALL
bcc


@<TRIPOS>ATOM
      1 N9         -0.0420   -0.0620   -1.5790 n2        1 ADZ     -0.180000
      2 C8          1.3100   -0.0620   -1.5790 c1        1 ADZ     -0.056000
      3 N7          1.7280   -0.0620   -0.2940 n2        1 ADZ     -0.115000
      4 C5          0.6290   -0.0620    0.5070 c1        1 ADZ     -0.244000
      5 C6          0.4830   -0.0620    1.8850 c1        1 ADZ      0.245000
      6 N6          1.4120    0.0770    2.9480 n2        1 ADZ     -0.361000
      7 N1         -0.7450   -0.0620    2.4300 n2        1 ADZ     -0.273000
      8 C2         -1.8490   -0.0620    1.6260 c1        1 ADZ      0.025000
      9 N3         -1.7070   -0.0620    0.2700 n1        1 ADZ     -0.211000
     10 C4         -0.4620   -0.0620   -0.2860 c1        1 ADZ      0.066000
     11 C1'        -0.7150    0.0710   -2.8270 c2        1 ADZ     -0.066000
     12 H8          1.8830   -0.0760   -2.3690 DU        1 ADZ      0.201000
     13 H6N1        1.1310   -0.0050    3.8120 hn        1 ADZ      0.245000
     14 H6N2        2.2900    0.2450    2.7680 hn        1 ADZ      0.245000
     15 H2         -2.7410   -0.0620    2.0230 ha        1 ADZ      0.188000
     16 H1'1       -0.2760   -0.4900   -3.4950 ha        1 ADZ      0.097333
     17 H1'2       -0.6850    1.0030   -3.1150 ha        1 ADZ      0.097333
     18 H1'3       -1.6440   -0.2090   -2.7270 ha        1 ADZ      0.097333
@<TRIPOS>BOND
     1    1    2 1   
     2    1   10 1   
     3    2    3 1   
     4    3    4 1   
     5    4    5 1   
     6    5    7 1   
     7    6   13 1   
     8    6   14 1   
     9    7    8 1   
    10    8   15 1   
    11    9   10 1   
    12   11   16 1   
    13   11   17 1   
    14   11   18 1   
@<TRIPOS>SUBSTRUCTURE
     1 ADZ         1 TEMP              0 ****  ****    0 ROOT
