@<TRIPOS>MOLECULE
ADZ
   18    19     1     0     0
SMALL
bcc


@<TRIPOS>ATOM
      1 N9         -0.0300   -0.0190   -0.0290 na        1 ADZ     -0.263000
      2 C8          1.3850   -0.0900    0.0000 cc        1 ADZ      0.399700
      3 N7          1.9000   -0.0750    1.2380 nd        1 ADZ     -0.542100
      4 C5          0.7910   -0.0010    2.0930 ca        1 ADZ     -0.235200
      5 C6          0.6600    0.0500    3.5220 ca        1 ADZ      0.766200
      6 N6          1.7740    0.0230    4.3170 nv        1 ADZ     -0.963500
      7 N1         -0.6000    0.1220    4.0700 nb        1 ADZ     -0.799000
      8 C2         -1.6570    0.1420    3.2150 ca        1 ADZ      0.687900
      9 N3         -1.6900    0.1010    1.8630 nb        1 ADZ     -0.737000
     10 C4         -0.4410    0.0290    1.3110 ca        1 ADZ      0.457800
     11 C1'        -0.8670   -0.0800   -1.1790 c3        1 ADZ      0.032600
     12 H8          1.9660   -0.1410   -0.9280 h5        1 ADZ      0.071800
     13 H6N1        2.6660   -0.0210    3.8920 hn        1 ADZ      0.449800
     14 H6N2        1.6960    0.0660    5.3020 hn        1 ADZ      0.449800
     15 H2         -2.6500    0.2010    3.7120 h5        1 ADZ      0.051100
     16 H1'1       -1.8280    0.4650   -0.9780 h1        1 ADZ      0.058033
     17 H1'2       -1.1030   -1.1490   -1.4350 h1        1 ADZ      0.058033
     18 H1'3       -0.3410    0.3970   -2.0490 h1        1 ADZ      0.058033
@<TRIPOS>BOND
     1    1    2 1   
     2    1   10 1   
     3    1   11 1   
     4    2    3 2   
     5    2   12 1   
     6    3    4 1   
     7    4    5 ar  
     8    4   10 ar  
     9    5    6 1   
    10    5    7 ar  
    11    6   13 1   
    12    6   14 1   
    13    7    8 ar  
    14    8    9 ar  
    15    8   15 1   
    16    9   10 ar  
    17   11   16 1   
    18   11   17 1   
    19   11   18 1   
@<TRIPOS>SUBSTRUCTURE
     1 ADZ         1 TEMP              0 ****  ****    0 ROOT
