@<TRIPOS>MOLECULE
ADZ
   19    20     1     0     0
SMALL
bcc


@<TRIPOS>ATOM
      1 N9         -0.0250    0.0000   -0.0290 na        1 ADZ     -0.237000
      2 C8          1.3830    0.0000    0.0210 cc        1 ADZ      0.502700
      3 N7          1.8930    0.0000    1.2710 nd        1 ADZ     -0.584100
      4 C5          0.7770    0.0000    2.1100 ca        1 ADZ     -0.138200
      5 C6          0.5920    0.0000    3.5040 ca        1 ADZ      0.521200
      6 N6          1.7860    0.0000    4.3700 n4        1 ADZ     -0.816300
      7 N1         -0.6410    0.0000    4.0660 nb        1 ADZ     -0.676000
      8 C2         -1.7060    0.0000    3.2110 ca        1 ADZ      0.672900
      9 N3         -1.7050    0.0000    1.8530 nb        1 ADZ     -0.610000
     10 C4         -0.4660    0.0000    1.3030 ca        1 ADZ      0.449800
     11 C1'        -0.8590    0.0000   -1.1930 c3        1 ADZ      0.014600
     12 H8          1.9900    0.0000   -0.9000 h5        1 ADZ      0.109800
     13 H6N1        2.3420    0.8380    4.1570 hn        1 ADZ      0.478467
     14 H6N2        2.3430   -0.8370    4.1570 hn        1 ADZ      0.478467
     15 H2         -2.7090    0.0000    3.7010 h5        1 ADZ      0.102100
     16 H1'1       -1.5110    0.9160   -1.1920 h1        1 ADZ      0.084367
     17 H1'2       -1.5130   -0.9140   -1.1910 h1        1 ADZ      0.084367
     18 H1'3       -0.2110   -0.0010   -2.1100 h1        1 ADZ      0.084367
     19 H63         1.5260   -0.0000    5.3650 hn        1 ADZ      0.478467
@<TRIPOS>BOND
     1    1    2 1   
     2    1   10 1   
     3    1   11 1   
     4    2    3 2   
     5    2   12 1   
     6    3    4 1   
     7    4    5 ar  
     8    4   10 ar  
     9    5    6 1   
    10    5    7 ar  
    11    6   13 1   
    12    6   14 1   
    13    6   19 1   
    14    7    8 ar  
    15    8    9 ar  
    16    8   15 1   
    17    9   10 ar  
    18   11   16 1   
    19   11   17 1   
    20   11   18 1   
@<TRIPOS>SUBSTRUCTURE
     1 ADZ         1 TEMP              0 ****  ****    0 ROOT
