@<TRIPOS>MOLECULE
AE1
   36    35     1     0     0
SMALL
bcc


@<TRIPOS>ATOM
      1 O1         -5.5280    0.5440   -0.1330 o         1 AE1     -0.863300
      2 C3         -4.5190   -0.1760   -0.3850 c         1 AE1      0.909600
      3 O2         -4.5080   -1.0410   -1.3150 o         1 AE1     -0.863300
      4 C2         -3.2660   -0.0120    0.4830 c3        1 AE1     -0.215400
      5 C1         -2.0220    0.3530   -0.3210 c3        1 AE1     -0.142700
      6 N          -1.7420   -0.5120   -1.4550 n3        1 AE1     -0.883800
      7 P          -0.7350    0.3600    0.7470 p5        1 AE1      1.505100
      8 O1P        -0.3290   -1.2080    0.9210 oh        1 AE1     -0.787400
      9 O2P        -1.0390    0.8780    2.0820 o         1 AE1     -0.872300
     10 C8          0.4980    1.0850   -0.0580 c3        1 AE1     -0.450600
     11 C6          1.8620    0.5440    0.3150 c3        1 AE1     -0.164700
     12 C7          2.8970    1.6750    0.5880 c         1 AE1      0.919600
     13 O4          2.6820    2.8340    0.1360 o         1 AE1     -0.847800
     14 O3          3.9330    1.3640    1.2470 o         1 AE1     -0.847800
     15 C5          2.4390   -0.3520   -0.7770 c3        1 AE1     -0.050400
     16 C16         3.4990   -1.3040   -0.2370 c3        1 AE1     -0.093700
     17 C17         2.8660   -2.4910    0.4590 c3        1 AE1     -0.082100
     18 C18         4.4010   -1.7790   -1.3570 c3        1 AE1     -0.082100
     19 H21        -3.0700   -0.9770    1.0170 hc        1 AE1      0.051200
     20 H22        -3.4290    0.7840    1.2530 hc        1 AE1      0.051200
     21 H1         -2.2020    1.3850   -0.7430 h1        1 AE1      0.089700
     22 HN1        -1.7900   -1.4610   -1.1230 hn        1 AE1      0.353800
     23 HN2        -2.4840   -0.4180   -2.1320 hn        1 AE1      0.353800
     24 H1P         0.3090   -1.5500    0.3030 ho        1 AE1      0.447000
     25 H81         0.5310    2.1930    0.1710 hc        1 AE1      0.121200
     26 H82         0.3950    1.0530   -1.1740 hc        1 AE1      0.121200
     27 H6          1.7690   -0.0370    1.2740 hc        1 AE1      0.044700
     28 H51         2.8980    0.3060   -1.5620 hc        1 AE1      0.024200
     29 H52         1.6370   -0.9500   -1.2870 hc        1 AE1      0.024200
     30 H16         4.1180   -0.7220    0.5120 hc        1 AE1      0.116700
     31 H171        3.6540   -3.1660    0.8710 hc        1 AE1      0.019033
     32 H172        2.2180   -2.1470    1.3020 hc        1 AE1      0.019033
     33 H173        2.2360   -3.0790   -0.2520 hc        1 AE1      0.019033
     34 H183        5.1670   -2.4910   -0.9650 hc        1 AE1      0.019033
     35 H181        3.8090   -2.3000   -2.1490 hc        1 AE1      0.019033
     36 H182        4.9280   -0.9120   -1.8220 hc        1 AE1      0.019033
@<TRIPOS>BOND
     1    1    2 1   
     2    2    3 1   
     3    2    4 1   
     4    4    5 1   
     5    4   19 1   
     6    4   20 1   
     7    5    6 1   
     8    5    7 1   
     9    5   21 1   
    10    6   22 1   
    11    6   23 1   
    12    7    8 1   
    13    7    9 2   
    14    7   10 1   
    15    8   24 1   
    16   10   11 1   
    17   10   25 1   
    18   10   26 1   
    19   11   12 1   
    20   11   15 1   
    21   11   27 1   
    22   12   13 1   
    23   12   14 1   
    24   15   16 1   
    25   15   28 1   
    26   15   29 1   
    27   16   17 1   
    28   16   18 1   
    29   16   30 1   
    30   17   31 1   
    31   17   32 1   
    32   17   33 1   
    33   18   34 1   
    34   18   35 1   
    35   18   36 1   
@<TRIPOS>SUBSTRUCTURE
     1 AE1         1 TEMP              0 ****  ****    0 ROOT
