@<TRIPOS>MOLECULE
AE1
   36    35     1     0     0
SMALL
bcc


@<TRIPOS>ATOM
      1 O1          1.4190   -2.2630   -0.9030 o         1 AE1     -0.863800
      2 C3          2.2760   -1.3770   -0.6310 c         1 AE1      0.907600
      3 O2          2.9920   -1.4370    0.4250 o         1 AE1     -0.863800
      4 C2          2.4290   -0.1820   -1.5730 c3        1 AE1     -0.208400
      5 C1          3.8610    0.2550   -1.8250 c3        1 AE1     -0.090700
      6 N           4.5990    0.5510   -0.5890 n4        1 AE1     -0.851600
      7 P           3.7070    1.7420   -2.7450 p5        1 AE1      1.240400
      8 O1P         3.1150    2.6860   -1.7470 o         1 AE1     -0.877500
      9 O2P         3.0440    1.4510   -4.0370 o         1 AE1     -0.877500
     10 C8          5.2900    2.2910   -2.9800 c3        1 AE1     -0.356600
     11 C6          6.3100    1.2660   -3.4050 c3        1 AE1     -0.139700
     12 C7          7.5260    1.2930   -2.4540 c         1 AE1      0.910600
     13 O4          8.6700    1.6220   -2.8720 o         1 AE1     -0.857800
     14 O3          7.3400    0.9650   -1.2320 o         1 AE1     -0.857800
     15 C5          6.7380    1.4720   -4.8520 c3        1 AE1     -0.048400
     16 C16         7.5270    0.2950   -5.4110 c3        1 AE1     -0.073700
     17 C17         6.6270   -0.8780   -5.7360 c3        1 AE1     -0.080100
     18 C18         8.2890    0.7210   -6.6500 c3        1 AE1     -0.080100
     19 H21         1.8590    0.6830   -1.1390 hc        1 AE1      0.074700
     20 H22         1.9850   -0.4190   -2.5740 hc        1 AE1      0.074700
     21 H1          4.3880   -0.5770   -2.3600 hx        1 AE1      0.094700
     22 HN1         4.4370   -0.2030    0.1020 hn        1 AE1      0.462467
     23 HN2         5.6150    0.6540   -0.8090 hn        1 AE1      0.462467
     24 H81         5.2450    3.1090   -3.7430 hc        1 AE1      0.070700
     25 H82         5.6470    2.7920   -2.0410 hc        1 AE1      0.070700
     26 H6          5.8570    0.2400   -3.3220 hc        1 AE1      0.029700
     27 H51         7.3850    2.3890   -4.8930 hc        1 AE1      0.037200
     28 H52         5.8380    1.6490   -5.4970 hc        1 AE1      0.037200
     29 H16         8.2730   -0.0150   -4.6220 hc        1 AE1      0.081700
     30 H171        5.8610   -0.5890   -6.4950 hc        1 AE1      0.018200
     31 H172        7.2260   -1.7280   -6.1440 hc        1 AE1      0.018200
     32 H173        6.0940   -1.2280   -4.8200 hc        1 AE1      0.018200
     33 H183        9.0120    1.5320   -6.3960 hc        1 AE1      0.018200
     34 H181        7.5880    1.1010   -7.4310 hc        1 AE1      0.018200
     35 H182        8.8570   -0.1410   -7.0760 hc        1 AE1      0.018200
     36 HN3         4.2270    1.4350   -0.2240 hn        1 AE1      0.462467
@<TRIPOS>BOND
     1    1    2 1   
     2    2    3 1   
     3    2    4 1   
     4    4    5 1   
     5    4   19 1   
     6    4   20 1   
     7    5    6 1   
     8    5    7 1   
     9    5   21 1   
    10    6   22 1   
    11    6   23 1   
    12    6   36 1   
    13    7    8 1   
    14    7    9 1   
    15    7   10 1   
    16   10   11 1   
    17   10   24 1   
    18   10   25 1   
    19   11   12 1   
    20   11   15 1   
    21   11   26 1   
    22   12   13 1   
    23   12   14 1   
    24   15   16 1   
    25   15   27 1   
    26   15   28 1   
    27   16   17 1   
    28   16   18 1   
    29   16   29 1   
    30   17   30 1   
    31   17   31 1   
    32   17   32 1   
    33   18   33 1   
    34   18   34 1   
    35   18   35 1   
@<TRIPOS>SUBSTRUCTURE
     1 AE1         1 TEMP              0 ****  ****    0 ROOT
