@<TRIPOS>MOLECULE
AE1
   36    35     1     0     0
SMALL
bcc


@<TRIPOS>ATOM
      1 O1          1.4600   -2.2490   -0.8170 o         1 AE1     -0.863800
      2 C3          2.3020   -1.3400   -0.5730 c         1 AE1      0.907600
      3 O2          3.0160   -1.3510    0.4860 o         1 AE1     -0.863800
      4 C2          2.4380   -0.1750   -1.5540 c3        1 AE1     -0.208400
      5 C1          3.8620    0.2780   -1.8190 c3        1 AE1     -0.090700
      6 N           4.5920    0.6280   -0.5910 nz        1 AE1     -0.851600
      7 P           3.6860    1.7300   -2.7890 p5        1 AE1      1.240400
      8 O1P         3.0750    2.6970   -1.8250 o         1 AE1     -0.877500
      9 O2P         3.0310    1.3840   -4.0720 o         1 AE1     -0.877500
     10 C8          5.2600    2.2970   -3.0380 c3        1 AE1     -0.356600
     11 C6          6.2990    1.2760   -3.4260 c3        1 AE1     -0.139700
     12 C7          7.5110    1.3560   -2.4740 c         1 AE1      0.910600
     13 O4          8.6500    1.6900   -2.9000 o         1 AE1     -0.857800
     14 O3          7.3270    1.0660   -1.2420 o         1 AE1     -0.857800
     15 C5          6.7270    1.4400   -4.8780 c3        1 AE1     -0.048400
     16 C16         7.5380    0.2580   -5.3950 c3        1 AE1     -0.073700
     17 C17         6.6590   -0.9410   -5.6820 c3        1 AE1     -0.080100
     18 C18         8.2960    0.6550   -6.6460 c3        1 AE1     -0.080100
     19 H21         1.8520    0.6940   -1.1510 hc        1 AE1      0.074700
     20 H22         2.0000   -0.4530   -2.5480 hc        1 AE1      0.074700
     21 H1          4.4050   -0.5630   -2.3240 hx        1 AE1      0.094700
     22 HN1         4.4400   -0.1050    0.1250 hn        1 AE1      0.462467
     23 HN2         5.6070    0.7400   -0.8120 hn        1 AE1      0.462467
     24 H81         5.6060    2.8350   -2.1160 hc        1 AE1      0.070700
     25 H82         5.2030    3.0880   -3.8290 hc        1 AE1      0.070700
     26 H6          5.8620    0.2460   -3.3090 hc        1 AE1      0.029700
     27 H51         5.8260    1.5790   -5.5310 hc        1 AE1      0.037200
     28 H52         7.3580    2.3660   -4.9490 hc        1 AE1      0.037200
     29 H16         8.2870   -0.0110   -4.5950 hc        1 AE1      0.081700
     30 H171        7.2750   -1.7940   -6.0590 hc        1 AE1      0.018200
     31 H172        5.8910   -0.6900   -6.4530 hc        1 AE1      0.018200
     32 H173        6.1300   -1.2680   -4.7550 hc        1 AE1      0.018200
     33 H183        7.5900    0.9960   -7.4420 hc        1 AE1      0.018200
     34 H181        8.8800   -0.2110   -7.0410 hc        1 AE1      0.018200
     35 H182        9.0040    1.4870   -6.4180 hc        1 AE1      0.018200
     36 HN3         4.2040    1.5180   -0.2580 hn        1 AE1      0.462467
@<TRIPOS>BOND
     1    1    2 1   
     2    2    3 1   
     3    2    4 1   
     4    4    5 1   
     5    4   19 1   
     6    4   20 1   
     7    5    6 1   
     8    5    7 1   
     9    5   21 1   
    10    6   22 1   
    11    6   23 1   
    12    6   36 1   
    13    7    8 1   
    14    7    9 1   
    15    7   10 1   
    16   10   11 1   
    17   10   24 1   
    18   10   25 1   
    19   11   12 1   
    20   11   15 1   
    21   11   26 1   
    22   12   13 1   
    23   12   14 1   
    24   15   16 1   
    25   15   27 1   
    26   15   28 1   
    27   16   17 1   
    28   16   18 1   
    29   16   29 1   
    30   17   30 1   
    31   17   31 1   
    32   17   32 1   
    33   18   33 1   
    34   18   34 1   
    35   18   35 1   
@<TRIPOS>SUBSTRUCTURE
     1 AE1         1 TEMP              0 ****  ****    0 ROOT
