@<TRIPOS>MOLECULE
AE1
   37    36     1     0     0
SMALL
bcc


@<TRIPOS>ATOM
      1 O1          2.8030   -2.3920    0.2830 o         1 AE1     -0.509000
      2 C3          2.7660   -1.1690    0.1400 c         1 AE1      0.644100
      3 O2          2.7290   -0.4890    1.3270 oh        1 AE1     -0.601100
      4 C2          2.7030   -0.4060   -1.1430 c3        1 AE1     -0.175400
      5 C1          4.0230    0.2510   -1.5410 c3        1 AE1     -0.117700
      6 N           4.5930    1.0710   -0.4930 n3        1 AE1     -0.916800
      7 P           3.6420    1.1710   -2.8930 p5        1 AE1      1.508100
      8 O1P         2.6300    2.3490   -2.4160 oh        1 AE1     -0.798400
      9 O2P         2.7910    0.4500   -3.8480 o         1 AE1     -0.903300
     10 C8          4.9680    1.9310   -3.4420 c3        1 AE1     -0.441600
     11 C6          6.0510    0.9460   -3.8440 c3        1 AE1     -0.178700
     12 C7          7.0540    0.6770   -2.6800 c         1 AE1      0.901600
     13 O4          7.6130   -0.4510   -2.6460 o         1 AE1     -0.827800
     14 O3          7.2280    1.5880   -1.8170 o         1 AE1     -0.827800
     15 C5          6.8290    1.4580   -5.0460 c3        1 AE1     -0.040400
     16 C16         7.6850    0.3750   -5.6900 c3        1 AE1     -0.087700
     17 C17         6.8630   -0.4930   -6.6180 c3        1 AE1     -0.081100
     18 C18         8.8390    1.0000   -6.4470 c3        1 AE1     -0.081100
     19 H21         1.9130    0.3910   -1.0530 hc        1 AE1      0.092200
     20 H22         2.4060   -1.0950   -1.9820 hc        1 AE1      0.092200
     21 H1          4.7370   -0.5830   -1.8350 h1        1 AE1      0.107700
     22 HN1         4.8620    0.4990    0.2860 hn        1 AE1      0.381800
     23 HN2         5.4230    1.5300   -0.8460 hn        1 AE1      0.381800
     24 H1P         1.7730    2.2980   -2.8320 ho        1 AE1      0.456000
     25 H81         4.7090    2.5790   -4.3210 hc        1 AE1      0.120700
     26 H82         5.4430    2.6420   -2.7030 hc        1 AE1      0.120700
     27 H6          5.5660   -0.0330   -4.1180 hc        1 AE1      0.040700
     28 H51         7.4850    2.3020   -4.7040 hc        1 AE1      0.027700
     29 H52         6.1220    1.8710   -5.8140 hc        1 AE1      0.027700
     30 H16         8.1020   -0.2730   -4.8610 hc        1 AE1      0.107700
     31 H171        7.4940   -1.3130   -7.0400 hc        1 AE1      0.022367
     32 H172        6.4530    0.1070   -7.4650 hc        1 AE1      0.022367
     33 H173        6.0090   -0.9530   -6.0640 hc        1 AE1      0.022367
     34 H183        8.4640    1.6960   -7.2350 hc        1 AE1      0.022367
     35 H181        9.4950    1.5740   -5.7490 hc        1 AE1      0.022367
     36 H182        9.4530    0.2070   -6.9390 hc        1 AE1      0.022367
     37 HN3         2.7270    0.4650    1.1650 ho        1 AE1      0.441000
@<TRIPOS>BOND
     1    1    2 2   
     2    2    3 1   
     3    2    4 1   
     4    3   37 1   
     5    4    5 1   
     6    4   19 1   
     7    4   20 1   
     8    5    6 1   
     9    5    7 1   
    10    5   21 1   
    11    6   22 1   
    12    6   23 1   
    13    7    8 1   
    14    7    9 2   
    15    7   10 1   
    16    8   24 1   
    17   10   11 1   
    18   10   25 1   
    19   10   26 1   
    20   11   12 1   
    21   11   15 1   
    22   11   27 1   
    23   12   13 1   
    24   12   14 1   
    25   15   16 1   
    26   15   28 1   
    27   15   29 1   
    28   16   17 1   
    29   16   18 1   
    30   16   30 1   
    31   17   31 1   
    32   17   32 1   
    33   17   33 1   
    34   18   34 1   
    35   18   35 1   
    36   18   36 1   
@<TRIPOS>SUBSTRUCTURE
     1 AE1         1 TEMP              0 ****  ****    0 ROOT
