@<TRIPOS>MOLECULE
AE1
   36    35     1     0     0
SMALL
bcc


@<TRIPOS>ATOM
      1 O1         -1.8100    1.7630    5.3470 o         1 AE1     -0.860800
      2 C3         -0.8050    2.4030    4.9370 c         1 AE1      0.911600
      3 O2          0.0030    2.9010    5.7630 o         1 AE1     -0.860800
      4 C2         -0.5700    2.5710    3.4520 c3        1 AE1     -0.219400
      5 C1          0.0770    1.3230    2.8990 c3        1 AE1     -0.136700
      6 N           1.4220    1.2430    3.3570 n3        1 AE1     -0.876800
      7 P           0.0580    1.3830    1.0860 p5        1 AE1      1.503100
      8 O1P         1.2190    2.3280    0.5790 oh        1 AE1     -0.801400
      9 O2P        -1.2450    1.9100    0.6240 o         1 AE1     -0.899300
     10 C8          0.3050   -0.2890    0.4220 c3        1 AE1     -0.430600
     11 C6         -0.2790   -0.3690   -0.9710 c3        1 AE1     -0.161700
     12 C7         -1.7880   -0.4370   -0.8820 c         1 AE1      0.913600
     13 O4         -2.3380   -1.3380   -0.1950 o         1 AE1     -0.851800
     14 O3         -2.4930    0.4070   -1.4940 o         1 AE1     -0.851800
     15 C5          0.2410   -1.6090   -1.6650 c3        1 AE1     -0.046400
     16 C16        -0.0000   -1.4920   -3.1540 c3        1 AE1     -0.071700
     17 C17         1.3220   -1.3090   -3.8660 c3        1 AE1     -0.083100
     18 C18        -0.6740   -2.7500   -3.6560 c3        1 AE1     -0.083100
     19 H21        -1.4250    2.7220    3.0010 hc        1 AE1      0.045200
     20 H22         0.0180    3.3380    3.3000 hc        1 AE1      0.045200
     21 H1         -0.4180    0.5370    3.2040 h1        1 AE1      0.096700
     22 HN1         1.9060    0.7100    2.7910 hn        1 AE1      0.355300
     23 HN2         1.4360    0.8860    4.2010 hn        1 AE1      0.355300
     24 H1P         1.9710    1.8620    0.5100 ho        1 AE1      0.446000
     25 H81         1.2620   -0.4870    0.3870 hc        1 AE1      0.122200
     26 H82        -0.1410   -0.9390    1.0010 hc        1 AE1      0.122200
     27 H6         -0.0190    0.4220   -1.4790 hc        1 AE1      0.060700
     28 H51        -0.2260   -2.3960   -1.3200 hc        1 AE1      0.023200
     29 H52         1.2000   -1.6990   -1.4960 hc        1 AE1      0.023200
     30 H16        -0.5740   -0.7220   -3.3310 hc        1 AE1      0.093700
     31 H171        1.1720   -1.2930   -4.8340 hc        1 AE1      0.019200
     32 H172        1.7310   -0.4640   -3.5850 hc        1 AE1      0.019200
     33 H173        1.9200   -2.0520   -3.6400 hc        1 AE1      0.019200
     34 H183       -1.5200   -2.8800   -3.1800 hc        1 AE1      0.019200
     35 H181       -0.0880   -3.5200   -3.4970 hc        1 AE1      0.019200
     36 H182       -0.8490   -2.6650   -4.6170 hc        1 AE1      0.019200
@<TRIPOS>BOND
     1    1    2 1   
     2    2    3 1   
     3    2    4 1   
     4    4    5 1   
     5    4   19 1   
     6    4   20 1   
     7    5    6 1   
     8    5    7 1   
     9    5   21 1   
    10    6   22 1   
    11    6   23 1   
    12    7    8 1   
    13    7    9 2   
    14    7   10 1   
    15    8   24 1   
    16   10   11 1   
    17   10   25 1   
    18   10   26 1   
    19   11   12 1   
    20   11   15 1   
    21   11   27 1   
    22   12   13 1   
    23   12   14 1   
    24   15   16 1   
    25   15   28 1   
    26   15   29 1   
    27   16   17 1   
    28   16   18 1   
    29   16   30 1   
    30   17   31 1   
    31   17   32 1   
    32   17   33 1   
    33   18   34 1   
    34   18   35 1   
    35   18   36 1   
@<TRIPOS>SUBSTRUCTURE
     1 AE1         1 TEMP              0 ****  ****    0 ROOT
