@<TRIPOS>MOLECULE
AE2
   51    54     1     0     0
SMALL
bcc


@<TRIPOS>ATOM
      1 C1          0.1210   -0.0290    0.0410 c3        1 AE2     -0.070400
      2 C2          1.6260   -0.1100    0.1310 c3        1 AE2     -0.112400
      3 C3          2.0690   -0.0840    1.5890 c3        1 AE2      0.142100
      4 O3          3.4870   -0.0350    1.6970 oh        1 AE2     -0.600800
      5 C4          1.5400    1.1630    2.2880 c3        1 AE2     -0.073400
      6 C5          0.0270    1.2650    2.1750 c3        1 AE2     -0.052700
      7 C6         -0.4610    2.5150    2.8930 c3        1 AE2     -0.071400
      8 C7         -0.1090    3.7850    2.1530 c3        1 AE2     -0.073400
      9 C8         -0.6180    3.7480    0.7220 c3        1 AE2     -0.045700
     10 C9         -0.0850    2.5060   -0.0160 c3        1 AE2     -0.047700
     11 C10        -0.4780    1.2120    0.7170 c3        1 AE2     -0.035000
     12 C11        -0.4920    2.5000   -1.4870 c3        1 AE2     -0.075400
     13 C12        -0.2040    3.8000   -2.2240 c3        1 AE2     -0.056400
     14 C13        -0.7750    4.9830   -1.4670 c3        1 AE2     -0.152000
     15 C14        -0.1580    4.9670   -0.0500 c3        1 AE2     -0.064700
     16 C15        -0.4190    6.3670    0.4950 c3        1 AE2     -0.072400
     17 C16        -0.2810    7.2760   -0.7300 c3        1 AE2     -0.188400
     18 C17        -0.3830    6.3770   -1.9480 c         1 AE2      0.577100
     19 O17        -0.1940    6.7270   -3.1090 o         1 AE2     -0.521100
     20 C18        -2.2980    4.9470   -1.4830 c3        1 AE2     -0.082100
     21 C19        -1.9920    1.0090    0.7260 c3        1 AE2     -0.089100
     22 H11        -0.1930   -0.0600   -1.0340 hc        1 AE2      0.042700
     23 H12        -0.3170   -0.9380    0.5360 hc        1 AE2      0.042700
     24 H21         1.9810   -1.0580   -0.3510 hc        1 AE2      0.047200
     25 H22         2.1030    0.7430   -0.4180 hc        1 AE2      0.047200
     26 H3          1.6940   -1.0080    2.1150 h1        1 AE2      0.031700
     27 HO3         3.8300   -0.7770    1.1860 ho        1 AE2      0.398000
     28 H41         1.8320    1.1240    3.3700 hc        1 AE2      0.055700
     29 H42         2.0350    2.0650    1.8430 hc        1 AE2      0.055700
     30 H5         -0.4110    0.3700    2.7070 hc        1 AE2      0.045700
     31 H61        -0.0120    2.5480    3.9210 hc        1 AE2      0.041700
     32 H62        -1.5750    2.4530    3.0180 hc        1 AE2      0.041700
     33 H71         1.0040    3.9330    2.1540 hc        1 AE2      0.042200
     34 H72        -0.5610    4.6670    2.6800 hc        1 AE2      0.042200
     35 H8         -1.7410    3.7240    0.7450 hc        1 AE2      0.055700
     36 H9          1.0430    2.5690    0.0110 hc        1 AE2      0.052700
     37 H111        0.0690    1.6820   -2.0130 hc        1 AE2      0.042700
     38 H112       -1.5850    2.2640   -1.5730 hc        1 AE2      0.042700
     39 H121       -0.6510    3.7530   -3.2520 hc        1 AE2      0.050700
     40 H122        0.9030    3.9320   -2.3440 hc        1 AE2      0.050700
     41 H14         0.9630    4.8770   -0.1720 hc        1 AE2      0.052700
     42 H151       -1.4440    6.4410    0.9360 hc        1 AE2      0.049200
     43 H152        0.3180    6.6370    1.2890 hc        1 AE2      0.049200
     44 H161        0.7040    7.8040   -0.7330 hc        1 AE2      0.074200
     45 H162       -1.0890    8.0480   -0.7610 hc        1 AE2      0.074200
     46 H181       -2.6620    5.0990   -2.5290 hc        1 AE2      0.043367
     47 H182       -2.7140    5.7550   -0.8340 hc        1 AE2      0.043367
     48 H183       -2.6820    3.9660   -1.1160 hc        1 AE2      0.043367
     49 H191       -2.5220    1.9070    1.1200 hc        1 AE2      0.035367
     50 H192       -2.3630    0.8040   -0.3070 hc        1 AE2      0.035367
     51 H193       -2.2590    0.1370    1.3710 hc        1 AE2      0.035367
@<TRIPOS>BOND
     1    1    2 1   
     2    1   11 1   
     3    1   22 1   
     4    1   23 1   
     5    2    3 1   
     6    2   24 1   
     7    2   25 1   
     8    3    4 1   
     9    3    5 1   
    10    3   26 1   
    11    4   27 1   
    12    5    6 1   
    13    5   28 1   
    14    5   29 1   
    15    6    7 1   
    16    6   11 1   
    17    6   30 1   
    18    7    8 1   
    19    7   31 1   
    20    7   32 1   
    21    8    9 1   
    22    8   33 1   
    23    8   34 1   
    24    9   10 1   
    25    9   15 1   
    26    9   35 1   
    27   10   11 1   
    28   10   12 1   
    29   10   36 1   
    30   11   21 1   
    31   12   13 1   
    32   12   37 1   
    33   12   38 1   
    34   13   14 1   
    35   13   39 1   
    36   13   40 1   
    37   14   15 1   
    38   14   18 1   
    39   14   20 1   
    40   15   16 1   
    41   15   41 1   
    42   16   17 1   
    43   16   42 1   
    44   16   43 1   
    45   17   18 1   
    46   17   44 1   
    47   17   45 1   
    48   18   19 2   
    49   20   46 1   
    50   20   47 1   
    51   20   48 1   
    52   21   49 1   
    53   21   50 1   
    54   21   51 1   
@<TRIPOS>SUBSTRUCTURE
     1 AE2         1 TEMP              0 ****  ****    0 ROOT
