@<TRIPOS>MOLECULE
AE2
   51    54     1     0     0
SMALL
bcc


@<TRIPOS>ATOM
      1 C1          1.2930   -1.0470    2.6030 c3        1 AE2     -0.070400
      2 C2          1.6110    0.3260    3.1460 c3        1 AE2     -0.112400
      3 C3          0.4090    0.8870    3.8970 c3        1 AE2      0.142100
      4 O3          0.6400    2.2280    4.3120 oh        1 AE2     -0.600800
      5 C4         -0.8190    0.9190    2.9960 c3        1 AE2     -0.073400
      6 C5         -1.1260   -0.4560    2.4220 c3        1 AE2     -0.052700
      7 C6         -2.3630   -0.3820    1.5390 c3        1 AE2     -0.071400
      8 C7         -2.1030    0.3370    0.2340 c3        1 AE2     -0.073400
      9 C8         -0.9390   -0.2870   -0.5150 c3        1 AE2     -0.045700
     10 C9          0.3250   -0.3180    0.3660 c3        1 AE2     -0.047700
     11 C10         0.0700   -1.0830    1.6760 c3        1 AE2     -0.035000
     12 C11         1.5380   -0.8400   -0.3980 c3        1 AE2     -0.075400
     13 C12         1.7690   -0.1700   -1.7450 c3        1 AE2     -0.056400
     14 C13         0.5030   -0.1940   -2.5790 c3        1 AE2     -0.152000
     15 C14        -0.6040    0.5090   -1.7590 c3        1 AE2     -0.064700
     16 C15        -1.6890    0.8300   -2.7810 c3        1 AE2     -0.072400
     17 C16        -0.9110    1.1710   -4.0560 c3        1 AE2     -0.188400
     18 C17         0.4930    0.6310   -3.8620 c         1 AE2      0.577100
     19 O17         1.4410    0.8220   -4.6190 o         1 AE2     -0.521100
     20 C18         0.1600   -1.6190   -2.9930 c3        1 AE2     -0.082100
     21 C19        -0.2290   -2.5580    1.4160 c3        1 AE2     -0.089100
     22 H11         1.0930   -1.7370    3.4680 hc        1 AE2      0.042700
     23 H12         2.1870   -1.4530    2.0630 hc        1 AE2      0.042700
     24 H21         2.4900    0.2610    3.8390 hc        1 AE2      0.047200
     25 H22         1.8910    1.0250    2.3160 hc        1 AE2      0.047200
     26 H3          0.2030    0.2530    4.8060 h1        1 AE2      0.031700
     27 HO3         1.4630    2.2250    4.8140 ho        1 AE2      0.398000
     28 H41        -1.6970    1.2800    3.5920 hc        1 AE2      0.055700
     29 H42        -0.6470    1.6640    2.1760 hc        1 AE2      0.055700
     30 H5         -1.3650   -1.1360    3.2910 hc        1 AE2      0.045700
     31 H61        -2.7220   -1.4240    1.3260 hc        1 AE2      0.041700
     32 H62        -3.1820    0.1450    2.0960 hc        1 AE2      0.041700
     33 H71        -3.0210    0.2900   -0.4100 hc        1 AE2      0.042200
     34 H72        -1.8900    1.4200    0.4310 hc        1 AE2      0.042200
     35 H8         -1.2230   -1.3340   -0.8080 hc        1 AE2      0.055700
     36 H9          0.5510    0.7510    0.6500 hc        1 AE2      0.052700
     37 H111        2.4570   -0.6690    0.2250 hc        1 AE2      0.042700
     38 H112        1.4400   -1.9460   -0.5500 hc        1 AE2      0.042700
     39 H121        2.0950    0.8920   -1.5910 hc        1 AE2      0.050700
     40 H122        2.5940   -0.7000   -2.2890 hc        1 AE2      0.050700
     41 H14        -0.1870    1.5020   -1.4130 hc        1 AE2      0.052700
     42 H151       -2.3600   -0.0480   -2.9440 hc        1 AE2      0.049200
     43 H152       -2.3200    1.6880   -2.4460 hc        1 AE2      0.049200
     44 H161       -1.3750    0.7020   -4.9580 hc        1 AE2      0.074200
     45 H162       -0.8700    2.2760   -4.2220 hc        1 AE2      0.074200
     46 H181        0.1140   -2.2960   -2.1090 hc        1 AE2      0.043367
     47 H182       -0.8290   -1.6470   -3.5120 hc        1 AE2      0.043367
     48 H183        0.9440   -2.0010   -3.6910 hc        1 AE2      0.043367
     49 H191       -0.5350   -3.0610    2.3650 hc        1 AE2      0.035367
     50 H192       -1.0530   -2.6830    0.6750 hc        1 AE2      0.035367
     51 H193        0.6800   -3.0770    1.0260 hc        1 AE2      0.035367
@<TRIPOS>BOND
     1    1    2 1   
     2    1   11 1   
     3    1   22 1   
     4    1   23 1   
     5    2    3 1   
     6    2   24 1   
     7    2   25 1   
     8    3    4 1   
     9    3    5 1   
    10    3   26 1   
    11    4   27 1   
    12    5    6 1   
    13    5   28 1   
    14    5   29 1   
    15    6    7 1   
    16    6   11 1   
    17    6   30 1   
    18    7    8 1   
    19    7   31 1   
    20    7   32 1   
    21    8    9 1   
    22    8   33 1   
    23    8   34 1   
    24    9   10 1   
    25    9   15 1   
    26    9   35 1   
    27   10   11 1   
    28   10   12 1   
    29   10   36 1   
    30   11   21 1   
    31   12   13 1   
    32   12   37 1   
    33   12   38 1   
    34   13   14 1   
    35   13   39 1   
    36   13   40 1   
    37   14   15 1   
    38   14   18 1   
    39   14   20 1   
    40   15   16 1   
    41   15   41 1   
    42   16   17 1   
    43   16   42 1   
    44   16   43 1   
    45   17   18 1   
    46   17   44 1   
    47   17   45 1   
    48   18   19 2   
    49   20   46 1   
    50   20   47 1   
    51   20   48 1   
    52   21   49 1   
    53   21   50 1   
    54   21   51 1   
@<TRIPOS>SUBSTRUCTURE
     1 AE2         1 TEMP              0 ****  ****    0 ROOT
