@<TRIPOS>MOLECULE
AE2
   51    54     1     0     0
SMALL
bcc


@<TRIPOS>ATOM
      1 C1          0.0960   -0.0360   -0.0330 c3        1 AE2     -0.074400
      2 C2          1.6020   -0.1300    0.0230 c3        1 AE2     -0.074400
      3 C3          2.0690   -0.1350    1.4740 c3        1 AE2      0.142100
      4 O3          3.4910   -0.1610    1.4450 oh        1 AE2     -0.599800
      5 C4          1.5600    1.1010    2.2050 c3        1 AE2     -0.110400
      6 C5          0.0450    1.2230    2.1230 c3        1 AE2     -0.048700
      7 C6         -0.4180    2.4650    2.8690 c3        1 AE2     -0.072400
      8 C7         -0.0670    3.7450    2.1430 c3        1 AE2     -0.073400
      9 C8         -0.6020    3.7350    0.7220 c3        1 AE2     -0.045700
     10 C9         -0.0920    2.5010   -0.0460 c3        1 AE2     -0.047700
     11 C10        -0.4830    1.1980    0.6730 c3        1 AE2     -0.035000
     12 C11        -0.5260    2.5220   -1.5090 c3        1 AE2     -0.075400
     13 C12        -0.2400    3.8310   -2.2310 c3        1 AE2     -0.056400
     14 C13        -0.7890    5.0060   -1.4450 c3        1 AE2     -0.152000
     15 C14        -0.1460    4.9620   -0.0390 c3        1 AE2     -0.064700
     16 C15        -0.3870    6.3550    0.5330 c3        1 AE2     -0.072400
     17 C16        -0.2650    7.2830   -0.6790 c3        1 AE2     -0.188400
     18 C17        -0.3960    6.4050   -1.9090 c         1 AE2      0.577100
     19 O17        -0.2250    6.7720   -3.0680 o         1 AE2     -0.520100
     20 C18        -2.3120    4.9810   -1.4330 c3        1 AE2     -0.082100
     21 C19        -1.9980    1.0060    0.7040 c3        1 AE2     -0.089100
     22 H11        -0.2380   -0.0490   -1.1030 hc        1 AE2      0.043700
     23 H12        -0.3390   -0.9510    0.4550 hc        1 AE2      0.043700
     24 H21         1.9470   -1.0710   -0.4780 hc        1 AE2      0.055700
     25 H22         2.0780    0.7290   -0.5180 hc        1 AE2      0.055700
     26 H3          1.6960   -1.0640    1.9930 h1        1 AE2      0.031700
     27 HO3         3.7890   -0.0880    2.3590 ho        1 AE2      0.398000
     28 H41         2.0520    2.0090    1.7680 hc        1 AE2      0.047200
     29 H42         1.8630    1.0450    3.2840 hc        1 AE2      0.047200
     30 H5         -0.3920    0.3240    2.6470 hc        1 AE2      0.045700
     31 H61        -1.5300    2.4110    3.0110 hc        1 AE2      0.040700
     32 H62         0.0480    2.4780    3.8890 hc        1 AE2      0.040700
     33 H71        -0.5020    4.6210    2.6930 hc        1 AE2      0.040700
     34 H72         1.0460    3.8820    2.1270 hc        1 AE2      0.040700
     35 H8         -1.7250    3.7190    0.7640 hc        1 AE2      0.055700
     36 H9          1.0360    2.5530   -0.0380 hc        1 AE2      0.052700
     37 H111        0.0210    1.7080   -2.0580 hc        1 AE2      0.043700
     38 H112       -1.6210    2.2940   -1.5810 hc        1 AE2      0.043700
     39 H121       -0.7060    3.8040   -3.2510 hc        1 AE2      0.051200
     40 H122        0.8650    3.9570   -2.3680 hc        1 AE2      0.051200
     41 H14         0.9720    4.8650   -0.1830 hc        1 AE2      0.052700
     42 H151       -1.4030    6.4300    0.9940 hc        1 AE2      0.049200
     43 H152        0.3660    6.6060    1.3180 hc        1 AE2      0.049200
     44 H161        0.7250    7.8040   -0.6930 hc        1 AE2      0.074700
     45 H162       -1.0660    8.0620   -0.6840 hc        1 AE2      0.074700
     46 H181       -2.7110    5.7810   -0.7640 hc        1 AE2      0.043367
     47 H182       -2.6930    5.1530   -2.4700 hc        1 AE2      0.043367
     48 H183       -2.6960    3.9970   -1.0760 hc        1 AE2      0.043367
     49 H191       -2.5140    1.9020    1.1210 hc        1 AE2      0.035367
     50 H192       -2.2610    0.1250    1.3380 hc        1 AE2      0.035367
     51 H193       -2.3870    0.8200   -0.3260 hc        1 AE2      0.035367
@<TRIPOS>BOND
     1    1    2 1   
     2    1   11 1   
     3    1   22 1   
     4    1   23 1   
     5    2    3 1   
     6    2   24 1   
     7    2   25 1   
     8    3    4 1   
     9    3    5 1   
    10    3   26 1   
    11    4   27 1   
    12    5    6 1   
    13    5   28 1   
    14    5   29 1   
    15    6    7 1   
    16    6   11 1   
    17    6   30 1   
    18    7    8 1   
    19    7   31 1   
    20    7   32 1   
    21    8    9 1   
    22    8   33 1   
    23    8   34 1   
    24    9   10 1   
    25    9   15 1   
    26    9   35 1   
    27   10   11 1   
    28   10   12 1   
    29   10   36 1   
    30   11   21 1   
    31   12   13 1   
    32   12   37 1   
    33   12   38 1   
    34   13   14 1   
    35   13   39 1   
    36   13   40 1   
    37   14   15 1   
    38   14   18 1   
    39   14   20 1   
    40   15   16 1   
    41   15   41 1   
    42   16   17 1   
    43   16   42 1   
    44   16   43 1   
    45   17   18 1   
    46   17   44 1   
    47   17   45 1   
    48   18   19 2   
    49   20   46 1   
    50   20   47 1   
    51   20   48 1   
    52   21   49 1   
    53   21   50 1   
    54   21   51 1   
@<TRIPOS>SUBSTRUCTURE
     1 AE2         1 TEMP              0 ****  ****    0 ROOT
