@<TRIPOS>MOLECULE
AE3
   23    22     1     0     0
SMALL
bcc


@<TRIPOS>ATOM
      1 C1         -3.8560    0.0610   -2.3120 c3        1 AE3     -0.097100
      2 C2         -2.3360    0.0510   -2.3380 c3        1 AE3      0.132400
      3 O2         -1.8460    0.1170   -1.0270 os        1 AE3     -0.428600
      4 C3         -0.4510   -0.0180   -0.9320 c3        1 AE3      0.127400
      5 C4         -0.0280    0.0870    0.5360 c3        1 AE3      0.130400
      6 O3          1.4000   -0.0260    0.6400 os        1 AE3     -0.431600
      7 C5          1.8940    0.0190    2.0110 c3        1 AE3      0.129400
      8 C6          3.4230   -0.1530    2.0120 c3        1 AE3      0.127400
      9 O4          3.9170   -0.0260    3.3490 oh        1 AE3     -0.602800
     10 H1C1       -4.1990    0.0180   -3.2330 hc        1 AE3      0.046033
     11 H1C2       -4.1760   -0.7070   -1.8120 hc        1 AE3      0.046033
     12 H1C3       -4.1670    0.8770   -1.8880 hc        1 AE3      0.046033
     13 H2C1       -2.0210   -0.7770   -2.7660 h1        1 AE3      0.025700
     14 H2C2       -2.0190    0.8130   -2.8390 h1        1 AE3      0.025700
     15 H3C1       -0.1800   -0.8990   -1.2920 h1        1 AE3      0.038700
     16 H3C2       -0.0160    0.6960   -1.4500 h1        1 AE3      0.038700
     17 H4C1       -0.3090    0.9430    0.8910 h1        1 AE3      0.042700
     18 H4C2       -0.4520   -0.6350    1.0510 h1        1 AE3      0.042700
     19 H5C1        1.6580    0.8910    2.4180 h1        1 AE3      0.042700
     20 H5C2        1.4880   -0.6960    2.5220 h1        1 AE3      0.042700
     21 H6C1        3.6520   -1.0420    1.6610 h1        1 AE3      0.035700
     22 H6C2        3.8270    0.5340    1.4490 h1        1 AE3      0.035700
     23 H4          4.7960   -0.1280    3.3490 ho        1 AE3      0.405000
@<TRIPOS>BOND
     1    1    2 1   
     2    1   10 1   
     3    1   11 1   
     4    1   12 1   
     5    2    3 1   
     6    2   13 1   
     7    2   14 1   
     8    3    4 1   
     9    4    5 1   
    10    4   15 1   
    11    4   16 1   
    12    5    6 1   
    13    5   17 1   
    14    5   18 1   
    15    6    7 1   
    16    7    8 1   
    17    7   19 1   
    18    7   20 1   
    19    8    9 1   
    20    8   21 1   
    21    8   22 1   
    22    9   23 1   
@<TRIPOS>SUBSTRUCTURE
     1 AE3         1 TEMP              0 ****  ****    0 ROOT
