@<TRIPOS>MOLECULE
AE3
   23    22     1     0     0
SMALL
bcc


@<TRIPOS>ATOM
      1 C1          0.0600    0.5070   -0.0170 c3        1 AE3     -0.097100
      2 C2          1.4170   -0.1550   -0.0120 c3        1 AE3      0.131400
      3 O2          2.0330    0.1720    1.2330 os        1 AE3     -0.427600
      4 C3          3.3400   -0.3850    1.3530 c3        1 AE3      0.126400
      5 C4          3.8060   -0.0890    2.7750 c3        1 AE3      0.129400
      6 O3          3.8380   -1.3400    3.4590 os        1 AE3     -0.438600
      7 C5          4.0850   -1.1890    4.8560 c3        1 AE3      0.087400
      8 C6          4.1470   -2.6000    5.4300 c3        1 AE3      0.131400
      9 O4          5.2620   -3.3140    4.9390 oh        1 AE3     -0.600800
     10 H1C1       -0.5570    0.1360    0.8370 hc        1 AE3      0.045367
     11 H1C2       -0.4620    0.2740   -0.9750 hc        1 AE3      0.045367
     12 H1C3        0.1660    1.6140    0.0830 hc        1 AE3      0.045367
     13 H2C1        2.0550    0.2230   -0.8560 h1        1 AE3      0.025700
     14 H2C2        1.3230   -1.2710   -0.1010 h1        1 AE3      0.025700
     15 H3C1        3.3100   -1.4910    1.1650 h1        1 AE3      0.041700
     16 H3C2        4.0200    0.1040    0.6070 h1        1 AE3      0.041700
     17 H4C1        3.0990    0.6160    3.2870 h1        1 AE3      0.044700
     18 H4C2        4.8380    0.3500    2.7680 h1        1 AE3      0.044700
     19 H5C1        5.0580   -0.6520    5.0110 h1        1 AE3      0.039700
     20 H5C2        3.2520   -0.6060    5.3290 h1        1 AE3      0.039700
     21 H6C1        4.2960   -2.5520    6.5410 h1        1 AE3      0.053200
     22 H6C2        3.1990   -3.1520    5.1930 h1        1 AE3      0.053200
     23 H4          5.1920   -3.3140    3.9750 ho        1 AE3      0.412000
@<TRIPOS>BOND
     1    1    2 1   
     2    1   10 1   
     3    1   11 1   
     4    1   12 1   
     5    2    3 1   
     6    2   13 1   
     7    2   14 1   
     8    3    4 1   
     9    4    5 1   
    10    4   15 1   
    11    4   16 1   
    12    5    6 1   
    13    5   17 1   
    14    5   18 1   
    15    6    7 1   
    16    7    8 1   
    17    7   19 1   
    18    7   20 1   
    19    8    9 1   
    20    8   21 1   
    21    8   22 1   
    22    9   23 1   
@<TRIPOS>SUBSTRUCTURE
     1 AE3         1 TEMP              0 ****  ****    0 ROOT
