@<TRIPOS>MOLECULE
AE3
   23    22     1     0     0
SMALL
bcc


@<TRIPOS>ATOM
      1 C1          0.0920    0.4880   -0.0680 c3        1 AE3     -0.097100
      2 C2          1.4480   -0.1780   -0.0370 c3        1 AE3      0.131400
      3 O2          2.0480    0.1610    1.2130 os        1 AE3     -0.427600
      4 C3          3.3510   -0.3980    1.3560 c3        1 AE3      0.126400
      5 C4          3.7990   -0.0880    2.7810 c3        1 AE3      0.129400
      6 O3          3.8250   -1.3320    3.4770 os        1 AE3     -0.438600
      7 C5          4.0550   -1.1670    4.8750 c3        1 AE3      0.087400
      8 C6          4.1140   -2.5730    5.4630 c3        1 AE3      0.131400
      9 O4          5.2360   -3.2880    4.9920 oh        1 AE3     -0.600800
     10 H1C1       -0.5370    0.1280    0.7810 hc        1 AE3      0.045367
     11 H1C2       -0.4170    0.2450   -1.0300 hc        1 AE3      0.045367
     12 H1C3        0.2000    1.5950    0.0220 hc        1 AE3      0.045367
     13 H2C1        2.0980    0.1890   -0.8760 h1        1 AE3      0.025700
     14 H2C2        1.3520   -1.2950   -0.1150 h1        1 AE3      0.025700
     15 H3C1        3.3210   -1.5060    1.1800 h1        1 AE3      0.041700
     16 H3C2        4.0430    0.0820    0.6140 h1        1 AE3      0.041700
     17 H4C1        3.0840    0.6210    3.2770 h1        1 AE3      0.044700
     18 H4C2        4.8300    0.3540    2.7830 h1        1 AE3      0.044700
     19 H5C1        5.0240   -0.6270    5.0370 h1        1 AE3      0.039700
     20 H5C2        3.2150   -0.5830    5.3330 h1        1 AE3      0.039700
     21 H6C1        4.2500   -2.5140    6.5760 h1        1 AE3      0.053200
     22 H6C2        3.1700   -3.1310    5.2200 h1        1 AE3      0.053200
     23 H4          5.1790   -3.2970    4.0280 ho        1 AE3      0.412000
@<TRIPOS>BOND
     1    1    2 1   
     2    1   10 1   
     3    1   11 1   
     4    1   12 1   
     5    2    3 1   
     6    2   13 1   
     7    2   14 1   
     8    3    4 1   
     9    4    5 1   
    10    4   15 1   
    11    4   16 1   
    12    5    6 1   
    13    5   17 1   
    14    5   18 1   
    15    6    7 1   
    16    7    8 1   
    17    7   19 1   
    18    7   20 1   
    19    8    9 1   
    20    8   21 1   
    21    8   22 1   
    22    9   23 1   
@<TRIPOS>SUBSTRUCTURE
     1 AE3         1 TEMP              0 ****  ****    0 ROOT
