@<TRIPOS>MOLECULE
AE3
   23    22     1     0     0
SMALL
bcc


@<TRIPOS>ATOM
      1 C1         -4.1390    0.8440   -0.5770 c3        1 AE3     -0.097100
      2 C2         -3.1560    0.3940    0.4790 c3        1 AE3      0.131400
      3 O2         -2.0550   -0.2000   -0.2080 os        1 AE3     -0.427600
      4 C3         -1.0580   -0.6850    0.6880 c3        1 AE3      0.126400
      5 C4          0.1120   -1.1450   -0.1770 c3        1 AE3      0.129400
      6 O3          1.1770   -0.2270    0.0620 os        1 AE3     -0.438600
      7 C5          2.2790   -0.4330   -0.8200 c3        1 AE3      0.087400
      8 C6          3.3480    0.5730   -0.4040 c3        1 AE3      0.131400
      9 O4          3.8550    0.2920    0.8830 oh        1 AE3     -0.600800
     10 H1C1       -3.6600    1.5810   -1.2650 hc        1 AE3      0.045367
     11 H1C2       -4.4850   -0.0270   -1.1830 hc        1 AE3      0.045367
     12 H1C3       -5.0190    1.3200   -0.0830 hc        1 AE3      0.045367
     13 H2C1       -2.7910    1.2640    1.0880 h1        1 AE3      0.025700
     14 H2C2       -3.6190   -0.3630    1.1670 h1        1 AE3      0.025700
     15 H3C1       -0.7380    0.1280    1.3920 h1        1 AE3      0.041700
     16 H3C2       -1.4750   -1.5460    1.2740 h1        1 AE3      0.041700
     17 H4C1        0.4420   -2.1750    0.1220 h1        1 AE3      0.044700
     18 H4C2       -0.1700   -1.1390   -1.2630 h1        1 AE3      0.044700
     19 H5C1        2.6580   -1.4830   -0.7130 h1        1 AE3      0.039700
     20 H5C2        1.9580   -0.2530   -1.8790 h1        1 AE3      0.039700
     21 H6C1        4.2320    0.4940   -1.0910 h1        1 AE3      0.053200
     22 H6C2        2.9280    1.6130   -0.4350 h1        1 AE3      0.053200
     23 H4          3.1010    0.2880    1.4870 ho        1 AE3      0.412000
@<TRIPOS>BOND
     1    1    2 1   
     2    1   10 1   
     3    1   11 1   
     4    1   12 1   
     5    2    3 1   
     6    2   13 1   
     7    2   14 1   
     8    3    4 1   
     9    4    5 1   
    10    4   15 1   
    11    4   16 1   
    12    5    6 1   
    13    5   17 1   
    14    5   18 1   
    15    6    7 1   
    16    7    8 1   
    17    7   19 1   
    18    7   20 1   
    19    8    9 1   
    20    8   21 1   
    21    8   22 1   
    22    9   23 1   
@<TRIPOS>SUBSTRUCTURE
     1 AE3         1 TEMP              0 ****  ****    0 ROOT
