@<TRIPOS>MOLECULE
AE4
   44    43     1     0     0
SMALL
bcc


@<TRIPOS>ATOM
      1 C2         -0.5890    2.0540    0.7300 c3        1 AE4     -0.097100
      2 C3         -0.2820    0.5760    0.6700 c3        1 AE4      0.131400
      3 O4          1.1300    0.4400    0.8270 os        1 AE4     -0.428600
      4 C5          1.5510   -0.9210    0.7690 c3        1 AE4      0.126400
      5 C6          3.0390   -0.9270    1.1050 c3        1 AE4      0.127400
      6 O7          3.1640   -1.5630    2.3760 os        1 AE4     -0.429600
      7 C8          4.4910   -1.4850    2.8900 c3        1 AE4      0.127400
      8 C9          4.5190   -2.3440    4.1500 c3        1 AE4      0.127400
      9 C11         5.2120   -4.4920    4.8670 c3        1 AE4      0.127400
     10 O10         5.2520   -3.5220    3.8220 os        1 AE4     -0.429600
     11 C12         6.1670   -5.6080    4.4590 c3        1 AE4      0.127400
     12 O13         7.3200   -5.4790    5.2890 os        1 AE4     -0.428600
     13 C14         8.3690   -6.3610    4.8970 c3        1 AE4      0.127400
     14 C15         9.4560   -6.2400    5.9600 c3        1 AE4      0.128400
     15 O16         9.4080   -7.4410    6.7290 os        1 AE4     -0.438600
     16 C17        10.2580   -7.3880    7.8720 c3        1 AE4      0.087400
     17 C18        10.1430   -8.7490    8.5500 c3        1 AE4      0.131400
     18 O19        10.6800   -9.7780    7.7450 oh        1 AE4     -0.600800
     19 H2C1       -0.0550    2.5970   -0.0860 hc        1 AE4      0.045033
     20 H2C2       -1.6880    2.2080    0.6150 hc        1 AE4      0.045033
     21 H2C3       -0.2590    2.4810    1.7080 hc        1 AE4      0.045033
     22 H3C1       -0.8050    0.0210    1.4940 h1        1 AE4      0.024700
     23 H3C2       -0.5930    0.1380   -0.3160 h1        1 AE4      0.024700
     24 H5C1        1.3800   -1.3160   -0.2670 h1        1 AE4      0.041700
     25 H5C2        0.9740   -1.5390    1.5070 h1        1 AE4      0.041700
     26 H6C1        3.4410    0.1200    1.1530 h1        1 AE4      0.043200
     27 H6C2        3.6120   -1.5160    0.3420 h1        1 AE4      0.043200
     28 H8C1        4.7280   -0.4170    3.1390 h1        1 AE4      0.043700
     29 H8C2        5.2250   -1.8670    2.1310 h1        1 AE4      0.043700
     30 H9C1        3.4780   -2.6110    4.4730 h1        1 AE4      0.043700
     31 H9C2        5.0440   -1.8030    4.9810 h1        1 AE4      0.043700
     32 H111        4.1670   -4.8870    4.9630 h1        1 AE4      0.043700
     33 H112        5.5320   -4.0290    5.8380 h1        1 AE4      0.043700
     34 H121        6.4540   -5.5120    3.3780 h1        1 AE4      0.044200
     35 H122        5.6960   -6.6110    4.6370 h1        1 AE4      0.044200
     36 H141        7.9880   -7.4150    4.8340 h1        1 AE4      0.043200
     37 H142        8.7640   -6.0420    3.8960 h1        1 AE4      0.043200
     38 H151        9.2720   -5.3500    6.6180 h1        1 AE4      0.045200
     39 H152       10.4660   -6.1530    5.4800 h1        1 AE4      0.045200
     40 H171       11.3140   -7.1920    7.5480 h1        1 AE4      0.039200
     41 H172        9.9180   -6.5730    8.5630 h1        1 AE4      0.039200
     42 H181       10.7580   -8.7600    9.4880 h1        1 AE4      0.053200
     43 H182        9.0690   -8.9680    8.7900 h1        1 AE4      0.053200
     44 H19        10.2110   -9.7480    6.9010 ho        1 AE4      0.412000
@<TRIPOS>BOND
     1    1    2 1   
     2    1   19 1   
     3    1   20 1   
     4    1   21 1   
     5    2    3 1   
     6    2   22 1   
     7    2   23 1   
     8    3    4 1   
     9    4    5 1   
    10    4   24 1   
    11    4   25 1   
    12    5    6 1   
    13    5   26 1   
    14    5   27 1   
    15    6    7 1   
    16    7    8 1   
    17    7   28 1   
    18    7   29 1   
    19    8   10 1   
    20    8   30 1   
    21    8   31 1   
    22    9   10 1   
    23    9   11 1   
    24    9   32 1   
    25    9   33 1   
    26   11   12 1   
    27   11   34 1   
    28   11   35 1   
    29   12   13 1   
    30   13   14 1   
    31   13   36 1   
    32   13   37 1   
    33   14   15 1   
    34   14   38 1   
    35   14   39 1   
    36   15   16 1   
    37   16   17 1   
    38   16   40 1   
    39   16   41 1   
    40   17   18 1   
    41   17   42 1   
    42   17   43 1   
    43   18   44 1   
@<TRIPOS>SUBSTRUCTURE
     1 AE4         1 TEMP              0 ****  ****    0 ROOT
