@<TRIPOS>MOLECULE
AE4
   44    43     1     0     0
SMALL
bcc


@<TRIPOS>ATOM
      1 C2         -0.6400    2.0180    0.7500 c3        1 AE4     -0.097100
      2 C3         -0.2730    0.5580    0.6280 c3        1 AE4      0.131400
      3 O4          1.1330    0.4650    0.8520 os        1 AE4     -0.428600
      4 C5          1.6100   -0.8750    0.7450 c3        1 AE4      0.126400
      5 C6          3.0780   -0.8450    1.1570 c3        1 AE4      0.127400
      6 O7          3.1640   -1.5480    2.3950 os        1 AE4     -0.429600
      7 C8          4.4610   -1.4520    2.9810 c3        1 AE4      0.127400
      8 C9          4.4590   -2.3820    4.1900 c3        1 AE4      0.127400
      9 C11         5.2000   -4.5420    4.8180 c3        1 AE4      0.127400
     10 O10         5.2530   -3.5120    3.8330 os        1 AE4     -0.429600
     11 C12         6.2150   -5.5980    4.3950 c3        1 AE4      0.127400
     12 O13         7.3220   -5.4780    5.2870 os        1 AE4     -0.428600
     13 C14         8.4220   -6.2960    4.8970 c3        1 AE4      0.127400
     14 C15         9.4520   -6.1990    6.0180 c3        1 AE4      0.128400
     15 O16         9.4160   -7.4460    6.7120 os        1 AE4     -0.438600
     16 C17        10.2100   -7.4310    7.8960 c3        1 AE4      0.087400
     17 C18        10.1190   -8.8350    8.4850 c3        1 AE4      0.131400
     18 O19        10.7340   -9.7910    7.6480 oh        1 AE4     -0.600800
     19 H2C1       -0.0880    2.6230   -0.0080 hc        1 AE4      0.045033
     20 H2C2       -1.7370    2.1380    0.5850 hc        1 AE4      0.045033
     21 H2C3       -0.3780    2.4020    1.7640 hc        1 AE4      0.045033
     22 H3C1       -0.8150   -0.0610    1.3930 h1        1 AE4      0.024700
     23 H3C2       -0.5150    0.1630   -0.3950 h1        1 AE4      0.024700
     24 H5C1        1.5080   -1.2190   -0.3180 h1        1 AE4      0.041700
     25 H5C2        1.0210   -1.5530    1.4170 h1        1 AE4      0.041700
     26 H6C1        3.4350    0.2120    1.2850 h1        1 AE4      0.043200
     27 H6C2        3.7130   -1.3670    0.3930 h1        1 AE4      0.043200
     28 H8C1        4.6420   -0.3930    3.3030 h1        1 AE4      0.043700
     29 H8C2        5.2460   -1.7620    2.2410 h1        1 AE4      0.043700
     30 H9C1        3.4150   -2.7050    4.4430 h1        1 AE4      0.043700
     31 H9C2        4.9220   -1.8730    5.0760 h1        1 AE4      0.043700
     32 H111        4.1670   -4.9790    4.8400 h1        1 AE4      0.043700
     33 H112        5.4550   -4.1260    5.8290 h1        1 AE4      0.043700
     34 H121        6.5490   -5.4290    3.3370 h1        1 AE4      0.044200
     35 H122        5.7750   -6.6260    4.4930 h1        1 AE4      0.044200
     36 H141        8.0850   -7.3580    4.7560 h1        1 AE4      0.043200
     37 H142        8.8510   -5.9050    3.9370 h1        1 AE4      0.043200
     38 H151        9.2010   -5.3590    6.7180 h1        1 AE4      0.045200
     39 H152       10.4790   -6.0460    5.5940 h1        1 AE4      0.045200
     40 H171       11.2710   -7.1760    7.6360 h1        1 AE4      0.039200
     41 H172        9.8060   -6.6730    8.6170 h1        1 AE4      0.039200
     42 H181       10.6900   -8.8800    9.4500 h1        1 AE4      0.053200
     43 H182        9.0450   -9.1080    8.6600 h1        1 AE4      0.053200
     44 H19        10.3040   -9.7280    6.7850 ho        1 AE4      0.412000
@<TRIPOS>BOND
     1    1    2 1   
     2    1   19 1   
     3    1   20 1   
     4    1   21 1   
     5    2    3 1   
     6    2   22 1   
     7    2   23 1   
     8    3    4 1   
     9    4    5 1   
    10    4   24 1   
    11    4   25 1   
    12    5    6 1   
    13    5   26 1   
    14    5   27 1   
    15    6    7 1   
    16    7    8 1   
    17    7   28 1   
    18    7   29 1   
    19    8   10 1   
    20    8   30 1   
    21    8   31 1   
    22    9   10 1   
    23    9   11 1   
    24    9   32 1   
    25    9   33 1   
    26   11   12 1   
    27   11   34 1   
    28   11   35 1   
    29   12   13 1   
    30   13   14 1   
    31   13   36 1   
    32   13   37 1   
    33   14   15 1   
    34   14   38 1   
    35   14   39 1   
    36   15   16 1   
    37   16   17 1   
    38   16   40 1   
    39   16   41 1   
    40   17   18 1   
    41   17   42 1   
    42   17   43 1   
    43   18   44 1   
@<TRIPOS>SUBSTRUCTURE
     1 AE4         1 TEMP              0 ****  ****    0 ROOT
