@<TRIPOS>MOLECULE
AE4
   44    43     1     0     0
SMALL
bcc


@<TRIPOS>ATOM
      1 C2         -0.0820   -8.3260   -4.4110 c3        1 AE4     -0.097100
      2 C3          0.3490   -6.8460   -4.4240 c3        1 AE4      0.131400
      3 O4         -0.6610   -6.0540   -3.7940 os        1 AE4     -0.427600
      4 C5         -0.4770   -4.6350   -3.9410 c3        1 AE4      0.126400
      5 C6         -1.4160   -3.8860   -2.9270 c3        1 AE4      0.128400
      6 O7         -0.7120   -2.7470   -2.3570 os        1 AE4     -0.429600
      7 C8         -1.5470   -1.8780   -1.5750 c3        1 AE4      0.128400
      8 C9         -0.7400   -0.6850   -1.1180 c3        1 AE4      0.130400
      9 C11        -0.6230    0.4560    1.0160 c3        1 AE4      0.130400
     10 O10        -1.4620    0.0170   -0.0700 os        1 AE4     -0.430600
     11 C12        -1.1450    1.7880    1.5720 c3        1 AE4      0.128400
     12 O13        -0.1030    2.4480    2.2840 os        1 AE4     -0.428600
     13 C14        -0.5040    3.6770    2.8730 c3        1 AE4      0.128400
     14 C15         0.5920    4.1900    3.7920 c3        1 AE4      0.128400
     15 O16         0.9180    5.5390    3.4430 os        1 AE4     -0.430600
     16 C17         2.0380    6.0830    4.1840 c3        1 AE4      0.128400
     17 C18         2.1050    7.5970    3.9620 c3        1 AE4      0.127400
     18 O19         3.5170    8.0280    3.8830 oh        1 AE4     -0.602800
     19 H2C1        0.6930   -8.8870   -4.5420 hc        1 AE4      0.045033
     20 H2C2       -0.7300   -8.4860   -5.1360 hc        1 AE4      0.045033
     21 H2C3       -0.4950   -8.5360   -3.5550 hc        1 AE4      0.045033
     22 H3C1        1.2160   -6.7450   -3.9220 h1        1 AE4      0.025200
     23 H3C2        0.4720   -6.5470   -5.3590 h1        1 AE4      0.025200
     24 H5C1        0.4380   -4.4090   -3.7600 h1        1 AE4      0.042200
     25 H5C2       -0.7090   -4.3620   -4.8760 h1        1 AE4      0.042200
     26 H6C1       -2.2190   -3.5740   -3.3950 h1        1 AE4      0.044700
     27 H6C2       -1.6810   -4.5160   -2.1920 h1        1 AE4      0.044700
     28 H8C1       -2.3170   -1.5680   -2.1300 h1        1 AE4      0.041200
     29 H8C2       -1.8900   -2.3740   -0.7760 h1        1 AE4      0.041200
     30 H9C1        0.1300   -0.9940   -0.7680 h1        1 AE4      0.041700
     31 H9C2       -0.5880   -0.0690   -1.8880 h1        1 AE4      0.041700
     32 H111       -0.6310   -0.2380    1.7490 h1        1 AE4      0.042200
     33 H112        0.3060    0.5770    0.6840 h1        1 AE4      0.042200
     34 H121       -1.9170    1.6120    2.1970 h1        1 AE4      0.040700
     35 H122       -1.4500    2.3630    0.8240 h1        1 AE4      0.040700
     36 H141       -1.3260    3.5380    3.3920 h1        1 AE4      0.044700
     37 H142       -0.6670    4.3140    2.1920 h1        1 AE4      0.044700
     38 H151        0.2860    4.1600    4.7020 h1        1 AE4      0.044700
     39 H152        1.3780    3.6330    3.6990 h1        1 AE4      0.044700
     40 H171        2.8830    5.6610    3.8650 h1        1 AE4      0.041700
     41 H172        1.9180    5.8980    5.1410 h1        1 AE4      0.041700
     42 H181        1.6410    7.8280    3.1110 h1        1 AE4      0.035700
     43 H182        1.6600    8.0630    4.7200 h1        1 AE4      0.035700
     44 H19         3.5530    8.8930    3.6310 ho        1 AE4      0.405000
@<TRIPOS>BOND
     1    1    2 1   
     2    1   19 1   
     3    1   20 1   
     4    1   21 1   
     5    2    3 1   
     6    2   22 1   
     7    2   23 1   
     8    3    4 1   
     9    4    5 1   
    10    4   24 1   
    11    4   25 1   
    12    5    6 1   
    13    5   26 1   
    14    5   27 1   
    15    6    7 1   
    16    7    8 1   
    17    7   28 1   
    18    7   29 1   
    19    8   10 1   
    20    8   30 1   
    21    8   31 1   
    22    9   10 1   
    23    9   11 1   
    24    9   32 1   
    25    9   33 1   
    26   11   12 1   
    27   11   34 1   
    28   11   35 1   
    29   12   13 1   
    30   13   14 1   
    31   13   36 1   
    32   13   37 1   
    33   14   15 1   
    34   14   38 1   
    35   14   39 1   
    36   15   16 1   
    37   16   17 1   
    38   16   40 1   
    39   16   41 1   
    40   17   18 1   
    41   17   42 1   
    42   17   43 1   
    43   18   44 1   
@<TRIPOS>SUBSTRUCTURE
     1 AE4         1 TEMP              0 ****  ****    0 ROOT
