@<TRIPOS>MOLECULE
AE4
   44    43     1     0     0
SMALL
bcc


@<TRIPOS>ATOM
      1 C2         -9.0750   -0.2090   -0.5790 c3        1 AE4     -0.097100
      2 C3         -7.9680    0.8150   -0.4890 c3        1 AE4      0.131400
      3 O4         -6.9160    0.2220    0.2720 os        1 AE4     -0.428600
      4 C5         -5.8110    1.1050    0.4450 c3        1 AE4      0.126400
      5 C6         -4.7140    0.2950    1.1300 c3        1 AE4      0.127400
      6 O7         -3.6720    0.1330    0.1700 os        1 AE4     -0.429600
      7 C8         -2.6520   -0.7540    0.6250 c3        1 AE4      0.127400
      8 C9         -1.5350   -0.6970   -0.4120 c3        1 AE4      0.127400
      9 C11         0.5850    0.3060   -0.7410 c3        1 AE4      0.127400
     10 O10        -0.4660    0.0350    0.1840 os        1 AE4     -0.429600
     11 C12         1.7200    0.9300    0.0630 c3        1 AE4      0.127400
     12 O13         2.7360   -0.0660    0.1700 os        1 AE4     -0.428600
     13 C14         3.7890    0.3290    1.0460 c3        1 AE4      0.127400
     14 C15         4.8700   -0.7410    0.9320 c3        1 AE4      0.128400
     15 O16         5.9400   -0.1600    0.1890 os        1 AE4     -0.438600
     16 C17         6.9500   -1.1110   -0.1430 c3        1 AE4      0.087400
     17 C18         8.0400   -0.3340   -0.8740 c3        1 AE4      0.131400
     18 O19         8.6800    0.5920   -0.0220 oh        1 AE4     -0.600800
     19 H2C1       -8.7060   -1.1380   -1.0760 hc        1 AE4      0.045033
     20 H2C2       -9.4400   -0.4790    0.4400 hc        1 AE4      0.045033
     21 H2C3       -9.9210    0.2130   -1.1720 hc        1 AE4      0.045033
     22 H3C1       -7.5840    1.0870   -1.5080 h1        1 AE4      0.024700
     23 H3C2       -8.3210    1.7480    0.0260 h1        1 AE4      0.024700
     24 H5C1       -5.4600    1.4890   -0.5490 h1        1 AE4      0.041700
     25 H5C2       -6.1240    1.9660    1.0910 h1        1 AE4      0.041700
     26 H6C1       -4.3120    0.8490    2.0190 h1        1 AE4      0.043200
     27 H6C2       -5.1030   -0.7070    1.4540 h1        1 AE4      0.043200
     28 H8C1       -2.2780   -0.4310    1.6330 h1        1 AE4      0.043700
     29 H8C2       -3.0700   -1.7920    0.6930 h1        1 AE4      0.043700
     30 H9C1       -1.1790   -1.7310   -0.6600 h1        1 AE4      0.043700
     31 H9C2       -1.8840   -0.1830   -1.3460 h1        1 AE4      0.043700
     32 H111        0.9210   -0.6430   -1.2360 h1        1 AE4      0.043700
     33 H112        0.2140    1.0260   -1.5180 h1        1 AE4      0.043700
     34 H121        2.1360    1.8230   -0.4750 h1        1 AE4      0.044200
     35 H122        1.3660    1.2350    1.0830 h1        1 AE4      0.044200
     36 H141        4.1890    1.3330    0.7450 h1        1 AE4      0.043200
     37 H142        3.3970    0.3780    2.0960 h1        1 AE4      0.043200
     38 H151        5.2450   -1.0300    1.9490 h1        1 AE4      0.045200
     39 H152        4.4770   -1.6490    0.4020 h1        1 AE4      0.045200
     40 H171        7.3530   -1.5760    0.7940 h1        1 AE4      0.039200
     41 H172        6.5200   -1.9070   -0.8060 h1        1 AE4      0.039200
     42 H181        8.8500   -1.0360   -1.2060 h1        1 AE4      0.053200
     43 H182        7.6030    0.1960   -1.7620 h1        1 AE4      0.053200
     44 H19         7.9920    1.1710    0.3310 ho        1 AE4      0.412000
@<TRIPOS>BOND
     1    1    2 1   
     2    1   19 1   
     3    1   20 1   
     4    1   21 1   
     5    2    3 1   
     6    2   22 1   
     7    2   23 1   
     8    3    4 1   
     9    4    5 1   
    10    4   24 1   
    11    4   25 1   
    12    5    6 1   
    13    5   26 1   
    14    5   27 1   
    15    6    7 1   
    16    7    8 1   
    17    7   28 1   
    18    7   29 1   
    19    8   10 1   
    20    8   30 1   
    21    8   31 1   
    22    9   10 1   
    23    9   11 1   
    24    9   32 1   
    25    9   33 1   
    26   11   12 1   
    27   11   34 1   
    28   11   35 1   
    29   12   13 1   
    30   13   14 1   
    31   13   36 1   
    32   13   37 1   
    33   14   15 1   
    34   14   38 1   
    35   14   39 1   
    36   15   16 1   
    37   16   17 1   
    38   16   40 1   
    39   16   41 1   
    40   17   18 1   
    41   17   42 1   
    42   17   43 1   
    43   18   44 1   
@<TRIPOS>SUBSTRUCTURE
     1 AE4         1 TEMP              0 ****  ****    0 ROOT
