@<TRIPOS>MOLECULE
AE6
   48    52     1     0     0
SMALL
bcc


@<TRIPOS>ATOM
      1 O3          1.2780   -2.5090    1.0080 o         1 AE6     -0.619500
      2 C21         2.1620   -1.6330    0.9650 c         1 AE6      0.694700
      3 N3          3.3420   -1.8490    1.6950 ns        1 AE6     -0.517400
      4 C18         4.3830   -0.9270    1.7060 ca        1 AE6      0.564200
      5 N2          5.5170   -1.2040    2.4450 nb        1 AE6     -0.707000
      6 C17         6.4980   -0.3060    2.4360 ca        1 AE6      0.486200
      7 C22         2.0540   -0.3820    0.2010 cc        1 AE6     -0.232200
      8 C23         3.0520    0.5250    0.2030 cd        1 AE6     -0.025200
      9 C19         4.2560    0.2920    0.9560 ca        1 AE6     -0.253100
     10 C20         5.3160    1.2080    0.9880 ca        1 AE6     -0.019000
     11 C16         6.4660    0.9280    1.7270 ca        1 AE6     -0.229100
     12 C15         7.5460    1.8920    1.7580 ce        1 AE6     -0.033200
     13 C14         8.8360    1.7110    2.0600 cf        1 AE6     -0.224200
     14 C13         9.5100    0.4320    2.3940 c         1 AE6      0.637300
     15 O2          9.6680   -0.4800    1.5610 o         1 AE6     -0.572100
     16 N1          9.9310    0.2600    3.7120 n         1 AE6     -0.445800
     17 C11        10.9850   -0.6890    4.1070 cy        1 AE6      0.075500
     18 C12        10.4270    1.3350    4.5810 cy        1 AE6      0.075500
     19 C10        11.5700    0.3880    5.0720 cy        1 AE6     -0.047500
     20 C7         11.5510    0.0740    6.5000 cc        1 AE6      0.035900
     21 O1         11.5030   -1.3000    6.8280 os        1 AE6     -0.196200
     22 C4         11.5170   -1.3550    8.2220 ca        1 AE6      0.066100
     23 C3         11.4800   -2.5040    9.0050 ca        1 AE6     -0.122000
     24 C2         11.5010   -2.3120   10.3850 ca        1 AE6     -0.110000
     25 C8         11.5960    0.8650    7.6300 cd        1 AE6     -0.110400
     26 C9         11.6660    2.3250    7.7060 c3        1 AE6     -0.030900
     27 C5         11.5730   -0.0370    8.7720 ca        1 AE6     -0.102800
     28 C6         11.5900    0.1170   10.1560 ca        1 AE6     -0.082000
     29 C1         11.5550   -1.0280   10.9480 ca        1 AE6     -0.148000
     30 H1          3.4320   -2.7000    2.2130 hn        1 AE6      0.349500
     31 H2          7.3860   -0.5850    3.0380 h4        1 AE6      0.047100
     32 H3          1.1160   -0.2520   -0.3570 ha        1 AE6      0.168000
     33 H4          2.9780    1.4650   -0.3690 ha        1 AE6      0.143000
     34 H5          5.2320    2.1480    0.4180 ha        1 AE6      0.142000
     35 H6          7.2280    2.9180    1.4780 ha        1 AE6      0.127000
     36 H7          9.5300    2.5700    2.0360 ha        1 AE6      0.142000
     37 H8         10.5600   -1.5910    4.6120 h1        1 AE6      0.072950
     38 H9         11.6660   -0.9950    3.2770 h1        1 AE6      0.072950
     39 H10         9.6810    1.6130    5.3640 h1        1 AE6      0.072950
     40 H11        10.7860    2.2490    4.0500 h1        1 AE6      0.072950
     41 H12        12.5880    0.7380    4.7730 hc        1 AE6      0.086700
     42 H13        11.4370   -3.5030    8.5550 ha        1 AE6      0.152000
     43 H14        11.4730   -3.1890   11.0490 ha        1 AE6      0.137000
     44 H15        11.3120    2.7920    6.7530 hc        1 AE6      0.046033
     45 H16        11.0310    2.7030    8.5470 hc        1 AE6      0.046033
     46 H17        12.7200    2.6560    7.8900 hc        1 AE6      0.046033
     47 H18        11.6310    1.1180   10.6070 ha        1 AE6      0.138000
     48 H19        11.5680   -0.9260   12.0440 ha        1 AE6      0.134000
@<TRIPOS>BOND
     1    1    2 2   
     2    2    3 1   
     3    2    7 1   
     4    3    4 1   
     5    3   30 1   
     6    4    5 ar  
     7    4    9 ar  
     8    5    6 ar  
     9    6   11 ar  
    10    6   31 1   
    11    7    8 2   
    12    7   32 1   
    13    8    9 1   
    14    8   33 1   
    15    9   10 ar  
    16   10   11 ar  
    17   10   34 1   
    18   11   12 1   
    19   12   13 2   
    20   12   35 1   
    21   13   14 1   
    22   13   36 1   
    23   14   15 2   
    24   14   16 1   
    25   16   17 1   
    26   16   18 1   
    27   17   19 1   
    28   17   37 1   
    29   17   38 1   
    30   18   19 1   
    31   18   39 1   
    32   18   40 1   
    33   19   20 1   
    34   19   41 1   
    35   20   21 1   
    36   20   25 2   
    37   21   22 1   
    38   22   23 ar  
    39   22   27 ar  
    40   23   24 ar  
    41   23   42 1   
    42   24   29 ar  
    43   24   43 1   
    44   25   26 1   
    45   25   27 1   
    46   26   44 1   
    47   26   45 1   
    48   26   46 1   
    49   27   28 ar  
    50   28   29 ar  
    51   28   47 1   
    52   29   48 1   
@<TRIPOS>SUBSTRUCTURE
     1 AE6         1 TEMP              0 ****  ****    0 ROOT
