@<TRIPOS>MOLECULE
AE6
   48    52     1     0     0
SMALL
bcc


@<TRIPOS>ATOM
      1 O3          1.3720   -2.6580    0.9610 o         1 AE6     -0.619500
      2 C21         2.2210   -1.7480    0.9480 c         1 AE6      0.694700
      3 N3          3.4340   -1.9670    1.6230 n         1 AE6     -0.517400
      4 C18         4.4410   -1.0080    1.6610 ca        1 AE6      0.564200
      5 N2          5.6090   -1.2890    2.3420 nb        1 AE6     -0.708000
      6 C17         6.5560   -0.3560    2.3600 ca        1 AE6      0.486200
      7 C22         2.0420   -0.4550    0.2720 cc        1 AE6     -0.232200
      8 C23         3.0070    0.4870    0.3010 cd        1 AE6     -0.025200
      9 C19         4.2440    0.2510    0.9970 ca        1 AE6     -0.254100
     10 C20         5.2710    1.2020    1.0540 ca        1 AE6     -0.020000
     11 C16         6.4560    0.9200    1.7370 ca        1 AE6     -0.229100
     12 C15         7.4990    1.9210    1.7930 ce        1 AE6     -0.033200
     13 C14         8.7970    1.7860    2.0870 cf        1 AE6     -0.224200
     14 C13         9.5280    0.5290    2.3850 c         1 AE6      0.638300
     15 O2          9.7360   -0.3460    1.5240 o         1 AE6     -0.573100
     16 N1          9.9470    0.3350    3.7000 n         1 AE6     -0.445800
     17 C11        11.0420   -0.5740    4.0740 cy        1 AE6      0.076000
     18 C12        10.3800    1.4020    4.6110 cy        1 AE6      0.076000
     19 C10        11.5640    0.4970    5.0810 cy        1 AE6     -0.047500
     20 C7         11.5480    0.1350    6.4970 cc        1 AE6      0.035900
     21 O1         11.5660   -1.2500    6.7790 os        1 AE6     -0.196200
     22 C4         11.5700   -1.3520    8.1710 ca        1 AE6      0.066100
     23 C3         11.5840   -2.5270    8.9140 ca        1 AE6     -0.122000
     24 C2         11.5830   -2.3820   10.3000 ca        1 AE6     -0.110000
     25 C8         11.5440    0.8880    7.6540 cd        1 AE6     -0.110400
     26 C9         11.5390    2.3460    7.7800 c3        1 AE6     -0.030900
     27 C5         11.5550   -0.0520    8.7640 ca        1 AE6     -0.102800
     28 C6         11.5530    0.0550   10.1530 ca        1 AE6     -0.082000
     29 C1         11.5670   -1.1170   10.9060 ca        1 AE6     -0.148000
     30 H1          3.5720   -2.8450    2.0800 hn        1 AE6      0.349500
     31 H2          7.4740   -0.6420    2.9130 h4        1 AE6      0.048100
     32 H3          1.0810   -0.3250   -0.2460 ha        1 AE6      0.168000
     33 H4          2.8790    1.4580   -0.2050 ha        1 AE6      0.143000
     34 H5          5.1330    2.1730    0.5510 ha        1 AE6      0.142000
     35 H6          7.1410    2.9420    1.5450 ha        1 AE6      0.126000
     36 H7          9.4540    2.6740    2.0830 ha        1 AE6      0.142000
     37 H8         11.7460   -0.8170    3.2420 h1        1 AE6      0.072950
     38 H9         10.6590   -1.5120    4.5440 h1        1 AE6      0.072950
     39 H10        10.6970    2.3510    4.1140 h1        1 AE6      0.072950
     40 H11         9.6130    1.6160    5.3940 h1        1 AE6      0.072950
     41 H12        12.5660    0.9070    4.8050 hc        1 AE6      0.086700
     42 H13        11.5950   -3.5120    8.4300 ha        1 AE6      0.152000
     43 H14        11.5930   -3.2820   10.9340 ha        1 AE6      0.137000
     44 H15        12.5750    2.7220    7.9850 hc        1 AE6      0.046033
     45 H16        11.1700    2.8270    6.8390 hc        1 AE6      0.046033
     46 H17        10.8800    2.6630    8.6270 hc        1 AE6      0.046033
     47 H18        11.5390    1.0410   10.6380 ha        1 AE6      0.138000
     48 H19        11.5650   -1.0520   12.0050 ha        1 AE6      0.134000
@<TRIPOS>BOND
     1    1    2 2   
     2    2    3 1   
     3    2    7 1   
     4    3    4 1   
     5    3   30 1   
     6    4    5 ar  
     7    4    9 ar  
     8    5    6 ar  
     9    6   11 ar  
    10    6   31 1   
    11    7    8 2   
    12    7   32 1   
    13    8    9 1   
    14    8   33 1   
    15    9   10 ar  
    16   10   11 ar  
    17   10   34 1   
    18   11   12 1   
    19   12   13 2   
    20   12   35 1   
    21   13   14 1   
    22   13   36 1   
    23   14   15 2   
    24   14   16 1   
    25   16   17 1   
    26   16   18 1   
    27   17   19 1   
    28   17   37 1   
    29   17   38 1   
    30   18   19 1   
    31   18   39 1   
    32   18   40 1   
    33   19   20 1   
    34   19   41 1   
    35   20   21 1   
    36   20   25 2   
    37   21   22 1   
    38   22   23 ar  
    39   22   27 ar  
    40   23   24 ar  
    41   23   42 1   
    42   24   29 ar  
    43   24   43 1   
    44   25   26 1   
    45   25   27 1   
    46   26   44 1   
    47   26   45 1   
    48   26   46 1   
    49   27   28 ar  
    50   28   29 ar  
    51   28   47 1   
    52   29   48 1   
@<TRIPOS>SUBSTRUCTURE
     1 AE6         1 TEMP              0 ****  ****    0 ROOT
