@<TRIPOS>MOLECULE
AE8
   60    65     1     0     0
SMALL
bcc


@<TRIPOS>ATOM
      1 C13        -5.8280    0.1130   -0.9550 ca        1 AE8     -0.224300
      2 C20        -6.7790   -0.7740    1.4890 ca        1 AE8      0.415200
      3 C28         3.8630    2.7660    0.2160 ca        1 AE8      0.333200
      4 C25         4.0950    0.4310   -0.3990 ca        1 AE8     -0.182300
      5 C24         5.4250    0.5680    0.1120 ca        1 AE8     -0.017700
      6 C14        -7.1530    0.4000   -0.5990 ca        1 AE8      0.091100
      7 C19        -7.6400   -0.0400    0.6440 ca        1 AE8     -0.070200
      8 C26         3.2990    1.5650   -0.3680 ca        1 AE8      0.119600
      9 C30         5.9050    1.7770    0.6620 ca        1 AE8      0.350100
     10 C12        -5.0470   -0.6250   -0.0440 ca        1 AE8      0.399600
     11 C31         7.2760    1.7470    1.1430 cc        1 AE8     -0.130800
     12 C32         8.0050    0.6130    1.0380 cd        1 AE8     -0.235200
     13 C33         7.4950   -0.6440    0.4490 c         1 AE8      0.707700
     14 C6         -0.4200   -0.8860    1.5360 c3        1 AE8     -0.078400
     15 C8         -0.5820   -0.6050   -0.9280 c3        1 AE8     -0.078400
     16 C22         5.3620   -1.6330   -0.6390 c3        1 AE8      0.057000
     17 C5          0.9270   -1.5770    1.3400 c3        1 AE8      0.170800
     18 C9          0.7650   -1.3090   -1.0660 c3        1 AE8      0.170800
     19 C16        -9.3240    1.1040   -1.1680 c3        1 AE8      0.089400
     20 C17        -9.5760    1.2430    0.3250 c3        1 AE8      0.089400
     21 C7         -1.3240   -1.1170    0.3150 c3        1 AE8      0.176500
     22 C2          3.9170   -1.0010   -0.8590 c3        1 AE8      0.210100
     23 C11        -3.6260   -0.9730   -0.4430 c3        1 AE8      0.123500
     24 N29         5.0890    2.8750    0.7090 nb        1 AE8     -0.587000
     25 N21        -5.5140   -1.0650    1.1530 nb        1 AE8     -0.671000
     26 N23         6.1700   -0.5970   -0.0090 n         1 AE8     -0.349000
     27 N4          1.6070   -1.1730    0.1150 n3        1 AE8     -0.735600
     28 N10        -2.6270   -0.4750    0.4800 n3        1 AE8     -0.817200
     29 O15        -7.9230    1.1410   -1.4740 os        1 AE8     -0.309900
     30 O18        -8.9380    0.1900    1.0610 os        1 AE8     -0.305900
     31 O1          3.5530   -1.1200   -2.2170 oh        1 AE8     -0.576800
     32 F27         2.0530    1.6200   -0.8670 f         1 AE8     -0.101900
     33 H13        -5.4220    0.4640   -1.9120 ha        1 AE8      0.163000
     34 H20        -7.1350   -1.1400    2.4670 h4        1 AE8      0.039100
     35 H28         3.2310    3.6720    0.2620 h4        1 AE8      0.043100
     36 H31         7.6940    2.6650    1.5880 ha        1 AE8      0.161000
     37 H111       -3.5770   -2.0970   -0.5760 h1        1 AE8      0.043200
     38 H112       -3.4100   -0.5080   -1.4480 h1        1 AE8      0.043200
     39 H32         9.0460    0.5500    1.3920 ha        1 AE8      0.169000
     40 H61C       -0.8940   -1.3060    2.4600 hc        1 AE8      0.055950
     41 H62C       -0.2680    0.2130    1.6920 hc        1 AE8      0.055950
     42 H51C        1.5920   -1.3050    2.2080 h1        1 AE8      0.036450
     43 H52C        0.7640   -2.6950    1.3710 h1        1 AE8      0.036450
     44 H7         -1.4460   -2.2410    0.1950 h1        1 AE8      0.016700
     45 H81C       -0.4260    0.5020   -0.8520 hc        1 AE8      0.055950
     46 H82C       -1.1800   -0.8110   -1.8520 hc        1 AE8      0.055950
     47 H91C        0.5830   -2.3970   -1.3160 h1        1 AE8      0.036450
     48 H92C        1.3270   -0.8480   -1.9290 h1        1 AE8      0.036450
     49 H221        5.3180   -2.5380    0.0200 h1        1 AE8      0.077700
     50 H222        5.8070   -1.9240   -1.6280 h1        1 AE8      0.077700
     51 H161       -9.7450    0.1390   -1.5540 h1        1 AE8      0.073700
     52 H162       -9.7450    1.9740   -1.7360 h1        1 AE8      0.073700
     53 H171       -9.1940    2.2270    0.7030 h1        1 AE8      0.073700
     54 H172      -10.6630    1.1210    0.5690 h1        1 AE8      0.073700
     55 H10        -2.9300   -0.5660    1.4320 hn        1 AE8      0.376800
     56 H1          4.1160   -0.5210   -2.7240 ho        1 AE8      0.412000
     57 C3          2.8990   -1.8160   -0.0310 c3        1 AE8      0.193800
     58 O34         8.1560   -1.6900    0.3430 o         1 AE8     -0.615500
     59 H31C        2.8190   -2.8290   -0.5240 h1        1 AE8      0.050200
     60 H32C        3.3520   -1.9530    0.9920 h1        1 AE8      0.050200
@<TRIPOS>BOND
     1    1    6 ar  
     2    1   10 ar  
     3    1   33 1   
     4    2    7 ar  
     5    2   25 ar  
     6    2   34 1   
     7    3    8 ar  
     8    3   24 ar  
     9    3   35 1   
    10    4    5 ar  
    11    4    8 ar  
    12    4   22 1   
    13    5    9 ar  
    14    5   26 1   
    15    6    7 ar  
    16    6   29 1   
    17    7   30 1   
    18    8   32 1   
    19    9   11 1   
    20    9   24 ar  
    21   10   23 1   
    22   10   25 ar  
    23   11   12 2   
    24   11   36 1   
    25   12   13 1   
    26   12   39 1   
    27   13   26 1   
    28   13   58 2   
    29   14   17 1   
    30   14   21 1   
    31   14   40 1   
    32   14   41 1   
    33   15   18 1   
    34   15   21 1   
    35   15   45 1   
    36   15   46 1   
    37   16   22 1   
    38   16   26 1   
    39   16   49 1   
    40   16   50 1   
    41   17   27 1   
    42   17   42 1   
    43   17   43 1   
    44   18   27 1   
    45   18   47 1   
    46   18   48 1   
    47   19   20 1   
    48   19   29 1   
    49   19   51 1   
    50   19   52 1   
    51   20   30 1   
    52   20   53 1   
    53   20   54 1   
    54   21   28 1   
    55   21   44 1   
    56   22   31 1   
    57   22   57 1   
    58   23   28 1   
    59   23   37 1   
    60   23   38 1   
    61   27   57 1   
    62   28   55 1   
    63   31   56 1   
    64   57   59 1   
    65   57   60 1   
@<TRIPOS>SUBSTRUCTURE
     1 AE8         1 TEMP              0 ****  ****    0 ROOT
