@<TRIPOS>MOLECULE
AE8
   60    58     1     0     0
SMALL
bcc


@<TRIPOS>ATOM
      1 C13         5.2510    0.8680   -2.0430 c1        1 AE8     -0.109500
      2 C20         5.6530    1.4130    0.6930 c1        1 AE8     -0.109500
      3 C28        -4.7070   -3.3660    3.5600 c1        1 AE8     -0.129000
      4 C25        -4.0500   -1.3950    2.2600 c1        1 AE8     -0.193000
      5 C24        -5.2490   -0.7550    2.6550 c1        1 AE8      0.056000
      6 C14         6.5130    1.1170   -1.5890 c1        1 AE8     -0.002000
      7 C19         6.7290    1.3980   -0.1810 c1        1 AE8     -0.002000
      8 C26        -3.7570   -2.6730    2.7360 c1        1 AE8      0.125000
      9 C30        -6.2180   -1.4710    3.4040 c1        1 AE8     -0.083000
     10 C12         4.1580    0.8860   -1.1420 c1        1 AE8     -0.059000
     11 C31        -7.7030   -1.1570    3.2250 c2        1 AE8     -0.026000
     12 C32        -8.1200   -0.1440    2.2450 c1        1 AE8     -0.212000
     13 C33        -7.0920    0.5310    1.3950 c1        1 AE8      0.344000
     14 C6         -0.2100    1.1030   -2.0470 c3        1 AE8     -0.170000
     15 C8          0.1840   -1.3330   -1.7590 c3        1 AE8     -0.170000
     16 C22        -4.6730    0.0940    0.4660 c3        1 AE8     -0.046000
     17 C5         -1.0060    1.1200   -0.7410 c3        1 AE8     -0.068500
     18 C9         -0.6130   -1.3030   -0.4550 c3        1 AE8     -0.068500
     19 C16         8.8870    1.2020   -1.9030 c3        1 AE8     -0.061000
     20 C17         8.9680    2.0530   -0.7280 c3        1 AE8     -0.061000
     21 C7          0.7930   -0.0030   -2.0860 c3        1 AE8     -0.020000
     22 C2         -3.6630   -0.8630    0.8770 c3        1 AE8      0.132000
     23 C11         2.7990    1.1570   -1.7290 c3        1 AE8     -0.013000
     24 C3         -2.2570   -0.1550    0.9470 c3        1 AE8     -0.044000
     25 N29        -5.9220   -2.7620    3.8840 n1        1 AE8     -0.060000
     26 N21         4.3700    1.1590    0.2220 n1        1 AE8     -0.144000
     27 N23        -5.6900    0.1610    1.5230 n3        1 AE8     -0.253000
     28 N4         -1.6020   -0.2050   -0.4190 n3        1 AE8     -0.268000
     29 N10         1.8350    0.2820   -1.1320 n3        1 AE8     -0.301000
     30 O34        -7.4260    1.3530    0.5880 o         1 AE8     -0.336000
     31 O15         7.7120    1.1050   -2.4800 os        1 AE8     -0.190500
     32 O18         8.0990    1.8230    0.2310 os        1 AE8     -0.190500
     33 O1         -3.6130   -1.9440   -0.0550 oh        1 AE8     -0.300000
     34 F27        -2.6180   -3.3510    2.5060 f         1 AE8     -0.079000
     35 H13         5.1110    0.6100   -2.9740 ha        1 AE8      0.168500
     36 H20         5.7980    1.6040    1.6510 ha        1 AE8      0.168500
     37 H28        -4.4780   -4.2440    3.9440 ha        1 AE8      0.181000
     38 H31        -8.3790   -1.6080    3.7920 ha        1 AE8      0.161000
     39 H111        2.5490    2.0840   -1.5560 h1        1 AE8      0.102000
     40 H112        2.8250    0.9980   -2.7220 h1        1 AE8      0.102000
     41 H32        -9.0570    0.1070    2.1700 ha        1 AE8      0.169000
     42 H61C        0.2690    1.9780   -2.1450 hc        1 AE8      0.093250
     43 H62C       -0.8200    0.9980   -2.7860 hc        1 AE8      0.093250
     44 H51C       -1.7130    1.7700   -0.8160 h1        1 AE8      0.079500
     45 H52C       -0.4190    1.3810   -0.0210 h1        1 AE8      0.079500
     46 H7          1.1810   -0.0450   -2.9740 h1        1 AE8      0.091000
     47 H81C        0.8970   -1.9970   -1.6780 hc        1 AE8      0.093250
     48 H82C       -0.4100   -1.5950   -2.4860 hc        1 AE8      0.093250
     49 H91C       -1.0750   -2.1440   -0.3510 h1        1 AE8      0.079500
     50 H92C        0.0160   -1.1890    0.2990 h1        1 AE8      0.079500
     51 H221       -4.2660    0.9710    0.3440 h1        1 AE8      0.128000
     52 H222       -5.0830   -0.1980   -0.3710 h1        1 AE8      0.128000
     53 H161        9.1680    0.3100   -1.6460 h1        1 AE8      0.113000
     54 H162        9.5240    1.5440   -2.5680 h1        1 AE8      0.113000
     55 H171        8.8570    2.9820   -1.0200 h1        1 AE8      0.113000
     56 H172        9.8830    1.9570   -0.3420 h1        1 AE8      0.113000
     57 H10         2.2450   -0.5020   -0.8820 hn        1 AE8      0.177000
     58 H31C       -2.3760    0.7920    1.2240 h1        1 AE8      0.093500
     59 H32C       -1.6910   -0.6170    1.5980 h1        1 AE8      0.093500
     60 H1         -4.3200   -1.8940   -0.6130 ho        1 AE8      0.208000
@<TRIPOS>BOND
     1    1    6 1   
     2    1   35 1   
     3    2    7 1   
     4    2   36 1   
     5    3    8 1   
     6    3   37 1   
     7    4    5 1   
     8    4   22 1   
     9    5   27 1   
    10    6   31 1   
    11    7   32 1   
    12    8   34 1   
    13    9   11 1   
    14    9   25 1   
    15   10   23 1   
    16   10   26 1   
    17   11   12 1   
    18   11   38 1   
    19   12   41 1   
    20   13   27 1   
    21   13   30 1   
    22   14   17 1   
    23   14   21 1   
    24   14   42 1   
    25   14   43 1   
    26   15   18 1   
    27   15   21 1   
    28   15   47 1   
    29   15   48 1   
    30   16   22 1   
    31   16   27 1   
    32   16   51 1   
    33   16   52 1   
    34   17   28 1   
    35   17   44 1   
    36   17   45 1   
    37   18   28 1   
    38   18   49 1   
    39   18   50 1   
    40   19   20 1   
    41   19   31 1   
    42   19   53 1   
    43   19   54 1   
    44   20   32 1   
    45   20   55 1   
    46   20   56 1   
    47   21   29 1   
    48   21   46 1   
    49   22   24 1   
    50   22   33 1   
    51   23   29 1   
    52   23   39 1   
    53   23   40 1   
    54   24   28 1   
    55   24   58 1   
    56   24   59 1   
    57   29   57 1   
    58   33   60 1   
@<TRIPOS>SUBSTRUCTURE
     1 AE8         1 TEMP              0 ****  ****    0 ROOT
