@<TRIPOS>MOLECULE
AE8
   61    61     1     0     0
SMALL
bcc


@<TRIPOS>ATOM
      1 C13        -1.4650   -1.8990    0.2080 c2        1 AE8     -0.188000
      2 C20         0.2570    0.2730   -0.3030 c1        1 AE8     -0.140000
      3 C28        -4.5190   -5.9470   -0.8230 c2        1 AE8     -0.112000
      4 C25        -6.3490   -4.3700   -0.6380 c2        1 AE8     -0.233000
      5 C24        -6.9620   -5.0610   -1.7350 c2        1 AE8      0.083000
      6 C14        -0.2040   -2.1400   -0.4150 c2        1 AE8      0.085000
      7 C19         0.6440   -1.0610   -0.6580 c2        1 AE8     -0.065000
      8 C26        -5.1030   -4.8110   -0.1880 c2        1 AE8      0.095000
      9 C30        -6.3000   -6.1800   -2.2890 c2        1 AE8     -0.097000
     10 C12        -1.8140   -0.6060    0.5520 c2        1 AE8     -0.072000
     11 C31        -8.7670   -6.8640   -4.6600 c1        1 AE8     -0.044000
     12 C32        -8.8750   -5.9420   -3.9040 c1        1 AE8     -0.244000
     13 C33        -9.1210   -4.8140   -3.0660 c2        1 AE8      0.454000
     14 C6         -5.4770   -4.2030    3.8680 c2        1 AE8     -0.124000
     15 C8         -4.9710    1.1860    0.1670 c3        1 AE8     -0.273000
     16 C22        -8.4160   -3.2930   -1.2440 c3        1 AE8     -0.054000
     17 C5         -6.6650   -4.0230    3.2770 c2        1 AE8     -0.157000
     18 C9         -6.5300   -1.7620    2.4850 c2        1 AE8      0.101000
     19 C16         3.8860   -0.5460   -2.0480 c2        1 AE8     -0.268000
     20 C17         2.7110   -0.2700   -1.4780 c2        1 AE8     -0.025000
     21 C7         -3.6420    0.9650    0.6580 c1        1 AE8     -0.057000
     22 C2         -7.2270   -3.2210   -0.2120 c3        1 AE8      0.121000
     23 C11        -3.1290   -0.2770    1.2610 c3        1 AE8     -0.050000
     24 N29        -5.1090   -6.6020   -1.8300 n2        1 AE8     -0.054000
     25 N21        -0.9370    0.4400    0.2780 n7        1 AE8     -0.086000
     26 N23        -8.1700   -4.4580   -2.0920 n         1 AE8     -0.289000
     27 N4         -6.9510   -2.9890    2.3250 n3        1 AE8     -0.029000
     28 N10        -4.0510   -1.3890    1.4260 n8        1 AE8     -0.389000
     29 O15         0.0690   -3.4440   -0.7300 oh        1 AE8     -0.248000
     30 O18         1.8510   -1.3550   -1.2600 os        1 AE8     -0.176000
     31 O1         -6.5820   -1.9630   -0.2750 oh        1 AE8     -0.345000
     32 H13        -2.1090   -2.7700    0.3890 ha        1 AE8      0.148000
     33 H20        -1.2440    1.3710    0.4970 hn        1 AE8      0.285000
     34 H28        -3.5320   -6.3210   -0.4940 h4        1 AE8      0.199000
     35 H31        -6.7280   -6.7580   -3.1300 h4        1 AE8      0.195000
     36 H111       -2.8440    0.0490    2.3250 h1        1 AE8      0.162000
     37 H112       -4.3990   -1.7000    0.5370 hn        1 AE8      0.152500
     38 H32        -8.6670   -7.6860   -5.3300 ha        1 AE8      0.250000
     39 H61C       -3.4360   -1.1160    4.3270 ha        1 AE8      0.001500
     40 H62C       -3.9340   -1.5750    4.3560 ha        1 AE8      0.001500
     41 H51C       -7.5420   -4.6710    3.4750 h4        1 AE8      0.191000
     42 H52C       -5.3430   -5.0190    4.5980 ha        1 AE8      0.163500
     43 H7         -4.5830   -3.5910    3.6700 ha        1 AE8      0.163500
     44 H81C       -5.7000    0.3360    0.2050 hc        1 AE8      0.119333
     45 H82C       -5.4030    2.0610    0.7300 hc        1 AE8      0.119333
     46 H91C       -5.9040   -1.4900    3.3620 h4        1 AE8      0.207000
     47 H92C       -4.8720    1.5260   -0.9040 hc        1 AE8      0.119333
     48 H221       -9.4110   -3.4030   -0.7350 h1        1 AE8      0.130000
     49 H222       -8.4380   -2.3580   -1.8700 h1        1 AE8      0.130000
     50 H161        4.1890   -1.5580   -2.3390 ha        1 AE8      0.133000
     51 H162        0.9560   -3.4750   -1.1280 ho        1 AE8      0.253000
     52 H171        2.3430    0.7190   -1.1630 h4        1 AE8      0.185000
     53 H172        4.6080    0.2540   -2.2510 ha        1 AE8      0.133000
     54 H10        -3.5860   -2.1620    1.8670 hn        1 AE8      0.152500
     55 H1         -6.2200   -1.8600   -1.1670 ho        1 AE8      0.248000
     56 C3         -7.8240   -3.3640    1.2040 c3        1 AE8     -0.067000
     57 O34       -10.1410   -4.1120   -3.1450 o         1 AE8     -0.290000
     58 H31C       -8.7400   -2.7030    1.2690 h1        1 AE8      0.150500
     59 H32C       -8.1370   -4.4410    1.3310 h1        1 AE8      0.150500
     60 H102       -6.7800   -0.9760    1.7360 h4        1 AE8      0.207000
     61 F27        -4.4450   -4.1920    0.8160 f         1 AE8     -0.111000
@<TRIPOS>BOND
     1    1    6 1   
     2    1   10 1   
     3    1   32 1   
     4    2    7 1   
     5    2   25 1   
     6    3    8 1   
     7    3   24 1   
     8    3   34 1   
     9    4    5 1   
    10    4    8 1   
    11    4   22 1   
    12    5    9 1   
    13    5   26 1   
    14    6    7 1   
    15    6   29 1   
    16    7   30 1   
    17    8   61 1   
    18    9   24 1   
    19    9   35 1   
    20   10   23 1   
    21   10   25 1   
    22   11   12 1   
    23   11   38 1   
    24   12   13 1   
    25   13   26 1   
    26   13   57 1   
    27   14   17 1   
    28   14   42 1   
    29   14   43 1   
    30   15   21 1   
    31   15   44 1   
    32   15   45 1   
    33   15   47 1   
    34   16   22 1   
    35   16   26 1   
    36   16   48 1   
    37   16   49 1   
    38   17   27 1   
    39   17   41 1   
    40   18   27 1   
    41   18   46 1   
    42   18   60 1   
    43   19   20 1   
    44   19   50 1   
    45   19   53 1   
    46   20   30 1   
    47   20   52 1   
    48   21   23 1   
    49   22   31 1   
    50   22   56 1   
    51   23   28 1   
    52   23   36 1   
    53   25   33 1   
    54   27   56 1   
    55   28   37 1   
    56   28   54 1   
    57   29   51 1   
    58   31   55 1   
    59   39   40 1   
    60   56   58 1   
    61   56   59 1   
@<TRIPOS>SUBSTRUCTURE
     1 AE8         1 TEMP              0 ****  ****    0 ROOT
