@<TRIPOS>MOLECULE
AE8
   61    62     1     0     0
SMALL
bcc


@<TRIPOS>ATOM
      1 C13         1.2380    2.5120    1.3920 c2        1 AE8     -0.177000
      2 C20         1.9280   -0.1420    2.0930 c1        1 AE8     -0.128000
      3 C28        -6.6950   -5.7650   -3.4500 c2        1 AE8     -0.086000
      4 C25        -8.1270   -4.4530   -1.9540 c2        1 AE8     -0.104000
      5 C24        -8.5390   -5.6880   -1.4020 c2        1 AE8     -0.062000
      6 C14         0.7640    1.4330    0.6000 c2        1 AE8      0.056000
      7 C19         1.1070    0.1260    0.9480 c2        1 AE8     -0.107000
      8 C26        -7.1940   -4.5080   -3.0130 c2        1 AE8      0.070000
      9 C30        -7.9320   -6.8990   -1.8670 c2        1 AE8     -0.058000
     10 C12         2.0450    2.2270    2.4790 c2        1 AE8     -0.062000
     11 C31        -8.2830   -8.2030   -1.1970 c3        1 AE8     -0.215000
     12 C32        -8.9000   -8.1110    0.1070 c1        1 AE8      0.094000
     13 C33        -9.0520   -6.7500    0.6710 c2        1 AE8      0.269000
     14 C6         -5.0020   -4.1430    1.3630 c3        1 AE8     -0.148000
     15 C8         -4.7660   -1.3830    0.0240 c3        1 AE8     -0.072000
     16 C22       -10.7090   -5.2710   -0.2650 c1        1 AE8     -0.095000
     17 C5         -6.3870   -3.8730    0.9370 c2        1 AE8     -0.306000
     18 C9         -6.1960   -1.6960   -0.1110 c2        1 AE8     -0.480000
     19 C16         2.1780   -2.6250    0.6650 c2        1 AE8     -0.217000
     20 C17         1.3360   -1.9950   -0.1490 c2        1 AE8     -0.069000
     21 C7         -4.5090   -0.5780    1.2900 c3        1 AE8     -0.324000
     22 C2         -8.6790   -3.1430   -1.4640 c3        1 AE8      0.062000
     23 C11        -3.2060   -0.0190    1.5530 c1        1 AE8      0.106000
     24 N29        -7.0390   -6.9230   -2.8800 n2        1 AE8     -0.089000
     25 N21         2.3560    0.9190    2.7980 n3        1 AE8     -0.102000
     26 N23        -9.5080   -5.7790   -0.3410 n         1 AE8     -0.188000
     27 N4         -6.8570   -2.8040    0.2960 n3        1 AE8      0.158000
     28 N10        -2.1080   -0.1910    0.6400 n4        1 AE8     -0.118000
     29 O15        -0.1130    1.7050   -0.4300 oh        1 AE8     -0.292000
     30 O18         0.5590   -0.8720    0.1570 os        1 AE8     -0.247000
     31 O1         -8.3820   -2.0550   -2.3110 oh        1 AE8     -0.304000
     32 H13         0.9730    3.5460    1.1290 ha        1 AE8      0.182000
     33 H20         2.9360    0.7410    3.5950 hn        1 AE8      0.277000
     34 H28        -5.9820   -5.8190   -4.2940 h4        1 AE8      0.192000
     35 H31        -9.0020   -8.7890   -1.8550 hc        1 AE8      0.201000
     36 H111        2.4610    3.0290    3.1170 h4        1 AE8      0.182000
     37 H112       -2.2690   -0.7320   -0.2170 hn        1 AE8      0.268000
     38 H32        -7.3740   -8.8780   -1.1070 hc        1 AE8      0.201000
     39 H61C       -4.7800   -1.1910    2.2110 hc        1 AE8      0.208500
     40 H62C       -4.3440   -4.3740    0.4870 hc        1 AE8      0.079667
     41 H51C       -7.1220   -4.6630    1.1900 h4        1 AE8      0.168000
     42 H52C       -5.0040   -5.0360    2.0390 hc        1 AE8      0.079667
     43 H7         -4.5580   -3.2850    1.9290 hc        1 AE8      0.079667
     44 H81C       -4.1170   -2.2980    0.0140 hc        1 AE8      0.080000
     45 H82C       -5.2370    0.2980    1.3450 hc        1 AE8      0.208500
     46 H91C       -6.8110   -0.9040   -0.5680 h4        1 AE8      0.159000
     47 H92C       -4.4800   -0.7610   -0.8700 hc        1 AE8      0.080000
     48 H221       -9.8130   -3.1820   -1.5030 h1        1 AE8      0.154000
     49 H222      -11.0800   -4.6490   -1.1040 ha        1 AE8      0.065000
     50 H161        2.4240   -2.2770    1.6810 ha        1 AE8      0.160000
     51 H162        0.2210    1.2340   -1.2130 ho        1 AE8      0.248000
     52 H171        1.0740   -2.2990   -1.1770 h4        1 AE8      0.155000
     53 H172        2.6940   -3.5360    0.3300 ha        1 AE8      0.160000
     54 H10        -1.7660    0.7560    0.3780 hn        1 AE8      0.268000
     55 H1         -7.4250   -1.9130   -2.3180 ho        1 AE8      0.220000
     56 C3         -8.3050   -2.8020   -0.0030 c3        1 AE8     -0.116000
     57 O34        -8.8570   -6.3980    1.8300 o         1 AE8     -0.198000
     58 H31C       -8.7010   -1.7640    0.2030 h1        1 AE8      0.145000
     59 H32C       -8.8270   -3.5130    0.6980 h1        1 AE8      0.145000
     60 H102       -1.3300   -0.6390    1.1660 hn        1 AE8      0.268000
     61 F27        -6.7400   -3.3920   -3.6240 f         1 AE8     -0.083000
@<TRIPOS>BOND
     1    1    6 1   
     2    1   10 1   
     3    1   32 1   
     4    2    7 1   
     5    2   25 1   
     6    3    8 1   
     7    3   24 1   
     8    3   34 1   
     9    4    5 1   
    10    4    8 1   
    11    4   22 1   
    12    5    9 1   
    13    5   26 1   
    14    6    7 1   
    15    6   29 1   
    16    7   30 1   
    17    8   61 1   
    18    9   11 1   
    19    9   24 1   
    20   10   25 1   
    21   10   36 1   
    22   11   12 1   
    23   11   35 1   
    24   11   38 1   
    25   12   13 1   
    26   13   26 1   
    27   13   57 1   
    28   14   17 1   
    29   14   40 1   
    30   14   42 1   
    31   14   43 1   
    32   15   18 1   
    33   15   21 1   
    34   15   44 1   
    35   15   47 1   
    36   16   26 1   
    37   16   49 1   
    38   17   27 1   
    39   17   41 1   
    40   18   27 1   
    41   18   46 1   
    42   19   20 1   
    43   19   50 1   
    44   19   53 1   
    45   20   30 1   
    46   20   52 1   
    47   21   23 1   
    48   21   39 1   
    49   21   45 1   
    50   22   31 1   
    51   22   48 1   
    52   22   56 1   
    53   23   28 1   
    54   25   33 1   
    55   27   56 1   
    56   28   37 1   
    57   28   54 1   
    58   28   60 1   
    59   29   51 1   
    60   31   55 1   
    61   56   58 1   
    62   56   59 1   
@<TRIPOS>SUBSTRUCTURE
     1 AE8         1 TEMP              0 ****  ****    0 ROOT
