@<TRIPOS>MOLECULE
AE9
   11     9     1     0     0
SMALL
bcc


@<TRIPOS>ATOM
      1 NAS        -1.1350   -0.0560   -0.3580 n1        1 AE9     -0.172000
      2 CAM         0.2620    0.2400   -0.3990 c2        1 AE9     -0.111000
      3 CAO         0.8680    0.0710    0.9380 c3        1 AE9     -0.044000
      4 O1          0.3030   -0.9810    1.5430 oh        1 AE9     -0.327000
      5 NAC        -2.7620    0.1790   -2.8400 n1        1 AE9     -0.172000
      6 NAT        -1.9210    0.0580   -1.5570 n2        1 AE9      0.218000
      7 H1          0.5710   -1.0360    2.2370 ho        1 AE9      0.200000
      8 HAO1        1.8610   -0.0840    0.8410 h1        1 AE9      0.094000
      9 HAO2        0.6830    1.0710    1.5880 h1        1 AE9      0.094000
     10 HAM1        0.8850   -0.6290   -1.3050 ha        1 AE9      0.109500
     11 HAM2        0.3860    1.1670   -0.6890 ha        1 AE9      0.109500
@<TRIPOS>BOND
     1    1    6 1   
     2    2    3 1   
     3    2   10 1   
     4    2   11 1   
     5    3    4 1   
     6    3    8 1   
     7    3    9 1   
     8    4    7 1   
     9    5    6 1   
@<TRIPOS>SUBSTRUCTURE
     1 AE9         1 TEMP              0 ****  ****    0 ROOT
