@<TRIPOS>MOLECULE
AE9
   11    10     1     0     0
SMALL
bcc


@<TRIPOS>ATOM
      1 NAS         0.5660    0.6560   -0.6720 n2        1 AE9     -0.452200
      2 CAM         1.6990   -0.0920   -0.1710 c3        1 AE9      0.162800
      3 CAO         2.0870    0.1450    1.2930 c3        1 AE9      0.103400
      4 O1          1.0520   -0.4050    2.0920 oh        1 AE9     -0.612800
      5 NAC        -1.6550    0.6000    0.1810 n1        1 AE9     -0.051000
      6 NAT        -0.5720    0.5510   -0.1510 n1        1 AE9      0.232000
      7 H1          1.2980   -0.2530    3.0120 ho        1 AE9      0.409000
      8 HAO1        3.0570   -0.3790    1.5050 h1        1 AE9      0.034200
      9 HAO2        2.2040    1.2390    1.5120 h1        1 AE9      0.034200
     10 HAM1        1.5690   -1.2020   -0.3230 h1        1 AE9      0.069700
     11 HAM2        2.5450    0.2660   -0.8240 h1        1 AE9      0.069700
@<TRIPOS>BOND
     1    1    2 1   
     2    1    6 1   
     3    2    3 1   
     4    2   10 1   
     5    2   11 1   
     6    3    4 1   
     7    3    8 1   
     8    3    9 1   
     9    4    7 1   
    10    5    6 3   
@<TRIPOS>SUBSTRUCTURE
     1 AE9         1 TEMP              0 ****  ****    0 ROOT
