@<TRIPOS>MOLECULE
AE9
   11    10     1     0     0
SMALL
bcc


@<TRIPOS>ATOM
      1 NAS        -0.9450    0.6980   -0.2070 n2        1 AE9     -0.452200
      2 CAM         0.4210    1.0380   -0.5450 c3        1 AE9      0.162800
      3 CAO         1.5020    0.6250    0.4600 c3        1 AE9      0.103400
      4 O1          1.5820   -0.7910    0.4260 oh        1 AE9     -0.612800
      5 NAC        -1.8020   -1.4860    0.1870 n1        1 AE9     -0.051000
      6 NAT        -1.2980   -0.4920   -0.0230 n1        1 AE9      0.232000
      7 H1          2.2610   -1.0490    1.0590 ho        1 AE9      0.409000
      8 HAO1        2.4830    1.0730    0.1490 h1        1 AE9      0.034200
      9 HAO2        1.2500    0.9730    1.4970 h1        1 AE9      0.034200
     10 HAM1        0.7140    0.6390   -1.5580 h1        1 AE9      0.069700
     11 HAM2        0.3940    2.1640   -0.5940 h1        1 AE9      0.069700
@<TRIPOS>BOND
     1    1    2 1   
     2    1    6 1   
     3    2    3 1   
     4    2   10 1   
     5    2   11 1   
     6    3    4 1   
     7    3    8 1   
     8    3    9 1   
     9    4    7 1   
    10    5    6 3   
@<TRIPOS>SUBSTRUCTURE
     1 AE9         1 TEMP              0 ****  ****    0 ROOT
