@<TRIPOS>MOLECULE
AE9
   11    10     1     0     0
SMALL
bcc


@<TRIPOS>ATOM
      1 NAS         0.5440    0.8050   -0.5880 n2        1 AE9     -0.452200
      2 CAM         1.6890    0.0150   -0.1930 c3        1 AE9      0.162800
      3 CAO         2.0940    0.0800    1.2840 c3        1 AE9      0.103400
      4 O1          1.0750   -0.5710    2.0250 oh        1 AE9     -0.612800
      5 NAC        -1.6650    0.6270    0.2790 n1        1 AE9     -0.051000
      6 NAT        -0.5860    0.6280   -0.0700 n1        1 AE9      0.232000
      7 H1          1.3310   -0.5270    2.9530 ho        1 AE9      0.409000
      8 HAO1        3.0710   -0.4560    1.4210 h1        1 AE9      0.034200
      9 HAO2        2.2060    1.1420    1.6300 h1        1 AE9      0.034200
     10 HAM1        1.5660   -1.0710   -0.4740 h1        1 AE9      0.069700
     11 HAM2        2.5230    0.4550   -0.8090 h1        1 AE9      0.069700
@<TRIPOS>BOND
     1    1    2 1   
     2    1    6 1   
     3    2    3 1   
     4    2   10 1   
     5    2   11 1   
     6    3    4 1   
     7    3    8 1   
     8    3    9 1   
     9    4    7 1   
    10    5    6 3   
@<TRIPOS>SUBSTRUCTURE
     1 AE9         1 TEMP              0 ****  ****    0 ROOT
