@<TRIPOS>MOLECULE
AEA
   20    19     1     0     0
SMALL
bcc


@<TRIPOS>ATOM
      1 N1         -1.9800    0.4940   -1.1530 n3        1 AEA     -0.914800
      2 C1         -0.5570    0.4940   -1.1530 c3        1 AEA      0.118500
      3 C3         -0.0530    0.4940    0.2720 c3        1 AEA     -0.050300
      4 C2         -0.0530    1.7280   -1.8650 c         1 AEA      0.658100
      5 N2          0.7700    1.5980   -3.0130 n         1 AEA     -0.644000
      6 S1          0.0370   -1.1730    0.8670 ss        1 AEA     -0.374200
      7 C4          0.5830   -1.1700    2.5540 c3        1 AEA     -0.101300
      8 O1          2.0830   -2.9580    3.1320 o         1 AEA     -0.837300
      9 C5          0.8880   -2.5870    2.9870 c         1 AEA      0.897600
     10 O3         -0.3490    2.8320   -1.4520 o         1 AEA     -0.680100
     11 O2         -0.0520   -3.3950    3.2060 o         1 AEA     -0.837300
     12 HN11       -2.2840   -0.3230   -0.8860 hn        1 AEA      0.374800
     13 HN12       -2.2840    0.6720   -1.9940 hn        1 AEA      0.374800
     14 H11        -0.2320   -0.3030   -1.6130 h1        1 AEA      0.064700
     15 H31         0.8340    0.9000    0.3040 h1        1 AEA      0.087200
     16 H32        -0.6650    1.0070    0.8340 h1        1 AEA      0.087200
     17 HN21        1.0670    2.3430   -3.4480 hn        1 AEA      0.328500
     18 HN22        0.9770    0.7700   -3.3340 hn        1 AEA      0.328500
     19 H41        -0.1180   -0.8000    3.1220 h1        1 AEA      0.059200
     20 H42         1.3890   -0.6250    2.6340 h1        1 AEA      0.059200
@<TRIPOS>BOND
     1    1    2 1   
     2    1   12 1   
     3    1   13 1   
     4    2    3 1   
     5    2    4 1   
     6    2   14 1   
     7    3    6 1   
     8    3   15 1   
     9    3   16 1   
    10    4    5 1   
    11    4   10 2   
    12    5   17 1   
    13    5   18 1   
    14    6    7 1   
    15    7    9 1   
    16    7   19 1   
    17    7   20 1   
    18    8    9 1   
    19    9   11 1   
@<TRIPOS>SUBSTRUCTURE
     1 AEA         1 TEMP              0 ****  ****    0 ROOT
