@<TRIPOS>MOLECULE
AEA
   20    19     1     0     0
SMALL
bcc


@<TRIPOS>ATOM
      1 N1          0.2320    1.8540   -0.7310 n3        1 AEA     -0.914800
      2 C1         -0.7240    1.1130   -1.5240 c3        1 AEA      0.118500
      3 C3         -1.5770    0.0510   -0.8050 c3        1 AEA     -0.050300
      4 C2         -0.0710    0.4280   -2.7450 c         1 AEA      0.658100
      5 N2          0.9880   -0.4070   -2.5500 n         1 AEA     -0.644000
      6 S1         -1.7060    0.2440    0.9510 ss        1 AEA     -0.374200
      7 C4         -0.4470   -0.8190    1.6250 c3        1 AEA     -0.101300
      8 O1          1.6850   -0.4220    0.5720 o         1 AEA     -0.837300
      9 C5          0.6660   -1.1710    0.6390 c         1 AEA      0.897600
     10 O3         -0.5150    0.6570   -3.8960 o         1 AEA     -0.680100
     11 O2          0.5180   -2.1810   -0.1100 o         1 AEA     -0.837300
     12 HN11        1.0380    1.2960   -0.5010 hn        1 AEA      0.374800
     13 HN12       -0.2070    2.1280    0.1320 hn        1 AEA      0.374800
     14 H11        -1.4360    1.8850   -1.9520 h1        1 AEA      0.064700
     15 H31        -2.6240    0.1160   -1.1900 h1        1 AEA      0.087200
     16 H32        -1.1900   -0.9800   -1.0200 h1        1 AEA      0.087200
     17 HN21        1.3290   -0.9290   -3.3190 hn        1 AEA      0.328500
     18 HN22        1.2500   -0.7070   -1.6320 hn        1 AEA      0.328500
     19 H41        -0.0190   -0.2690    2.4940 h1        1 AEA      0.059200
     20 H42        -0.9360   -1.7560    1.9760 h1        1 AEA      0.059200
@<TRIPOS>BOND
     1    1    2 1   
     2    1   12 1   
     3    1   13 1   
     4    2    3 1   
     5    2    4 1   
     6    2   14 1   
     7    3    6 1   
     8    3   15 1   
     9    3   16 1   
    10    4    5 1   
    11    4   10 2   
    12    5   17 1   
    13    5   18 1   
    14    6    7 1   
    15    7    9 1   
    16    7   19 1   
    17    7   20 1   
    18    8    9 1   
    19    9   11 1   
@<TRIPOS>SUBSTRUCTURE
     1 AEA         1 TEMP              0 ****  ****    0 ROOT
