@<TRIPOS>MOLECULE
AED
   38    39     1     0     0
SMALL
bcc


@<TRIPOS>ATOM
      1 C4          0.0090   -0.0780   -0.0180 ca        1 AED      0.163100
      2 C5         -2.7280   -1.2500    1.9660 c3        1 AED     -0.066400
      3 C6         -2.6970    1.2550    1.9140 c3        1 AED     -0.066400
      4 C7          1.4620   -0.0440    2.3620 ca        1 AED     -0.178300
      5 C8          1.4120   -0.1060   -0.0530 ca        1 AED     -0.209000
      6 C10        -4.2420   -1.2280    2.0010 c3        1 AED     -0.079400
      7 C13         2.2260   -0.0500    3.6370 c3        1 AED     -0.036100
      8 C15         2.3140    1.3850    4.1580 c3        1 AED      0.094800
      9 O9         -0.7440   -0.0860   -1.1630 oh        1 AED     -0.478100
     10 C12         2.1330   -0.0900    1.1360 ca        1 AED     -0.072000
     11 N16         3.0360    1.4830    5.4630 nz        1 AED     -0.840600
     12 C3          0.0620   -0.0230    2.3880 ca        1 AED     -0.086000
     13 C1         -0.6880   -0.0370    1.2130 ca        1 AED     -0.079300
     14 C2         -2.1830   -0.0180    1.2500 c3        1 AED     -0.026400
     15 C14        -4.7630    0.0420    2.6410 c3        1 AED     -0.078400
     16 C11        -4.2120    1.2710    1.9490 c3        1 AED     -0.079400
     17 H6         -2.3250    2.1480    1.3490 hc        1 AED      0.035950
     18 H6A        -2.2970    1.3220    2.9590 hc        1 AED      0.035950
     19 H8          1.9390   -0.1470   -1.0180 ha        1 AED      0.152000
     20 H10        -4.6410   -1.3110    0.9550 hc        1 AED      0.049200
     21 H10A       -4.6130   -2.1180    2.5730 hc        1 AED      0.049200
     22 H13         1.7070   -0.7040    4.3880 hc        1 AED      0.069200
     23 H13A        3.2560   -0.4650    3.4700 hc        1 AED      0.069200
     24 H15         1.2740    1.8010    4.3060 hx        1 AED      0.116200
     25 H15A        2.8600    2.0330    3.4130 hx        1 AED      0.116200
     26 HO9        -0.1470   -0.1480   -1.9250 ho        1 AED      0.435000
     27 H12         3.2330   -0.1240    1.1030 ha        1 AED      0.134000
     28 HN16        3.9930    1.1310    5.3610 hn        1 AED      0.459467
     29 HN1A        2.5570    0.9200    6.1720 hn        1 AED      0.459467
     30 H3         -0.4660   -0.0070    3.3550 ha        1 AED      0.134000
     31 H2         -2.5730   -0.0350    0.1900 hc        1 AED      0.087700
     32 H14        -4.4760    0.0600    3.7250 hc        1 AED      0.043700
     33 H14A       -5.8830    0.0540    2.5910 hc        1 AED      0.043700
     34 H11        -4.6080    1.3200    0.9010 hc        1 AED      0.049200
     35 H11A       -4.5610    2.1930    2.4840 hc        1 AED      0.049200
     36 H5         -2.3770   -2.1740    1.4370 hc        1 AED      0.035950
     37 H163        3.0700    2.4580    5.7750 hn        1 AED      0.459467
     38 H5A        -2.3280   -1.2850    3.0130 hc        1 AED      0.035950
@<TRIPOS>BOND
     1    1    5 ar  
     2    1    9 1   
     3    1   13 ar  
     4    2    6 1   
     5    2   14 1   
     6    2   36 1   
     7    2   38 1   
     8    3   14 1   
     9    3   16 1   
    10    3   17 1   
    11    3   18 1   
    12    4    7 1   
    13    4   10 ar  
    14    4   12 ar  
    15    5   10 ar  
    16    5   19 1   
    17    6   15 1   
    18    6   20 1   
    19    6   21 1   
    20    7    8 1   
    21    7   22 1   
    22    7   23 1   
    23    8   11 1   
    24    8   24 1   
    25    8   25 1   
    26    9   26 1   
    27   10   27 1   
    28   11   28 1   
    29   11   29 1   
    30   11   37 1   
    31   12   13 ar  
    32   12   30 1   
    33   13   14 1   
    34   14   31 1   
    35   15   16 1   
    36   15   32 1   
    37   15   33 1   
    38   16   34 1   
    39   16   35 1   
@<TRIPOS>SUBSTRUCTURE
     1 AED         1 TEMP              0 ****  ****    0 ROOT
