@<TRIPOS>MOLECULE
AED
   37    35     1     0     0
SMALL
bcc


@<TRIPOS>ATOM
      1 C4          0.7370   -0.2110   -1.4080 c1        1 AED      0.082000
      2 C5         -2.0210   -1.4320   -0.6630 c3        1 AED     -0.153000
      3 C6         -1.9660    1.0260   -1.2170 c3        1 AED     -0.153000
      4 C7          2.0810   -0.0490    1.0190 c1        1 AED     -0.102000
      5 C8          2.1240   -0.2550   -1.3770 c1        1 AED     -0.210000
      6 C10        -3.5210   -1.4500   -0.8990 c3        1 AED     -0.154000
      7 C13         2.8170   -0.0680    2.3640 c2        1 AED     -0.160000
      8 C15         3.4530    1.2850    2.6110 c3        1 AED     -0.084000
      9 O9          0.6530   -0.2410   -2.8140 o         1 AED     -0.251000
     10 C12         2.7960   -0.1730   -0.1620 c1        1 AED     -0.092000
     11 N16         4.4970    1.1540    3.6080 n3        1 AED     -0.338000
     12 C3          0.6900   -0.0050    0.9870 c2        1 AED     -0.095000
     13 C1          0.0200   -0.0860   -0.2270 c2        1 AED     -0.085000
     14 C2         -1.5160   -0.0610   -0.2610 c3        1 AED     -0.051000
     15 C14        -3.9700   -0.3630   -1.8540 c3        1 AED     -0.155000
     16 C11        -3.4640    1.0070   -1.4520 c3        1 AED     -0.154000
     17 H5         -1.5690   -1.7070   -1.4850 hc        1 AED      0.088750
     18 H5A        -1.8050   -2.0690    0.0450 hc        1 AED      0.088750
     19 H6         -1.5100    0.9020   -2.0740 hc        1 AED      0.088750
     20 H6A        -1.7140    1.8980   -0.8460 hc        1 AED      0.088750
     21 H8          2.6270   -0.3420   -2.2070 ha        1 AED      0.132000
     22 H10        -3.7720   -2.3200   -1.2700 hc        1 AED      0.076250
     23 H10A       -3.9790   -1.3270   -0.0420 hc        1 AED      0.076250
     24 H13         3.5120   -0.7570    2.3450 ha        1 AED      0.084000
     25 H13A        2.1850   -0.2650    3.0770 ha        1 AED      0.084000
     26 H15         3.8400    1.6210    1.7750 h1        1 AED      0.095000
     27 H15A        2.7740    1.9100    2.9310 h1        1 AED      0.095000
     28 HO9         0.8140   -1.0680   -3.1030 ho        1 AED      0.215000
     29 H12         3.7720   -0.2040   -0.1410 ha        1 AED      0.133000
     30 HN16        4.1330    0.8510    4.3970 hn        1 AED      0.140000
     31 HN1A        5.1300    0.5570    3.3130 hn        1 AED      0.140000
     32 H3          0.1880    0.0830    1.8140 ha        1 AED      0.134000
     33 H2         -1.8480    0.1470    0.6330 hc        1 AED      0.086000
     34 H14        -3.6390   -0.5730   -2.7490 hc        1 AED      0.078000
     35 H14A       -4.9510   -0.3450   -1.8750 hc        1 AED      0.078000
     36 H11        -3.6800    1.6460   -2.1630 hc        1 AED      0.076250
     37 H11A       -3.9170    1.2840   -0.6290 hc        1 AED      0.076250
@<TRIPOS>BOND
     1    1    5 1   
     2    1   13 1   
     3    2    6 1   
     4    2   14 1   
     5    2   17 1   
     6    2   18 1   
     7    3   14 1   
     8    3   16 1   
     9    3   19 1   
    10    3   20 1   
    11    4   10 1   
    12    4   12 1   
    13    5   21 1   
    14    6   15 1   
    15    6   22 1   
    16    6   23 1   
    17    7    8 1   
    18    7   24 1   
    19    7   25 1   
    20    8   11 1   
    21    8   26 1   
    22    8   27 1   
    23    9   28 1   
    24   10   29 1   
    25   11   30 1   
    26   11   31 1   
    27   12   13 1   
    28   12   32 1   
    29   13   14 1   
    30   14   33 1   
    31   15   16 1   
    32   15   34 1   
    33   15   35 1   
    34   16   36 1   
    35   16   37 1   
@<TRIPOS>SUBSTRUCTURE
     1 AED         1 TEMP              0 ****  ****    0 ROOT
