@<TRIPOS>MOLECULE
AED
   37    38     1     0     0
SMALL
bcc


@<TRIPOS>ATOM
      1 C4         -0.0020    2.1410   -0.0470 ca        1 AED      0.124100
      2 C5          2.2070   -0.2920    1.2640 c3        1 AED     -0.071900
      3 C6          1.7670   -0.8470   -1.1380 c3        1 AED     -0.071900
      4 C7         -2.0720    0.3280    0.4420 ca        1 AED     -0.112300
      5 C8         -1.3290    2.5980    0.0600 ca        1 AED     -0.154000
      6 C10         3.6160   -0.8300    1.1300 c3        1 AED     -0.077900
      7 C13        -3.1630   -0.6430    0.7240 c3        1 AED     -0.035100
      8 C15        -3.5160   -1.4360   -0.5390 c3        1 AED      0.159800
      9 O9          0.9250    3.1290   -0.2950 oh        1 AED     -0.504100
     10 C12        -2.3530    1.6930    0.2970 ca        1 AED     -0.099000
     11 N16        -4.5080   -2.4590   -0.3070 n3        1 AED     -0.917800
     12 C3         -0.7520   -0.1130    0.3300 ca        1 AED     -0.090000
     13 C1          0.3020    0.7720    0.0700 ca        1 AED     -0.145300
     14 C2          1.6930    0.2410   -0.0700 c3        1 AED     -0.013400
     15 C14         3.7040   -1.8920    0.0530 c3        1 AED     -0.078400
     16 C11         3.1800   -1.3760   -1.2720 c3        1 AED     -0.077900
     17 H5A         2.1870    0.5290    2.0270 hc        1 AED      0.045700
     18 H6          1.0780   -1.6900   -0.8710 hc        1 AED      0.045700
     19 H6A         1.4240   -0.4280   -2.1190 hc        1 AED      0.045700
     20 H8         -1.5320    3.6730   -0.0490 ha        1 AED      0.149000
     21 H10         4.3160    0.0110    0.8820 hc        1 AED      0.040450
     22 H10A        3.9440   -1.2620    2.1110 hc        1 AED      0.040450
     23 H13        -2.8370   -1.3500    1.5340 hc        1 AED      0.053200
     24 H13A       -4.0730   -0.1020    1.0980 hc        1 AED      0.053200
     25 H15        -3.8310   -0.6980   -1.3360 h1        1 AED      0.028700
     26 H15A       -2.5830   -1.9490   -0.9130 h1        1 AED      0.028700
     27 HO9         1.8040    2.7930   -0.0700 ho        1 AED      0.420000
     28 H12        -3.3900    2.0520    0.3790 ha        1 AED      0.133000
     29 HN16       -5.3190   -2.0810    0.1390 hn        1 AED      0.348800
     30 HN1A       -4.7760   -2.8840   -1.1730 hn        1 AED      0.348800
     31 H3         -0.5360   -1.1880    0.4490 ha        1 AED      0.137000
     32 H2          2.3900    1.0620   -0.4030 hc        1 AED      0.039700
     33 H14         4.7700   -2.2190   -0.0660 hc        1 AED      0.040700
     34 H14A        3.1090   -2.7900    0.3650 hc        1 AED      0.040700
     35 H11         3.1980   -2.2010   -2.0300 hc        1 AED      0.040450
     36 H11A        3.8530   -0.5600   -1.6480 hc        1 AED      0.040450
     37 H5          1.5240   -1.1050    1.6260 hc        1 AED      0.045700
@<TRIPOS>BOND
     1    1    5 ar  
     2    1    9 1   
     3    1   13 ar  
     4    2    6 1   
     5    2   14 1   
     6    2   17 1   
     7    2   37 1   
     8    3   14 1   
     9    3   16 1   
    10    3   18 1   
    11    3   19 1   
    12    4    7 1   
    13    4   10 ar  
    14    4   12 ar  
    15    5   10 ar  
    16    5   20 1   
    17    6   15 1   
    18    6   21 1   
    19    6   22 1   
    20    7    8 1   
    21    7   23 1   
    22    7   24 1   
    23    8   11 1   
    24    8   25 1   
    25    8   26 1   
    26    9   27 1   
    27   10   28 1   
    28   11   29 1   
    29   11   30 1   
    30   12   13 ar  
    31   12   31 1   
    32   13   14 1   
    33   14   32 1   
    34   15   16 1   
    35   15   33 1   
    36   15   34 1   
    37   16   35 1   
    38   16   36 1   
@<TRIPOS>SUBSTRUCTURE
     1 AED         1 TEMP              0 ****  ****    0 ROOT
