@<TRIPOS>MOLECULE
AED
   38    39     1     0     0
SMALL
bcc


@<TRIPOS>ATOM
      1 C4          0.0090   -0.0790   -0.0180 ca        1 AED      0.163100
      2 C5         -2.7240   -1.2550    1.9690 c3        1 AED     -0.066400
      3 C6         -2.7000    1.2500    1.9130 c3        1 AED     -0.066400
      4 C7          1.4630   -0.0390    2.3610 ca        1 AED     -0.178300
      5 C8          1.4120   -0.1040   -0.0540 ca        1 AED     -0.209000
      6 C10        -4.2390   -1.2360    2.0050 c3        1 AED     -0.079400
      7 C13         2.2280   -0.0410    3.6360 c3        1 AED     -0.036100
      8 C15         2.3110    1.3950    4.1550 c3        1 AED      0.094800
      9 O9         -0.7450   -0.0910   -1.1620 oh        1 AED     -0.478100
     10 C12         2.1330   -0.0850    1.1350 ca        1 AED     -0.072000
     11 N16         3.0340    1.4950    5.4590 n4        1 AED     -0.840600
     12 C3          0.0630   -0.0210    2.3880 ca        1 AED     -0.086000
     13 C1         -0.6880   -0.0390    1.2130 ca        1 AED     -0.079300
     14 C2         -2.1830   -0.0230    1.2510 c3        1 AED     -0.026400
     15 C14        -4.7620    0.0340    2.6430 c3        1 AED     -0.078400
     16 C11        -4.2140    1.2630    1.9500 c3        1 AED     -0.079400
     17 H6         -2.2990    1.3200    2.9580 hc        1 AED      0.035950
     18 H6A        -2.3290    2.1430    1.3460 hc        1 AED      0.035950
     19 H8          1.9380   -0.1460   -1.0190 ha        1 AED      0.152000
     20 H10        -4.6070   -2.1260    2.5790 hc        1 AED      0.049200
     21 H10A       -4.6380   -1.3210    0.9600 hc        1 AED      0.049200
     22 H13         1.7110   -0.6970    4.3880 hc        1 AED      0.069200
     23 H13A        3.2590   -0.4540    3.4690 hc        1 AED      0.069200
     24 H15         2.8560    2.0430    3.4090 hx        1 AED      0.116200
     25 H15A        1.2710    1.8070    4.3040 hx        1 AED      0.116200
     26 HO9        -0.1480   -0.1530   -1.9250 ho        1 AED      0.435000
     27 H12         3.2330   -0.1170    1.1010 ha        1 AED      0.134000
     28 HN16        2.5570    0.9310    6.1700 hn        1 AED      0.459467
     29 HN1A        3.9930    1.1460    5.3580 hn        1 AED      0.459467
     30 H3         -0.4650   -0.0050    3.3550 ha        1 AED      0.134000
     31 H2         -2.5740   -0.0420    0.1910 hc        1 AED      0.087700
     32 H14        -4.4740    0.0550    3.7270 hc        1 AED      0.043700
     33 H14A       -5.8820    0.0440    2.5940 hc        1 AED      0.043700
     34 H11        -4.5650    2.1850    2.4830 hc        1 AED      0.049200
     35 H11A       -4.6120    1.3090    0.9010 hc        1 AED      0.049200
     36 H5         -2.3240   -1.2880    3.0160 hc        1 AED      0.035950
     37 H163        3.0650    2.4700    5.7710 hn        1 AED      0.459467
     38 H5A        -2.3720   -2.1790    1.4410 hc        1 AED      0.035950
@<TRIPOS>BOND
     1    1    5 ar  
     2    1    9 1   
     3    1   13 ar  
     4    2    6 1   
     5    2   14 1   
     6    2   36 1   
     7    2   38 1   
     8    3   14 1   
     9    3   16 1   
    10    3   17 1   
    11    3   18 1   
    12    4    7 1   
    13    4   10 ar  
    14    4   12 ar  
    15    5   10 ar  
    16    5   19 1   
    17    6   15 1   
    18    6   20 1   
    19    6   21 1   
    20    7    8 1   
    21    7   22 1   
    22    7   23 1   
    23    8   11 1   
    24    8   24 1   
    25    8   25 1   
    26    9   26 1   
    27   10   27 1   
    28   11   28 1   
    29   11   29 1   
    30   11   37 1   
    31   12   13 ar  
    32   12   30 1   
    33   13   14 1   
    34   14   31 1   
    35   15   16 1   
    36   15   32 1   
    37   15   33 1   
    38   16   34 1   
    39   16   35 1   
@<TRIPOS>SUBSTRUCTURE
     1 AED         1 TEMP              0 ****  ****    0 ROOT
