@<TRIPOS>MOLECULE
AED
   38    39     1     0     0
SMALL
bcc


@<TRIPOS>ATOM
      1 C4          0.0070   -0.0850   -0.0180 ca        1 AED      0.163100
      2 C5         -2.7270   -1.2530    1.9720 c3        1 AED     -0.066400
      3 C6         -2.6990    1.2530    1.9130 c3        1 AED     -0.066400
      4 C7          1.4620   -0.0420    2.3610 ca        1 AED     -0.178300
      5 C8          1.4100   -0.1120   -0.0540 ca        1 AED     -0.209000
      6 C10        -4.2420   -1.2310    2.0090 c3        1 AED     -0.079400
      7 C13         2.2270   -0.0440    3.6350 c3        1 AED     -0.036100
      8 C15         2.3160    1.3930    4.1510 c3        1 AED      0.094800
      9 O9         -0.7480   -0.0970   -1.1610 oh        1 AED     -0.478100
     10 C12         2.1320   -0.0920    1.1340 ca        1 AED     -0.072000
     11 N16         3.0390    1.4960    5.4540 n4        1 AED     -0.840600
     12 C3          0.0620   -0.0220    2.3880 ca        1 AED     -0.086000
     13 C1         -0.6890   -0.0410    1.2140 ca        1 AED     -0.079300
     14 C2         -2.1840   -0.0220    1.2520 c3        1 AED     -0.026400
     15 C14        -4.7630    0.0400    2.6460 c3        1 AED     -0.078400
     16 C11        -4.2130    1.2680    1.9500 c3        1 AED     -0.079400
     17 H6         -2.2970    1.3230    2.9580 hc        1 AED      0.035950
     18 H6A        -2.3270    2.1440    1.3440 hc        1 AED      0.035950
     19 H8          1.9350   -0.1560   -1.0190 ha        1 AED      0.152000
     20 H10        -4.6110   -2.1190    2.5850 hc        1 AED      0.049200
     21 H10A       -4.6410   -1.3170    0.9640 hc        1 AED      0.049200
     22 H13         3.2570   -0.4600    3.4690 hc        1 AED      0.069200
     23 H13A        1.7090   -0.6960    4.3890 hc        1 AED      0.069200
     24 H15         1.2760    1.8090    4.2990 hx        1 AED      0.116200
     25 H15A        2.8610    2.0380    3.4020 hx        1 AED      0.116200
     26 HO9        -0.1510   -0.1610   -1.9240 ho        1 AED      0.435000
     27 H12         3.2310   -0.1250    1.1010 ha        1 AED      0.134000
     28 HN16        3.0740    2.4710    5.7630 hn        1 AED      0.459467
     29 HN1A        2.5610    0.9350    6.1670 hn        1 AED      0.459467
     30 H3         -0.4650   -0.0040    3.3560 ha        1 AED      0.134000
     31 H2         -2.5750   -0.0430    0.1920 hc        1 AED      0.087700
     32 H14        -4.4740    0.0630    3.7290 hc        1 AED      0.043700
     33 H14A       -5.8830    0.0520    2.5960 hc        1 AED      0.043700
     34 H11        -4.6110    1.3130    0.9010 hc        1 AED      0.049200
     35 H11A       -4.5630    2.1910    2.4820 hc        1 AED      0.049200
     36 H5         -2.3270   -1.2840    3.0190 hc        1 AED      0.035950
     37 H163        3.9970    1.1430    5.3530 hn        1 AED      0.459467
     38 H5A        -2.3760   -2.1780    1.4460 hc        1 AED      0.035950
@<TRIPOS>BOND
     1    1    5 ar  
     2    1    9 1   
     3    1   13 ar  
     4    2    6 1   
     5    2   14 1   
     6    2   36 1   
     7    2   38 1   
     8    3   14 1   
     9    3   16 1   
    10    3   17 1   
    11    3   18 1   
    12    4    7 1   
    13    4   10 ar  
    14    4   12 ar  
    15    5   10 ar  
    16    5   19 1   
    17    6   15 1   
    18    6   20 1   
    19    6   21 1   
    20    7    8 1   
    21    7   22 1   
    22    7   23 1   
    23    8   11 1   
    24    8   24 1   
    25    8   25 1   
    26    9   26 1   
    27   10   27 1   
    28   11   28 1   
    29   11   29 1   
    30   11   37 1   
    31   12   13 ar  
    32   12   30 1   
    33   13   14 1   
    34   14   31 1   
    35   15   16 1   
    36   15   32 1   
    37   15   33 1   
    38   16   34 1   
    39   16   35 1   
@<TRIPOS>SUBSTRUCTURE
     1 AED         1 TEMP              0 ****  ****    0 ROOT
