@<TRIPOS>MOLECULE
AEE
   66    70     1     0     0
SMALL
bcc


@<TRIPOS>ATOM
      1 CAQ        -0.1590   -0.1760    0.0790 c3        1 AEE      0.165300
      2 CAO         1.2080   -0.0350   -0.6170 c3        1 AEE      0.168800
      3 NBF         2.3100    0.1140    0.3240 n3        1 AEE     -0.730600
      4 CAN         3.5870    0.2500   -0.3660 c3        1 AEE      0.169800
      5 CAA         4.7980    0.2450    0.5510 c3        1 AEE     -0.096100
      6 CAP         2.0630    1.1750    1.2870 c3        1 AEE      0.168800
      7 CAR         0.6970    1.0410    1.9870 c3        1 AEE      0.165300
      8 NBG        -0.4090    0.8810    1.0520 n3        1 AEE     -0.733600
      9 CAS        -1.6870    0.7010    1.7280 c3        1 AEE      0.203100
     10 CAX        -2.1920    1.9410    2.4100 ca        1 AEE     -0.035300
     11 CAI        -2.1260    3.1910    1.7820 ca        1 AEE     -0.117500
     12 CAK        -2.6490    4.3210    2.4040 ca        1 AEE     -0.097500
     13 CAJ        -2.7870    1.8380    3.6740 ca        1 AEE     -0.117500
     14 CAL        -3.3120    2.9640    4.2990 ca        1 AEE     -0.097500
     15 CAY        -3.2490    4.2160    3.6680 ca        1 AEE     -0.106800
     16 CBA        -3.7970    5.3790    4.3420 cc        1 AEE      0.112700
     17 NAW        -4.3610    6.4610    3.6460 na        1 AEE     -0.263100
     18 CAM        -3.8590    5.6120    5.7280 cd        1 AEE     -0.226200
     19 C5         -4.4830    6.8840    5.9180 ca        1 AEE     -0.279400
     20 C4         -4.7990    7.4080    4.5720 ca        1 AEE      0.470800
     21 N3         -5.4070    8.6050    4.3620 nb        1 AEE     -0.636000
     22 C2         -5.7020    9.2830    5.4980 ca        1 AEE      0.658900
     23 N1         -5.4670    8.9180    6.7910 nb        1 AEE     -0.694000
     24 C6         -4.8570    7.7200    6.9850 ca        1 AEE      0.512200
     25 NAV        -4.6020    7.2760    8.3690 n4        1 AEE     -0.750700
     26 CBE        -3.6800    8.2030    9.1500 c3        1 AEE      0.202800
     27 CAB        -2.2860    8.2500    8.5460 c3        1 AEE     -0.121100
     28 CAZ        -3.6630    7.7510   10.5790 ca        1 AEE     -0.186300
     29 CAG        -4.2800    8.5440   11.5540 ca        1 AEE     -0.105000
     30 CAD        -4.2460    8.1540   12.8920 ca        1 AEE     -0.118000
     31 CAC        -3.6050    6.9700   13.2610 ca        1 AEE     -0.083000
     32 CAE        -2.9940    6.1750   12.2890 ca        1 AEE     -0.118000
     33 CAH        -3.0210    6.5630   10.9510 ca        1 AEE     -0.105000
     34 HAQ1       -0.9550   -0.1100   -0.7140 h1        1 AEE      0.039200
     35 HAQ2       -0.2220   -1.1990    0.5520 h1        1 AEE      0.039200
     36 HAO1        1.3840   -0.9760   -1.2100 h1        1 AEE      0.040950
     37 HAO2        1.1560    0.8280   -1.3430 h1        1 AEE      0.040950
     38 HAN1        3.6170    1.1910   -0.9940 h1        1 AEE      0.033200
     39 HAN2        3.6710   -0.6270   -1.0710 h1        1 AEE      0.033200
     40 HAA1        5.7190    0.1670   -0.0760 hc        1 AEE      0.041367
     41 HAA2        4.7720   -0.6210    1.2540 hc        1 AEE      0.041367
     42 HAA3        4.8580    1.1870    1.1470 hc        1 AEE      0.041367
     43 HAP1        2.1280    2.1970    0.8120 h1        1 AEE      0.040950
     44 HAP2        2.8570    1.1110    2.0820 h1        1 AEE      0.040950
     45 HAR1        0.7500    0.1820    2.7190 h1        1 AEE      0.039200
     46 HAR2        0.5120    1.9840    2.5730 h1        1 AEE      0.039200
     47 HAS1       -1.6450   -0.1410    2.4830 h1        1 AEE      0.052200
     48 HAS2       -2.4560    0.4150    0.9500 h1        1 AEE      0.052200
     49 HAI        -1.6530    3.2810    0.7890 ha        1 AEE      0.159000
     50 HAK        -2.5700    5.2950    1.8980 ha        1 AEE      0.135000
     51 HAJ        -2.8440    0.8600    4.1770 ha        1 AEE      0.159000
     52 HAL        -3.7870    2.8710    5.2880 ha        1 AEE      0.135000
     53 HAW        -4.4550    6.5320    2.6610 hn        1 AEE      0.339700
     54 HAM        -3.4830    4.9400    6.4940 ha        1 AEE      0.167000
     55 H2         -6.2060   10.2680    5.3650 h5        1 AEE      0.090100
     56 HAV        -4.1800    6.3410    8.3310 hn        1 AEE      0.458800
     57 HBE        -4.1440    9.2370    9.0800 hx        1 AEE      0.125700
     58 HAB1       -1.7880    7.2510    8.5660 hc        1 AEE      0.075367
     59 HAB2       -1.6710    8.9600    9.1550 hc        1 AEE      0.075367
     60 HAB3       -2.3170    8.6230    7.4920 hc        1 AEE      0.075367
     61 HAG        -4.7830    9.4830   11.2720 ha        1 AEE      0.138500
     62 HAD        -4.7240    8.7840   13.6590 ha        1 AEE      0.157500
     63 HAC        -3.5780    6.6640   14.3190 ha        1 AEE      0.159000
     64 HAE        -2.4840    5.2440   12.5810 ha        1 AEE      0.157500
     65 HAH        -2.5180    5.9410   10.1960 ha        1 AEE      0.138500
     66 HAV2       -5.4970    7.2170    8.8740 hn        1 AEE      0.458800
@<TRIPOS>BOND
     1    1    2 1   
     2    1    8 1   
     3    1   34 1   
     4    1   35 1   
     5    2    3 1   
     6    2   36 1   
     7    2   37 1   
     8    3    4 1   
     9    3    6 1   
    10    4    5 1   
    11    4   38 1   
    12    4   39 1   
    13    5   40 1   
    14    5   41 1   
    15    5   42 1   
    16    6    7 1   
    17    6   43 1   
    18    6   44 1   
    19    7    8 1   
    20    7   45 1   
    21    7   46 1   
    22    8    9 1   
    23    9   10 1   
    24    9   47 1   
    25    9   48 1   
    26   10   11 ar  
    27   10   13 ar  
    28   11   12 ar  
    29   11   49 1   
    30   12   15 ar  
    31   12   50 1   
    32   13   14 ar  
    33   13   51 1   
    34   14   15 ar  
    35   14   52 1   
    36   15   16 1   
    37   16   17 1   
    38   16   18 2   
    39   17   20 1   
    40   17   53 1   
    41   18   19 1   
    42   18   54 1   
    43   19   20 ar  
    44   19   24 ar  
    45   20   21 ar  
    46   21   22 ar  
    47   22   23 ar  
    48   22   55 1   
    49   23   24 ar  
    50   24   25 1   
    51   25   26 1   
    52   25   56 1   
    53   25   66 1   
    54   26   27 1   
    55   26   28 1   
    56   26   57 1   
    57   27   58 1   
    58   27   59 1   
    59   27   60 1   
    60   28   29 ar  
    61   28   33 ar  
    62   29   30 ar  
    63   29   61 1   
    64   30   31 ar  
    65   30   62 1   
    66   31   32 ar  
    67   31   63 1   
    68   32   33 ar  
    69   32   64 1   
    70   33   65 1   
@<TRIPOS>SUBSTRUCTURE
     1 AEE         1 TEMP              0 ****  ****    0 ROOT
