@<TRIPOS>MOLECULE
AEE
   65    69     1     0     0
SMALL
bcc


@<TRIPOS>ATOM
      1 CAQ        -7.1520   -0.0060   -1.1770 c3        1 AEE      0.165800
      2 CAO        -8.1720    0.4090   -0.1010 c3        1 AEE      0.168300
      3 NBF        -7.8170    1.6490    0.5750 n3        1 AEE     -0.730600
      4 CAN        -8.7880    1.9880    1.6090 c3        1 AEE      0.169800
      5 CAA        -8.5720    3.3490    2.2490 c3        1 AEE     -0.095100
      6 CAP        -6.4460    1.6340    1.0650 c3        1 AEE      0.168300
      7 CAR        -5.4260    1.2120   -0.0090 c3        1 AEE      0.165800
      8 NBG        -5.7840   -0.0320   -0.6760 n3        1 AEE     -0.729600
      9 CAS        -4.8370   -0.4040   -1.7200 c3        1 AEE      0.212100
     10 CAX        -3.4520   -0.6900   -1.2170 ca        1 AEE     -0.080300
     11 CAI        -3.2450   -1.5460   -0.1310 ca        1 AEE     -0.116000
     12 CAK        -1.9540   -1.8450    0.2960 ca        1 AEE     -0.121500
     13 CAJ        -2.3480   -0.1350   -1.8720 ca        1 AEE     -0.116000
     14 CAL        -1.0550   -0.4360   -1.4530 ca        1 AEE     -0.121500
     15 CAY        -0.8450   -1.2950   -0.3630 ca        1 AEE     -0.035800
     16 CBA         0.5130   -1.5810    0.0630 cc        1 AEE     -0.022300
     17 NAW         0.8790   -2.7980    0.6760 na        1 AEE     -0.271100
     18 CAM         1.6370   -0.7530   -0.0470 cd        1 AEE     -0.134200
     19 C5          2.7490   -1.4670    0.5080 ca        1 AEE     -0.379400
     20 C4          2.2450   -2.7580    0.9480 ca        1 AEE      0.475800
     21 N3          3.0350   -3.7190    1.5320 nb        1 AEE     -0.738000
     22 C2          4.3210   -3.3360    1.6540 ca        1 AEE      0.679900
     23 N1          4.9280   -2.1660    1.2970 nb        1 AEE     -0.792000
     24 C6          4.1460   -1.2110    0.7020 ca        1 AEE      0.734200
     25 NAV         4.6770   -0.0230    0.2210 nh        1 AEE     -0.843900
     26 CBE         6.0130    0.4290    0.5670 c3        1 AEE      0.264800
     27 CAB         6.1650    0.8920    2.0200 c3        1 AEE     -0.120100
     28 CAZ         6.4400    1.5480   -0.3550 ca        1 AEE     -0.093300
     29 CAG         7.5290    1.3600   -1.2120 ca        1 AEE     -0.119000
     30 CAD         7.9430    2.3910   -2.0540 ca        1 AEE     -0.129000
     31 CAC         7.2680    3.6120   -2.0520 ca        1 AEE     -0.125000
     32 CAE         6.1770    3.8000   -1.2040 ca        1 AEE     -0.129000
     33 CAH         5.7630    2.7720   -0.3580 ca        1 AEE     -0.119000
     34 HAQ1       -7.4160   -1.0470   -1.5160 h1        1 AEE      0.039200
     35 HAQ2       -7.2590    0.6850   -2.0640 h1        1 AEE      0.039200
     36 HAO1       -8.2930   -0.4450    0.6290 h1        1 AEE      0.037200
     37 HAO2       -9.1620    0.5680   -0.6130 h1        1 AEE      0.037200
     38 HAN1       -8.8080    1.2080    2.4270 h1        1 AEE      0.029200
     39 HAN2       -9.8030    1.9840    1.1160 h1        1 AEE      0.029200
     40 HAA1       -8.4590    4.1470    1.4770 hc        1 AEE      0.039367
     41 HAA2       -9.4580    3.5890    2.8840 hc        1 AEE      0.039367
     42 HAA3       -7.6630    3.3500    2.8970 hc        1 AEE      0.039367
     43 HAP1       -6.1860    2.6810    1.3860 h1        1 AEE      0.037200
     44 HAP2       -6.3310    0.9560    1.9610 h1        1 AEE      0.037200
     45 HAR1       -4.4330    1.0520    0.4970 h1        1 AEE      0.039200
     46 HAR2       -5.3080    2.0600   -0.7460 h1        1 AEE      0.039200
     47 HAS1       -5.2240   -1.3480   -2.2050 h1        1 AEE      0.041200
     48 HAS2       -4.7790    0.3890   -2.5260 h1        1 AEE      0.041200
     49 HAI        -4.1110   -1.9820    0.3940 ha        1 AEE      0.143000
     50 HAK        -1.8150   -2.5070    1.1640 ha        1 AEE      0.135500
     51 HAJ        -2.4970    0.5420   -2.7270 ha        1 AEE      0.143000
     52 HAL        -0.1910   -0.0030   -1.9790 ha        1 AEE      0.135500
     53 HAW         0.2810   -3.5670    0.8290 hn        1 AEE      0.312700
     54 HAM         1.6570    0.2460   -0.4720 ha        1 AEE      0.155000
     55 H2          5.0000   -4.0810    2.1220 h5        1 AEE      0.049100
     56 HAV         4.0100    0.6930    0.0340 hn        1 AEE      0.424800
     57 HBE         6.7120   -0.4510    0.4130 h1        1 AEE      0.088700
     58 HAB1        5.4930    1.7550    2.2410 hc        1 AEE      0.047033
     59 HAB2        5.9270    0.0590    2.7230 hc        1 AEE      0.047033
     60 HAB3        7.2210    1.2110    2.1880 hc        1 AEE      0.047033
     61 HAG         8.0600    0.3960   -1.2240 ha        1 AEE      0.133000
     62 HAD         8.8030    2.2390   -2.7240 ha        1 AEE      0.133000
     63 HAC         7.5950    4.4230   -2.7180 ha        1 AEE      0.133000
     64 HAE         5.6420    4.7610   -1.2010 ha        1 AEE      0.133000
     65 HAH         4.9070    2.9300    0.3150 ha        1 AEE      0.133000
@<TRIPOS>BOND
     1    1    2 1   
     2    1    8 1   
     3    1   34 1   
     4    1   35 1   
     5    2    3 1   
     6    2   36 1   
     7    2   37 1   
     8    3    4 1   
     9    3    6 1   
    10    4    5 1   
    11    4   38 1   
    12    4   39 1   
    13    5   40 1   
    14    5   41 1   
    15    5   42 1   
    16    6    7 1   
    17    6   43 1   
    18    6   44 1   
    19    7    8 1   
    20    7   45 1   
    21    7   46 1   
    22    8    9 1   
    23    9   10 1   
    24    9   47 1   
    25    9   48 1   
    26   10   11 ar  
    27   10   13 ar  
    28   11   12 ar  
    29   11   49 1   
    30   12   15 ar  
    31   12   50 1   
    32   13   14 ar  
    33   13   51 1   
    34   14   15 ar  
    35   14   52 1   
    36   15   16 1   
    37   16   17 1   
    38   16   18 2   
    39   17   20 1   
    40   17   53 1   
    41   18   19 1   
    42   18   54 1   
    43   19   20 ar  
    44   19   24 ar  
    45   20   21 ar  
    46   21   22 ar  
    47   22   23 ar  
    48   22   55 1   
    49   23   24 ar  
    50   24   25 1   
    51   25   26 1   
    52   25   56 1   
    53   26   27 1   
    54   26   28 1   
    55   26   57 1   
    56   27   58 1   
    57   27   59 1   
    58   27   60 1   
    59   28   29 ar  
    60   28   33 ar  
    61   29   30 ar  
    62   29   61 1   
    63   30   31 ar  
    64   30   62 1   
    65   31   32 ar  
    66   31   63 1   
    67   32   33 ar  
    68   32   64 1   
    69   33   65 1   
@<TRIPOS>SUBSTRUCTURE
     1 AEE         1 TEMP              0 ****  ****    0 ROOT
