@<TRIPOS>MOLECULE
AEE
   65    69     1     0     0
SMALL
bcc


@<TRIPOS>ATOM
      1 CAQ        -0.2380   -0.5290    0.3090 c3        1 AEE      0.165800
      2 CAO         1.0790   -0.4520   -0.4850 c3        1 AEE      0.168300
      3 NBF         2.2230   -0.0880    0.3400 n3        1 AEE     -0.730600
      4 CAN         3.4420    0.0080   -0.4540 c3        1 AEE      0.169800
      5 CAA         4.7050    0.2270    0.3620 c3        1 AEE     -0.095100
      6 CAP         1.9670    1.1020    1.1370 c3        1 AEE      0.168300
      7 CAR         0.6470    1.0290    1.9270 c3        1 AEE      0.165800
      8 NBG        -0.4930    0.6710    1.0950 n3        1 AEE     -0.729600
      9 CAS        -1.7330    0.5620    1.8550 c3        1 AEE      0.212100
     10 CAX        -2.1790    1.8490    2.4850 ca        1 AEE     -0.080300
     11 CAI        -2.2440    3.0300    1.7380 ca        1 AEE     -0.116000
     12 CAK        -2.7090    4.2070    2.3200 ca        1 AEE     -0.121500
     13 CAJ        -2.5850    1.8610    3.8240 ca        1 AEE     -0.116000
     14 CAL        -3.0560    3.0340    4.4070 ca        1 AEE     -0.121500
     15 CAY        -3.1220    4.2200    3.6600 ca        1 AEE     -0.035800
     16 CBA        -3.6020    5.4340    4.2950 cc        1 AEE     -0.022300
     17 NAW        -4.2640    6.4570    3.5840 na        1 AEE     -0.271100
     18 CAM        -3.5020    5.7900    5.6460 cd        1 AEE     -0.134200
     19 C5         -4.1220    7.0730    5.7970 ca        1 AEE     -0.379400
     20 C4         -4.6020    7.4670    4.4820 ca        1 AEE      0.475800
     21 N3         -5.2600    8.6490    4.2400 nb        1 AEE     -0.738000
     22 C2         -5.4070    9.4020    5.3480 ca        1 AEE      0.679900
     23 N1         -5.0040    9.1670    6.6310 nb        1 AEE     -0.792000
     24 C6         -4.3610    7.9830    6.8780 ca        1 AEE      0.734200
     25 NAV        -3.9880    7.6040    8.1600 nh        1 AEE     -0.843900
     26 CBE        -3.9750    8.5350    9.2740 c3        1 AEE      0.264800
     27 CAB        -2.8600    9.5840    9.2060 c3        1 AEE     -0.120100
     28 CAZ        -3.8650    7.7830   10.5810 ca        1 AEE     -0.093300
     29 CAG        -4.9140    7.8460   11.5040 ca        1 AEE     -0.119000
     30 CAD        -4.8160    7.1710   12.7210 ca        1 AEE     -0.129000
     31 CAC        -3.6770    6.4240   13.0180 ca        1 AEE     -0.125000
     32 CAE        -2.6320    6.3530   12.0960 ca        1 AEE     -0.129000
     33 CAH        -2.7250    7.0290   10.8810 ca        1 AEE     -0.119000
     34 HAQ1       -1.0780   -0.6440   -0.4310 h1        1 AEE      0.039200
     35 HAQ2       -0.2170   -1.4550    0.9560 h1        1 AEE      0.039200
     36 HAO1        1.2770   -1.4730   -0.9160 h1        1 AEE      0.037200
     37 HAO2        0.9390    0.2660   -1.3450 h1        1 AEE      0.037200
     38 HAN1        3.5440   -0.9670   -1.0130 h1        1 AEE      0.029200
     39 HAN2        3.3680    0.8320   -1.2250 h1        1 AEE      0.029200
     40 HAA1        5.5890    0.1040   -0.3090 hc        1 AEE      0.039367
     41 HAA2        4.7830   -0.5110    1.1950 hc        1 AEE      0.039367
     42 HAA3        4.7320    1.2560    0.7940 hc        1 AEE      0.039367
     43 HAP1        1.9590    2.0360    0.5020 h1        1 AEE      0.037200
     44 HAP2        2.8030    1.2000    1.8850 h1        1 AEE      0.037200
     45 HAR1        0.7790    0.3050    2.7840 h1        1 AEE      0.039200
     46 HAR2        0.4440    2.0480    2.3610 h1        1 AEE      0.039200
     47 HAS1       -2.5410    0.2370    1.1350 h1        1 AEE      0.041200
     48 HAS2       -1.6560   -0.2330    2.6560 h1        1 AEE      0.041200
     49 HAI        -1.9200    3.0280    0.6860 ha        1 AEE      0.143000
     50 HAK        -2.7340    5.1280    1.7190 ha        1 AEE      0.135500
     51 HAJ        -2.5370    0.9390    4.4230 ha        1 AEE      0.143000
     52 HAL        -3.3820    3.0340    5.4580 ha        1 AEE      0.135500
     53 HAW        -4.4990    6.4310    2.6270 hn        1 AEE      0.312700
     54 HAM        -3.0360    5.2000    6.4310 ha        1 AEE      0.155000
     55 H2         -5.9330   10.3700    5.2020 h5        1 AEE      0.049100
     56 HAV        -3.3240    6.8620    8.2050 hn        1 AEE      0.424800
     57 HBE        -4.9650    9.0870    9.2580 h1        1 AEE      0.088700
     58 HAB1       -1.8520    9.1040    9.2090 hc        1 AEE      0.047033
     59 HAB2       -2.9380   10.2520   10.0960 hc        1 AEE      0.047033
     60 HAB3       -2.9620   10.2040    8.2840 hc        1 AEE      0.047033
     61 HAG        -5.8190    8.4280   11.2710 ha        1 AEE      0.133000
     62 HAD        -5.6420    7.2280   13.4450 ha        1 AEE      0.133000
     63 HAC        -3.6030    5.8910   13.9770 ha        1 AEE      0.133000
     64 HAE        -1.7340    5.7630   12.3280 ha        1 AEE      0.133000
     65 HAH        -1.8950    6.9760   10.1620 ha        1 AEE      0.133000
@<TRIPOS>BOND
     1    1    2 1   
     2    1    8 1   
     3    1   34 1   
     4    1   35 1   
     5    2    3 1   
     6    2   36 1   
     7    2   37 1   
     8    3    4 1   
     9    3    6 1   
    10    4    5 1   
    11    4   38 1   
    12    4   39 1   
    13    5   40 1   
    14    5   41 1   
    15    5   42 1   
    16    6    7 1   
    17    6   43 1   
    18    6   44 1   
    19    7    8 1   
    20    7   45 1   
    21    7   46 1   
    22    8    9 1   
    23    9   10 1   
    24    9   47 1   
    25    9   48 1   
    26   10   11 ar  
    27   10   13 ar  
    28   11   12 ar  
    29   11   49 1   
    30   12   15 ar  
    31   12   50 1   
    32   13   14 ar  
    33   13   51 1   
    34   14   15 ar  
    35   14   52 1   
    36   15   16 1   
    37   16   17 1   
    38   16   18 2   
    39   17   20 1   
    40   17   53 1   
    41   18   19 1   
    42   18   54 1   
    43   19   20 ar  
    44   19   24 ar  
    45   20   21 ar  
    46   21   22 ar  
    47   22   23 ar  
    48   22   55 1   
    49   23   24 ar  
    50   24   25 1   
    51   25   26 1   
    52   25   56 1   
    53   26   27 1   
    54   26   28 1   
    55   26   57 1   
    56   27   58 1   
    57   27   59 1   
    58   27   60 1   
    59   28   29 ar  
    60   28   33 ar  
    61   29   30 ar  
    62   29   61 1   
    63   30   31 ar  
    64   30   62 1   
    65   31   32 ar  
    66   31   63 1   
    67   32   33 ar  
    68   32   64 1   
    69   33   65 1   
@<TRIPOS>SUBSTRUCTURE
     1 AEE         1 TEMP              0 ****  ****    0 ROOT
