@<TRIPOS>MOLECULE
AEE
   65    59     1     0     0
SMALL
bcc


@<TRIPOS>ATOM
      1 CAQ         3.0670   -4.9110   -1.5730 c3        1 AEE     -0.071000
      2 CAO         2.1060   -6.0120   -1.9940 c3        1 AEE     -0.068500
      3 NBF         1.8300   -5.9900   -3.4140 n3        1 AEE     -0.256000
      4 CAN         0.7700   -6.9800   -3.7250 c3        1 AEE     -0.067000
      5 CAA         1.3850   -8.1890   -4.3670 c3        1 AEE     -0.213000
      6 CAP         1.4250   -4.7210   -3.8680 c3        1 AEE     -0.068500
      7 CAR         2.3920   -3.6130   -3.4410 c3        1 AEE     -0.071000
      8 NBG         2.6620   -3.6350   -2.0300 n3        1 AEE     -0.254000
      9 CAS         3.7060   -2.6570   -1.7200 c3        1 AEE     -0.032000
     10 CAX         3.1140   -1.5300   -0.8490 c2        1 AEE     -0.073000
     11 CAI         2.9650   -0.2360   -1.3770 c2        1 AEE     -0.125000
     12 CAK         2.4580    0.7820   -0.5820 c1        1 AEE     -0.126000
     13 CAJ         2.7540   -1.7870    0.4640 c1        1 AEE     -0.106000
     14 CAL         2.2450   -0.7640    1.2570 c1        1 AEE     -0.117000
     15 CAY         2.0970    0.5240    0.7310 c1        1 AEE     -0.024000
     16 CBA         1.4700    1.5230    1.4930 c1        1 AEE     -0.005000
     17 NAW         2.1880    2.4360    2.2300 n2        1 AEE     -0.186000
     18 CAM         0.1230    1.8110    1.6510 c1        1 AEE     -0.146000
     19 C5          0.0140    2.9300    2.5070 c1        1 AEE     -0.231000
     20 C4          1.2700    3.3120    2.8610 c1        1 AEE      0.082000
     21 N3          1.4520    4.4110    3.6670 n1        1 AEE     -0.208000
     22 C2          0.3510    5.1330    4.1200 c1        1 AEE      0.015000
     23 N1         -0.9170    4.7480    3.7640 n1        1 AEE     -0.258000
     24 C6         -1.1000    3.6620    2.9670 c1        1 AEE      0.205000
     25 NAV        -2.4660    3.4580    2.5670 n3        1 AEE     -0.272000
     26 CBE        -3.4910    4.1680    3.1960 c3        1 AEE      0.047000
     27 CAB        -4.5080    3.2140    3.7100 c3        1 AEE     -0.214000
     28 CAZ        -4.1640    5.1500    2.1630 c2        1 AEE     -0.112000
     29 CAG        -4.9060    4.6410    1.1060 c2        1 AEE     -0.125000
     30 CAD        -5.5700    5.5080    0.2380 c1        1 AEE     -0.131000
     31 CAC        -5.4900    6.8740    0.4300 c1        1 AEE     -0.128000
     32 CAE        -4.7480    7.3850    1.4870 c1        1 AEE     -0.128000
     33 CAH        -4.0840    6.5210    2.3550 c1        1 AEE     -0.104000
     34 HAQ1        3.1210   -4.8950   -0.5460 h1        1 AEE      0.078500
     35 HAQ2        3.9610   -5.1100   -1.9390 h1        1 AEE      0.078500
     36 HAO1        2.5080   -6.9080   -1.7520 h1        1 AEE      0.076500
     37 HAO2        1.2720   -5.9010   -1.5070 h1        1 AEE      0.076500
     38 HAN1        0.1280   -6.5850   -4.3320 h1        1 AEE      0.069000
     39 HAN2        0.3170   -7.2440   -2.8980 h1        1 AEE      0.069000
     40 HAA1        2.2360   -8.3130   -4.0360 hc        1 AEE      0.078667
     41 HAA2        0.8360   -8.9820   -4.1660 hc        1 AEE      0.078667
     42 HAA3        1.4270   -8.0540   -5.3550 hc        1 AEE      0.078667
     43 HAP1        0.5350   -4.5230   -3.5080 h1        1 AEE      0.076500
     44 HAP2        1.3720   -4.7390   -4.8830 h1        1 AEE      0.076500
     45 HAR1        3.1850   -3.7150   -3.8970 h1        1 AEE      0.078500
     46 HAR2        1.9930   -2.7290   -3.6790 h1        1 AEE      0.078500
     47 HAS1        4.0530   -2.2780   -2.5500 h1        1 AEE      0.081000
     48 HAS2        4.4440   -3.1040   -1.2260 h1        1 AEE      0.081000
     49 HAI         3.2310   -0.0420   -2.3480 ha        1 AEE      0.135000
     50 HAK         2.3510    1.7060   -0.9580 ha        1 AEE      0.131000
     51 HAJ         2.8540   -2.6580    0.8210 ha        1 AEE      0.151000
     52 HAL         1.9870   -0.9490    2.1970 ha        1 AEE      0.139000
     53 HAW         3.1290    2.5050    2.2610 DU        1 AEE      0.208500
     54 HAM        -0.6500    1.2730    1.2680 DU        1 AEE      0.208500
     55 H2          0.4790    5.9020    4.6830 ha        1 AEE      0.186000
     56 HAV        -2.6580    2.9020    1.8740 hn        1 AEE      0.208000
     57 HBE        -3.1000    4.7100    3.9820 h1        1 AEE      0.134000
     58 HAB1       -4.4580    2.3400    3.1740 hc        1 AEE      0.084333
     59 HAB2       -5.3840    3.5970    3.6150 hc        1 AEE      0.084333
     60 HAB3       -4.3380    3.0330    4.6310 hc        1 AEE      0.084333
     61 HAG        -4.9610    3.7120    0.9750 ha        1 AEE      0.125000
     62 HAD        -6.0980    5.1450   -0.5140 ha        1 AEE      0.131000
     63 HAC        -5.9400    7.4600   -0.1590 ha        1 AEE      0.132500
     64 HAE        -4.6900    8.3820    1.6250 ha        1 AEE      0.132500
     65 HAH        -3.5460    6.8930    3.1210 ha        1 AEE      0.142000
@<TRIPOS>BOND
     1    1    2 1   
     2    1    8 1   
     3    1   34 1   
     4    1   35 1   
     5    2    3 1   
     6    2   36 1   
     7    2   37 1   
     8    3    4 1   
     9    3    6 1   
    10    4    5 1   
    11    4   38 1   
    12    4   39 1   
    13    5   40 1   
    14    5   41 1   
    15    5   42 1   
    16    6    7 1   
    17    6   43 1   
    18    6   44 1   
    19    7    8 1   
    20    7   45 1   
    21    7   46 1   
    22    8    9 1   
    23    9   10 1   
    24    9   47 1   
    25    9   48 1   
    26   10   11 1   
    27   10   13 1   
    28   11   12 1   
    29   11   49 1   
    30   12   50 1   
    31   13   51 1   
    32   14   15 1   
    33   14   52 1   
    34   16   17 1   
    35   16   18 1   
    36   17   20 1   
    37   18   19 1   
    38   19   24 1   
    39   20   21 1   
    40   22   23 1   
    41   22   55 1   
    42   24   25 1   
    43   25   26 1   
    44   25   56 1   
    45   26   27 1   
    46   26   28 1   
    47   26   57 1   
    48   27   58 1   
    49   27   59 1   
    50   27   60 1   
    51   28   29 1   
    52   28   33 1   
    53   29   30 1   
    54   29   61 1   
    55   30   62 1   
    56   31   32 1   
    57   31   63 1   
    58   32   64 1   
    59   33   65 1   
@<TRIPOS>SUBSTRUCTURE
     1 AEE         1 TEMP              0 ****  ****    0 ROOT
