@<TRIPOS>MOLECULE
AEE
   65    69     1     0     0
SMALL
bcc


@<TRIPOS>ATOM
      1 CAQ        -0.2120   -0.5100    0.2980 c3        1 AEE      0.165800
      2 CAO         1.1010   -0.4210   -0.5030 c3        1 AEE      0.168300
      3 NBF         2.2450   -0.0490    0.3180 n3        1 AEE     -0.730600
      4 CAN         3.4600    0.0580   -0.4820 c3        1 AEE      0.169800
      5 CAA         4.7250    0.2860    0.3270 c3        1 AEE     -0.095100
      6 CAP         1.9840    1.1390    1.1170 c3        1 AEE      0.168300
      7 CAR         0.6680    1.0540    1.9120 c3        1 AEE      0.165800
      8 NBG        -0.4730    0.6880    1.0850 n3        1 AEE     -0.729600
      9 CAS        -1.7080    0.5680    1.8510 c3        1 AEE      0.212100
     10 CAX        -2.1620    1.8500    2.4850 ca        1 AEE     -0.080300
     11 CAI        -2.2380    3.0320    1.7400 ca        1 AEE     -0.116000
     12 CAK        -2.7100    4.2050    2.3240 ca        1 AEE     -0.121500
     13 CAJ        -2.5650    1.8570    3.8240 ca        1 AEE     -0.116000
     14 CAL        -3.0430    3.0260    4.4100 ca        1 AEE     -0.121500
     15 CAY        -3.1200    4.2130    3.6650 ca        1 AEE     -0.035800
     16 CBA        -3.6080    5.4210    4.3040 cc        1 AEE     -0.022300
     17 NAW        -4.2770    6.4410    3.5960 na        1 AEE     -0.271100
     18 CAM        -3.5090    5.7750    5.6560 cd        1 AEE     -0.134200
     19 C5         -4.1380    7.0540    5.8090 ca        1 AEE     -0.379400
     20 C4         -4.6220    7.4480    4.4960 ca        1 AEE      0.475800
     21 N3         -5.2880    8.6250    4.2570 nb        1 AEE     -0.738000
     22 C2         -5.4390    9.3750    5.3670 ca        1 AEE      0.679900
     23 N1         -5.0340    9.1390    6.6490 nb        1 AEE     -0.792000
     24 C6         -4.3820    7.9590    6.8930 ca        1 AEE      0.734200
     25 NAV        -4.0070    7.5800    8.1740 nu        1 AEE     -0.843900
     26 CBE        -3.9990    8.5090    9.2900 c3        1 AEE      0.264800
     27 CAB        -2.8910    9.5650    9.2240 c3        1 AEE     -0.120100
     28 CAZ        -3.8850    7.7540   10.5950 ca        1 AEE     -0.093300
     29 CAG        -4.9340    7.8080   11.5180 ca        1 AEE     -0.119000
     30 CAD        -4.8320    7.1310   12.7330 ca        1 AEE     -0.129000
     31 CAC        -3.6880    6.3900   13.0290 ca        1 AEE     -0.125000
     32 CAE        -2.6430    6.3280   12.1070 ca        1 AEE     -0.129000
     33 CAH        -2.7400    7.0070   10.8940 ca        1 AEE     -0.119000
     34 HAQ1       -1.0550   -0.6310   -0.4390 h1        1 AEE      0.039200
     35 HAQ2       -0.1810   -1.4360    0.9440 h1        1 AEE      0.039200
     36 HAO1        1.3050   -1.4410   -0.9360 h1        1 AEE      0.037200
     37 HAO2        0.9510    0.2960   -1.3620 h1        1 AEE      0.037200
     38 HAN1        3.5670   -0.9150   -1.0430 h1        1 AEE      0.029200
     39 HAN2        3.3750    0.8820   -1.2520 h1        1 AEE      0.029200
     40 HAA1        5.6070    0.1710   -0.3480 hc        1 AEE      0.039367
     41 HAA2        4.8140   -0.4530    1.1590 hc        1 AEE      0.039367
     42 HAA3        4.7460    1.3150    0.7610 hc        1 AEE      0.039367
     43 HAP1        1.9650    2.0730    0.4830 h1        1 AEE      0.037200
     44 HAP2        2.8230    1.2420    1.8610 h1        1 AEE      0.037200
     45 HAR1        0.8110    0.3300    2.7680 h1        1 AEE      0.039200
     46 HAR2        0.4590    2.0700    2.3490 h1        1 AEE      0.039200
     47 HAS1       -1.6210   -0.2280    2.6520 h1        1 AEE      0.041200
     48 HAS2       -2.5170    0.2360    1.1350 h1        1 AEE      0.041200
     49 HAI        -1.9160    3.0350    0.6870 ha        1 AEE      0.143000
     50 HAK        -2.7430    5.1260    1.7250 ha        1 AEE      0.135500
     51 HAJ        -2.5090    0.9340    4.4220 ha        1 AEE      0.143000
     52 HAL        -3.3680    3.0220    5.4620 ha        1 AEE      0.135500
     53 HAW        -4.5130    6.4160    2.6380 hn        1 AEE      0.312700
     54 HAM        -3.0390    5.1870    6.4390 ha        1 AEE      0.155000
     55 H2         -5.9720   10.3400    5.2240 h5        1 AEE      0.049100
     56 HAV        -3.3380    6.8420    8.2170 hn        1 AEE      0.424800
     57 HBE        -4.9940    9.0540    9.2750 h1        1 AEE      0.088700
     58 HAB1       -1.8810    9.0920    9.2260 hc        1 AEE      0.047033
     59 HAB2       -2.9740   10.2310   10.1170 hc        1 AEE      0.047033
     60 HAB3       -2.9980   10.1870    8.3040 hc        1 AEE      0.047033
     61 HAG        -5.8430    8.3840   11.2860 ha        1 AEE      0.133000
     62 HAD        -5.6590    7.1800   13.4570 ha        1 AEE      0.133000
     63 HAC        -3.6110    5.8550   13.9870 ha        1 AEE      0.133000
     64 HAE        -1.7400    5.7440   12.3380 ha        1 AEE      0.133000
     65 HAH        -1.9090    6.9620   10.1750 ha        1 AEE      0.133000
@<TRIPOS>BOND
     1    1    2 1   
     2    1    8 1   
     3    1   34 1   
     4    1   35 1   
     5    2    3 1   
     6    2   36 1   
     7    2   37 1   
     8    3    4 1   
     9    3    6 1   
    10    4    5 1   
    11    4   38 1   
    12    4   39 1   
    13    5   40 1   
    14    5   41 1   
    15    5   42 1   
    16    6    7 1   
    17    6   43 1   
    18    6   44 1   
    19    7    8 1   
    20    7   45 1   
    21    7   46 1   
    22    8    9 1   
    23    9   10 1   
    24    9   47 1   
    25    9   48 1   
    26   10   11 ar  
    27   10   13 ar  
    28   11   12 ar  
    29   11   49 1   
    30   12   15 ar  
    31   12   50 1   
    32   13   14 ar  
    33   13   51 1   
    34   14   15 ar  
    35   14   52 1   
    36   15   16 1   
    37   16   17 1   
    38   16   18 2   
    39   17   20 1   
    40   17   53 1   
    41   18   19 1   
    42   18   54 1   
    43   19   20 ar  
    44   19   24 ar  
    45   20   21 ar  
    46   21   22 ar  
    47   22   23 ar  
    48   22   55 1   
    49   23   24 ar  
    50   24   25 1   
    51   25   26 1   
    52   25   56 1   
    53   26   27 1   
    54   26   28 1   
    55   26   57 1   
    56   27   58 1   
    57   27   59 1   
    58   27   60 1   
    59   28   29 ar  
    60   28   33 ar  
    61   29   30 ar  
    62   29   61 1   
    63   30   31 ar  
    64   30   62 1   
    65   31   32 ar  
    66   31   63 1   
    67   32   33 ar  
    68   32   64 1   
    69   33   65 1   
@<TRIPOS>SUBSTRUCTURE
     1 AEE         1 TEMP              0 ****  ****    0 ROOT
