@<TRIPOS>MOLECULE
AEF
   22    22     1     0     0
SMALL
bcc


@<TRIPOS>ATOM
      1 C4         -0.0290   -0.1000    0.0150 c3        1 AEF     -0.037100
      2 C5         -1.1280   -1.1490    3.4790 ca        1 AEF     -0.179500
      3 C6         -1.0640    1.2920    3.3740 ca        1 AEF     -0.179500
      4 C7          1.4910    0.0640   -0.0460 c3        1 AEF      0.095800
      5 C8         -1.3060    0.1020    4.0900 ca        1 AEF      0.166100
      6 O10        -1.7140    0.2500    5.3870 oh        1 AEF     -0.475100
      7 C3         -0.6440    1.2120    2.0550 ca        1 AEF     -0.073500
      8 C2         -0.7050   -1.2080    2.1550 ca        1 AEF     -0.073500
      9 C1         -0.4560   -0.0340    1.4370 ca        1 AEF     -0.182300
     10 N9          2.0180    0.0420   -1.4440 n4        1 AEF     -0.839600
     11 H4         -0.3320   -1.0830   -0.4360 hc        1 AEF      0.069700
     12 H4A        -0.5300    0.7180   -0.5710 hc        1 AEF      0.069700
     13 H5         -1.3270   -2.0740    4.0400 ha        1 AEF      0.162500
     14 H6         -1.2190    2.2620    3.8700 ha        1 AEF      0.162500
     15 H7          1.7880    1.0480    0.4200 hx        1 AEF      0.116200
     16 H7A         1.9900   -0.7730    0.5230 hx        1 AEF      0.116200
     17 HO10       -1.8770   -0.6300    5.7640 ho        1 AEF      0.436000
     18 H3         -0.4700    2.1390    1.4870 ha        1 AEF      0.133500
     19 H2         -0.5780   -2.1900    1.6730 ha        1 AEF      0.133500
     20 HN9         3.0360    0.1560   -1.4400 hn        1 AEF      0.459800
     21 HN9A        1.7830   -0.8480   -1.8950 hn        1 AEF      0.459800
     22 H93         1.5990    0.8030   -1.9900 hn        1 AEF      0.459800
@<TRIPOS>BOND
     1    1    4 1   
     2    1    9 1   
     3    1   11 1   
     4    1   12 1   
     5    2    5 ar  
     6    2    8 ar  
     7    2   13 1   
     8    3    5 ar  
     9    3    7 ar  
    10    3   14 1   
    11    4   10 1   
    12    4   15 1   
    13    4   16 1   
    14    5    6 1   
    15    6   17 1   
    16    7    9 ar  
    17    7   18 1   
    18    8    9 ar  
    19    8   19 1   
    20   10   20 1   
    21   10   21 1   
    22   10   22 1   
@<TRIPOS>SUBSTRUCTURE
     1 AEF         1 TEMP              0 ****  ****    0 ROOT
