@<TRIPOS>MOLECULE
AEF
   21    18     1     0     0
SMALL
bcc


@<TRIPOS>ATOM
      1 C4          0.8990   -0.0600   -1.2920 c3        1 AEF     -0.109300
      2 C5         -0.5710   -1.2280    1.9770 c1        1 AEF     -0.066500
      3 C6         -0.4890    1.1570    2.0420 c1        1 AEF     -0.153500
      4 C7         -0.1070    0.0700   -2.3790 c3        1 AEF      0.153800
      5 C8         -0.7720   -0.0410    2.6560 c1        1 AEF      0.105600
      6 O10        -1.4040   -0.0540    3.9310 oh        1 AEF     -0.481600
      7 C3         -0.0010    1.1720    0.7410 c1        1 AEF     -0.030500
      8 C2         -0.0900   -1.2130    0.6920 c1        1 AEF     -0.066500
      9 C1          0.1970   -0.0050    0.0710 c1        1 AEF     -0.077100
     10 N9          0.5600   -0.0080   -3.6560 n3        1 AEF     -0.905800
     11 H4          1.3660   -0.9120   -1.3830 hc        1 AEF      0.044700
     12 H4A         1.5550    0.6860   -1.3570 hc        1 AEF      0.044700
     13 H5         -0.7750   -2.0890    2.4190 ha        1 AEF      0.085500
     14 H6         -0.6350    2.0210    2.5350 ha        1 AEF      0.075500
     15 H7         -0.7680   -0.6600   -2.3100 h1        1 AEF      0.055700
     16 H7A        -0.5490    0.9050   -2.3010 h1        1 AEF      0.055700
     17 HO10       -0.7980    0.0950    4.5630 ho        1 AEF      0.419000
     18 H3          0.1970    2.0090    0.3120 ha        1 AEF      0.075500
     19 H2          0.0500   -2.0440    0.2200 ha        1 AEF      0.085500
     20 HN9         1.2260   -0.6170   -3.6100 hn        1 AEF      0.344800
     21 HN9A        0.9100    0.8140   -3.8700 hn        1 AEF      0.344800
@<TRIPOS>BOND
     1    1    4 1   
     2    1    9 1   
     3    1   11 1   
     4    1   12 1   
     5    2    8 3   
     6    2   13 1   
     7    3    5 3   
     8    3   14 1   
     9    4   10 1   
    10    4   15 1   
    11    4   16 1   
    12    5    6 1   
    13    6   17 1   
    14    7    9 3   
    15    7   18 1   
    16    8   19 1   
    17   10   20 1   
    18   10   21 1   
@<TRIPOS>SUBSTRUCTURE
     1 AEF         1 TEMP              0 ****  ****    0 ROOT
