@<TRIPOS>MOLECULE
AEF
   22    22     1     0     0
SMALL
bcc


@<TRIPOS>ATOM
      1 C4         -0.0210    0.0910    0.0140 c3        1 AEF     -0.037100
      2 C5         -1.0930   -1.2680    3.3750 ca        1 AEF     -0.179500
      3 C6         -1.1190    1.1750    3.4680 ca        1 AEF     -0.179500
      4 C7          1.4970   -0.0900   -0.0390 c3        1 AEF      0.095800
      5 C8         -1.3200   -0.0700    4.0840 ca        1 AEF      0.166100
      6 O10        -1.7360   -0.2050    5.3800 oh        1 AEF     -0.475100
      7 C3         -0.6890    1.2210    2.1460 ca        1 AEF     -0.073500
      8 C2         -0.6660   -1.2000    2.0570 ca        1 AEF     -0.073500
      9 C1         -0.4560    0.0390    1.4340 ca        1 AEF     -0.182300
     10 N9          2.0310   -0.0840   -1.4340 n4        1 AEF     -0.839600
     11 H4         -0.5300   -0.7230   -0.5700 hc        1 AEF      0.069700
     12 H4A        -0.3100    1.0750   -0.4440 hc        1 AEF      0.069700
     13 H5         -1.2660   -2.2330    3.8750 ha        1 AEF      0.162500
     14 H6         -1.3070    2.1060    4.0240 ha        1 AEF      0.162500
     15 H7          2.0040    0.7440    0.5280 hx        1 AEF      0.116200
     16 H7A         1.7800   -1.0750    0.4340 hx        1 AEF      0.116200
     17 HO10       -1.8870    0.6790    5.7520 ho        1 AEF      0.436000
     18 H3         -0.5440    2.1980    1.6600 ha        1 AEF      0.133500
     19 H2         -0.5040   -2.1330    1.4950 ha        1 AEF      0.133500
     20 HN9         1.8080    0.8060   -1.8920 hn        1 AEF      0.459800
     21 HN9A        1.6050   -0.8420   -1.9770 hn        1 AEF      0.459800
     22 H93         3.0470   -0.2100   -1.4240 hn        1 AEF      0.459800
@<TRIPOS>BOND
     1    1    4 1   
     2    1    9 1   
     3    1   11 1   
     4    1   12 1   
     5    2    5 ar  
     6    2    8 ar  
     7    2   13 1   
     8    3    5 ar  
     9    3    7 ar  
    10    3   14 1   
    11    4   10 1   
    12    4   15 1   
    13    4   16 1   
    14    5    6 1   
    15    6   17 1   
    16    7    9 ar  
    17    7   18 1   
    18    8    9 ar  
    19    8   19 1   
    20   10   20 1   
    21   10   21 1   
    22   10   22 1   
@<TRIPOS>SUBSTRUCTURE
     1 AEF         1 TEMP              0 ****  ****    0 ROOT
