@<TRIPOS>MOLECULE
AEF
   21    21     1     0     0
SMALL
bcc


@<TRIPOS>ATOM
      1 C4         -1.9010   -0.0960   -0.7030 c3        1 AEF     -0.035100
      2 C5          1.5660    1.1160    0.2120 ca        1 AEF     -0.183500
      3 C6          1.6350   -1.3060   -0.0740 ca        1 AEF     -0.183500
      4 C7         -2.7380    0.0860    0.5680 c3        1 AEF      0.159800
      5 C8          2.2780   -0.0920    0.2170 ca        1 AEF      0.121100
      6 O10         3.6230   -0.1620    0.5010 oh        1 AEF     -0.498100
      7 C3          0.2760   -1.2970   -0.3680 ca        1 AEF     -0.091000
      8 C2          0.2060    1.1030   -0.0850 ca        1 AEF     -0.091000
      9 C1         -0.4500   -0.0990   -0.3760 ca        1 AEF     -0.115300
     10 N9         -4.1530    0.1890    0.3050 n3        1 AEF     -0.917800
     11 H4         -2.1850   -1.0570   -1.2080 hc        1 AEF      0.053700
     12 H4A        -2.1230    0.7380   -1.4220 hc        1 AEF      0.053700
     13 H5          2.0770    2.0620    0.4400 ha        1 AEF      0.141500
     14 H6          2.2110   -2.2420   -0.0670 ha        1 AEF      0.141500
     15 H7         -2.4870   -0.7620    1.2730 h1        1 AEF      0.028700
     16 H7A        -2.4180    1.0420    1.0750 h1        1 AEF      0.028700
     17 HO10        3.9370    0.7370    0.6760 ho        1 AEF      0.419000
     18 H3         -0.2340   -2.2450   -0.5990 ha        1 AEF      0.135000
     19 H2         -0.3590    2.0470   -0.0930 ha        1 AEF      0.135000
     20 HN9        -4.4750   -0.5790   -0.2480 hn        1 AEF      0.348800
     21 HN9A       -4.6650    0.2120    1.1650 hn        1 AEF      0.348800
@<TRIPOS>BOND
     1    1    4 1   
     2    1    9 1   
     3    1   11 1   
     4    1   12 1   
     5    2    5 ar  
     6    2    8 ar  
     7    2   13 1   
     8    3    5 ar  
     9    3    7 ar  
    10    3   14 1   
    11    4   10 1   
    12    4   15 1   
    13    4   16 1   
    14    5    6 1   
    15    6   17 1   
    16    7    9 ar  
    17    7   18 1   
    18    8    9 ar  
    19    8   19 1   
    20   10   20 1   
    21   10   21 1   
@<TRIPOS>SUBSTRUCTURE
     1 AEF         1 TEMP              0 ****  ****    0 ROOT
