@<TRIPOS>MOLECULE
AEF
   22    22     1     0     0
SMALL
bcc


@<TRIPOS>ATOM
      1 C4         -0.0160    0.1010    0.0150 c3        1 AEF     -0.037100
      2 C5         -1.1110   -1.2680    3.3640 ca        1 AEF     -0.179500
      3 C6         -1.1140    1.1750    3.4720 ca        1 AEF     -0.179500
      4 C7          1.5000   -0.0980   -0.0350 c3        1 AEF      0.095800
      5 C8         -1.3280   -0.0730    4.0800 ca        1 AEF      0.166100
      6 O10        -1.7490   -0.2110    5.3740 oh        1 AEF     -0.475100
      7 C3         -0.6800    1.2240    2.1510 ca        1 AEF     -0.073500
      8 C2         -0.6790   -1.1960    2.0480 ca        1 AEF     -0.073500
      9 C1         -0.4550    0.0450    1.4330 ca        1 AEF     -0.182300
     10 N9          2.0380   -0.0880   -1.4290 nz        1 AEF     -0.839600
     11 H4         -0.5320   -0.7030   -0.5760 hc        1 AEF      0.069700
     12 H4A        -0.2920    1.0920   -0.4370 hc        1 AEF      0.069700
     13 H5         -1.2940   -2.2340    3.8580 ha        1 AEF      0.162500
     14 H6         -1.2940    2.1040    4.0330 ha        1 AEF      0.162500
     15 H7          2.0150    0.7270    0.5380 hx        1 AEF      0.116200
     16 H7A         1.7700   -1.0890    0.4320 hx        1 AEF      0.116200
     17 HO10       -1.8930    0.6710    5.7500 ho        1 AEF      0.436000
     18 H3         -0.5240    2.2030    1.6720 ha        1 AEF      0.133500
     19 H2         -0.5230   -2.1270    1.4800 ha        1 AEF      0.133500
     20 HN9         3.0530   -0.2250   -1.4170 hn        1 AEF      0.459800
     21 HN9A        1.6050   -0.8380   -1.9780 hn        1 AEF      0.459800
     22 H93         1.8270    0.8080   -1.8810 hn        1 AEF      0.459800
@<TRIPOS>BOND
     1    1    4 1   
     2    1    9 1   
     3    1   11 1   
     4    1   12 1   
     5    2    5 ar  
     6    2    8 ar  
     7    2   13 1   
     8    3    5 ar  
     9    3    7 ar  
    10    3   14 1   
    11    4   10 1   
    12    4   15 1   
    13    4   16 1   
    14    5    6 1   
    15    6   17 1   
    16    7    9 ar  
    17    7   18 1   
    18    8    9 ar  
    19    8   19 1   
    20   10   20 1   
    21   10   21 1   
    22   10   22 1   
@<TRIPOS>SUBSTRUCTURE
     1 AEF         1 TEMP              0 ****  ****    0 ROOT
