@<TRIPOS>MOLECULE
AEG
   25    25     1     0     0
SMALL
bcc


@<TRIPOS>ATOM
      1 C4         -0.0010   -0.0470   -0.0400 c3        1 AEG     -0.048100
      2 C5         -1.0000   -3.6580    0.4890 ca        1 AEG     -0.177500
      3 C6         -1.2310   -2.4560    2.6050 ca        1 AEG     -0.177500
      4 C7          1.5300    0.0730   -0.0730 c3        1 AEG      0.127500
      5 C8         -1.3340   -3.6450    1.8530 ca        1 AEG      0.165100
      6 O11        -1.7630   -4.7510    2.5310 oh        1 AEG     -0.473100
      7 C3         -0.7910   -1.2990    1.9800 ca        1 AEG     -0.092500
      8 C2         -0.5620   -2.4860   -0.1180 ca        1 AEG     -0.092500
      9 C1         -0.4420   -1.3030    0.6200 ca        1 AEG     -0.209300
     10 N10         2.1040   -0.1260    1.3080 n4        1 AEG     -0.844600
     11 C9          1.9540    1.4090   -0.6570 c3        1 AEG     -0.137100
     12 H4         -0.4440    0.8480    0.4750 hc        1 AEG      0.091200
     13 H4A        -0.3530   -0.0220   -1.1080 hc        1 AEG      0.091200
     14 H7          1.9490   -0.7710   -0.7020 hx        1 AEG      0.109700
     15 HO11       -1.8630   -5.4840    1.9020 ho        1 AEG      0.440000
     16 H3         -0.7580   -0.3590    2.5530 ha        1 AEG      0.137500
     17 H2         -0.3210   -2.4910   -1.1930 ha        1 AEG      0.137500
     18 HN10        1.8700    0.6760    1.9000 hn        1 AEG      0.459467
     19 HN1A        3.1200   -0.2190    1.2570 hn        1 AEG      0.459467
     20 H9          3.0660    1.5020   -0.7120 hc        1 AEG      0.080700
     21 H9A         1.5430    2.2660   -0.0680 hc        1 AEG      0.080700
     22 H9B         1.5490    1.4790   -1.6990 hc        1 AEG      0.080700
     23 H5         -1.1010   -4.5840   -0.0980 ha        1 AEG      0.166000
     24 H103        1.6920   -0.9740    1.7220 hn        1 AEG      0.459467
     25 H6         -1.5200   -2.4630    3.6670 ha        1 AEG      0.166000
@<TRIPOS>BOND
     1    1    4 1   
     2    1    9 1   
     3    1   12 1   
     4    1   13 1   
     5    2    5 ar  
     6    2    8 ar  
     7    2   23 1   
     8    3    5 ar  
     9    3    7 ar  
    10    3   25 1   
    11    4   10 1   
    12    4   11 1   
    13    4   14 1   
    14    5    6 1   
    15    6   15 1   
    16    7    9 ar  
    17    7   16 1   
    18    8    9 ar  
    19    8   17 1   
    20   10   18 1   
    21   10   19 1   
    22   10   24 1   
    23   11   20 1   
    24   11   21 1   
    25   11   22 1   
@<TRIPOS>SUBSTRUCTURE
     1 AEG         1 TEMP              0 ****  ****    0 ROOT
