@<TRIPOS>MOLECULE
AEG
   24    24     1     0     0
SMALL
bcc


@<TRIPOS>ATOM
      1 C4         -1.6210    0.4090   -0.7840 c3        1 AEG     -0.033100
      2 C5          1.8630    1.2460    0.4460 ca        1 AEG     -0.184500
      3 C6          1.8390   -1.0650   -0.3360 ca        1 AEG     -0.184500
      4 C7         -2.5410    0.0700    0.4040 c3        1 AEG      0.173500
      5 C8          2.5220    0.0270    0.2150 ca        1 AEG      0.121100
      6 O11         3.8540   -0.0250    0.5590 oh        1 AEG     -0.498100
      7 C3          0.4900   -0.9330   -0.6560 ca        1 AEG     -0.093000
      8 C2          0.5160    1.3560    0.1180 ca        1 AEG     -0.093000
      9 C1         -0.1820    0.2730   -0.4330 ca        1 AEG     -0.120300
     10 N10        -2.4110   -1.3210    0.8070 n3        1 AEG     -0.915800
     11 C9         -3.9800    0.4150    0.0210 c3        1 AEG     -0.092100
     12 H4         -1.8700   -0.2580   -1.6520 hc        1 AEG      0.056200
     13 H4A        -1.8370    1.4650   -1.0960 hc        1 AEG      0.056200
     14 H6          2.3630   -2.0150   -0.5150 ha        1 AEG      0.142000
     15 H7         -2.2450    0.7670    1.2520 h1        1 AEG      0.008700
     16 HO11        4.1840   -0.9080    0.3370 ho        1 AEG      0.419000
     17 H3         -0.0530   -1.7870   -1.0910 ha        1 AEG      0.138000
     18 H2         -0.0070    2.3080    0.2940 ha        1 AEG      0.138000
     19 HN10       -1.4500   -1.5410    0.9810 hn        1 AEG      0.351800
     20 HN1A       -2.9480   -1.4900    1.6350 hn        1 AEG      0.351800
     21 H9         -4.6750    0.2160    0.8720 hc        1 AEG      0.039033
     22 H9A        -4.0420    1.4980   -0.2430 hc        1 AEG      0.039033
     23 H9B        -4.3120   -0.1880   -0.8570 hc        1 AEG      0.039033
     24 H5          2.4180    2.0900    0.8770 ha        1 AEG      0.142000
@<TRIPOS>BOND
     1    1    4 1   
     2    1    9 1   
     3    1   12 1   
     4    1   13 1   
     5    2    5 ar  
     6    2    8 ar  
     7    2   24 1   
     8    3    5 ar  
     9    3    7 ar  
    10    3   14 1   
    11    4   10 1   
    12    4   11 1   
    13    4   15 1   
    14    5    6 1   
    15    6   16 1   
    16    7    9 ar  
    17    7   17 1   
    18    8    9 ar  
    19    8   18 1   
    20   10   19 1   
    21   10   20 1   
    22   11   21 1   
    23   11   22 1   
    24   11   23 1   
@<TRIPOS>SUBSTRUCTURE
     1 AEG         1 TEMP              0 ****  ****    0 ROOT
