@<TRIPOS>MOLECULE
AEG
   25    25     1     0     0
SMALL
bcc


@<TRIPOS>ATOM
      1 C4         -0.0010   -0.0440   -0.0360 c3        1 AEG     -0.048100
      2 C5         -1.0010   -3.6570    0.4800 ca        1 AEG     -0.177500
      3 C6         -1.2300   -2.4630    2.6010 ca        1 AEG     -0.177500
      4 C7          1.5300    0.0760   -0.0690 c3        1 AEG      0.127500
      5 C8         -1.3340   -3.6490    1.8440 ca        1 AEG      0.165100
      6 O11        -1.7620   -4.7580    2.5180 oh        1 AEG     -0.473100
      7 C3         -0.7900   -1.3030    1.9800 ca        1 AEG     -0.092500
      8 C2         -0.5630   -2.4830   -0.1230 ca        1 AEG     -0.092500
      9 C1         -0.4410   -1.3020    0.6190 ca        1 AEG     -0.209300
     10 N10         2.1040   -0.1280    1.3120 nz        1 AEG     -0.844600
     11 C9          1.9540    1.4150   -0.6480 c3        1 AEG     -0.137100
     12 H4         -0.3530   -0.0160   -1.1040 hc        1 AEG      0.091200
     13 H4A        -0.4440    0.8490    0.4820 hc        1 AEG      0.091200
     14 H7          1.9490   -0.7660   -0.7010 hx        1 AEG      0.109700
     15 HO11       -1.8630   -5.4880    1.8870 ho        1 AEG      0.440000
     16 H3         -0.7560   -0.3660    2.5560 ha        1 AEG      0.137500
     17 H2         -0.3220   -2.4840   -1.1980 ha        1 AEG      0.137500
     18 HN10        1.6930   -0.9790    1.7220 hn        1 AEG      0.459467
     19 HN1A        3.1210   -0.2200    1.2600 hn        1 AEG      0.459467
     20 H9          1.5490    1.4890   -1.6900 hc        1 AEG      0.080700
     21 H9A         3.0660    1.5070   -0.7020 hc        1 AEG      0.080700
     22 H9B         1.5430    2.2690   -0.0560 hc        1 AEG      0.080700
     23 H5         -1.1030   -4.5810   -0.1100 ha        1 AEG      0.166000
     24 H103        1.8700    0.6710    1.9060 hn        1 AEG      0.459467
     25 H6         -1.5180   -2.4740    3.6630 ha        1 AEG      0.166000
@<TRIPOS>BOND
     1    1    4 1   
     2    1    9 1   
     3    1   12 1   
     4    1   13 1   
     5    2    5 ar  
     6    2    8 ar  
     7    2   23 1   
     8    3    5 ar  
     9    3    7 ar  
    10    3   25 1   
    11    4   10 1   
    12    4   11 1   
    13    4   14 1   
    14    5    6 1   
    15    6   15 1   
    16    7    9 ar  
    17    7   16 1   
    18    8    9 ar  
    19    8   17 1   
    20   10   18 1   
    21   10   19 1   
    22   10   24 1   
    23   11   20 1   
    24   11   21 1   
    25   11   22 1   
@<TRIPOS>SUBSTRUCTURE
     1 AEG         1 TEMP              0 ****  ****    0 ROOT
