@<TRIPOS>MOLECULE
AEG
   24    21     1     0     0
SMALL
bcc


@<TRIPOS>ATOM
      1 C4          0.1040    1.2310   -0.0170 c3        1 AEG     -0.109300
      2 C5         -1.6080   -1.7250    1.4740 c1        1 AEG     -0.071000
      3 C6         -1.4100   -2.1300   -0.8840 c1        1 AEG     -0.151500
      4 C7          1.5900    1.2540   -0.2890 c3        1 AEG      0.166500
      5 C8         -1.8900   -2.5030    0.3620 c1        1 AEG      0.105600
      6 O11        -2.6420   -3.6840    0.5010 oh        1 AEG     -0.480600
      7 C3         -0.6480   -0.9800   -1.0180 c1        1 AEG     -0.028500
      8 C2         -0.8460   -0.5750    1.3400 c1        1 AEG     -0.071000
      9 C1         -0.3660   -0.2030    0.0950 c1        1 AEG     -0.084100
     10 N10         2.2910    1.5130    0.9220 n3        1 AEG     -0.900800
     11 C9          1.9020    2.3400   -1.2940 c3        1 AEG     -0.092100
     12 H4         -0.3690    1.6730   -0.7500 hc        1 AEG      0.051200
     13 H4A        -0.0810    1.7010    0.8210 hc        1 AEG      0.051200
     14 H5         -1.9470   -1.9870    2.3510 ha        1 AEG      0.084000
     15 H6         -1.6080   -2.6780   -1.6670 ha        1 AEG      0.076500
     16 H7          1.8690    0.3890   -0.6480 h1        1 AEG      0.060700
     17 HO11       -3.4650   -3.5500    0.1910 ho        1 AEG      0.419000
     18 H3         -0.3100   -0.7180   -1.8950 ha        1 AEG      0.076500
     19 H2         -0.6480   -0.0270    2.1230 ha        1 AEG      0.084000
     20 HN10        2.3070    0.7530    1.4330 hn        1 AEG      0.347300
     21 HN1A        1.8680    2.1820    1.3820 hn        1 AEG      0.347300
     22 H9          2.8730    2.4480   -1.3670 hc        1 AEG      0.039700
     23 H9A         1.5000    3.1840   -0.9970 hc        1 AEG      0.039700
     24 H9B         1.5340    2.0920   -2.1680 hc        1 AEG      0.039700
@<TRIPOS>BOND
     1    1    4 1   
     2    1    9 1   
     3    1   12 1   
     4    1   13 1   
     5    2    8 3   
     6    2   14 1   
     7    3    5 3   
     8    3   15 1   
     9    4   10 1   
    10    4   11 1   
    11    4   16 1   
    12    5    6 1   
    13    6   17 1   
    14    7    9 3   
    15    7   18 1   
    16    8   19 1   
    17   10   20 1   
    18   10   21 1   
    19   11   22 1   
    20   11   23 1   
    21   11   24 1   
@<TRIPOS>SUBSTRUCTURE
     1 AEG         1 TEMP              0 ****  ****    0 ROOT
