@<TRIPOS>MOLECULE
AEG
   25    25     1     0     0
SMALL
bcc


@<TRIPOS>ATOM
      1 C4         -0.0020   -0.0460   -0.0390 c3        1 AEG     -0.048100
      2 C5         -0.9920   -3.6620    0.4800 ca        1 AEG     -0.177500
      3 C6         -1.2340   -2.4640    2.5970 ca        1 AEG     -0.177500
      4 C7          1.5290    0.0780   -0.0660 c3        1 AEG      0.127500
      5 C8         -1.3300   -3.6520    1.8430 ca        1 AEG      0.165100
      6 O11        -1.7580   -4.7610    2.5170 oh        1 AEG     -0.473100
      7 C3         -0.7950   -1.3040    1.9760 ca        1 AEG     -0.092500
      8 C2         -0.5550   -2.4870   -0.1230 ca        1 AEG     -0.092500
      9 C1         -0.4410   -1.3040    0.6170 ca        1 AEG     -0.209300
     10 N10         2.0990   -0.1210    1.3170 n4        1 AEG     -0.844600
     11 C9          1.9510    1.4170   -0.6470 c3        1 AEG     -0.137100
     12 H4         -0.3500   -0.0210   -1.1080 hc        1 AEG      0.091200
     13 H4A        -0.4490    0.8460    0.4760 hc        1 AEG      0.091200
     14 H7          1.9520   -0.7640   -0.6950 hx        1 AEG      0.109700
     15 HO11       -1.8540   -5.4930    1.8860 ho        1 AEG      0.440000
     16 H3         -0.7670   -0.3650    2.5510 ha        1 AEG      0.137500
     17 H2         -0.3090   -2.4890   -1.1970 ha        1 AEG      0.137500
     18 HN10        1.8610    0.6790    1.9080 hn        1 AEG      0.459467
     19 HN1A        1.6880   -0.9710    1.7280 hn        1 AEG      0.459467
     20 H9          1.5490    1.4870   -1.6900 hc        1 AEG      0.080700
     21 H9A         1.5360    2.2710   -0.0580 hc        1 AEG      0.080700
     22 H9B         3.0630    1.5120   -0.6980 hc        1 AEG      0.080700
     23 H5         -1.0870   -4.5870   -0.1090 ha        1 AEG      0.166000
     24 H103        3.1160   -0.2110    1.2690 hn        1 AEG      0.459467
     25 H6         -1.5260   -2.4740    3.6590 ha        1 AEG      0.166000
@<TRIPOS>BOND
     1    1    4 1   
     2    1    9 1   
     3    1   12 1   
     4    1   13 1   
     5    2    5 ar  
     6    2    8 ar  
     7    2   23 1   
     8    3    5 ar  
     9    3    7 ar  
    10    3   25 1   
    11    4   10 1   
    12    4   11 1   
    13    4   14 1   
    14    5    6 1   
    15    6   15 1   
    16    7    9 ar  
    17    7   16 1   
    18    8    9 ar  
    19    8   17 1   
    20   10   18 1   
    21   10   19 1   
    22   10   24 1   
    23   11   20 1   
    24   11   21 1   
    25   11   22 1   
@<TRIPOS>SUBSTRUCTURE
     1 AEG         1 TEMP              0 ****  ****    0 ROOT
