@<TRIPOS>MOLECULE
AEH
   27    24     1     0     0
SMALL
bcc


@<TRIPOS>ATOM
      1 C4          1.8850   -0.8370   -1.9710 c3        1 AEH     -0.113000
      2 C5         -0.0530    0.3440    0.9970 c1        1 AEH     -0.105000
      3 C6          0.1060   -2.0460    1.1570 c1        1 AEH     -0.209000
      4 C8          1.0920   -0.9580   -3.2530 c3        1 AEH     -0.206000
      5 C10        -0.3940    1.6790    1.6260 c2        1 AEH     -0.121000
      6 N12        -2.1490    3.3020    1.8500 n3        1 AEH     -0.350000
      7 O7          1.1670   -3.3170   -0.6080 oh        1 AEH     -0.251000
      8 C3          0.7190   -2.0890   -0.0860 c1        1 AEH      0.077000
      9 C9         -0.2800   -0.8300    1.6980 c2        1 AEH     -0.092000
     10 C11        -1.8660    1.9700    1.4260 c3        1 AEH     -0.077000
     11 C2          0.5600    0.3020   -0.2460 c1        1 AEH     -0.095000
     12 C1          0.9460   -0.9150   -0.7870 c1        1 AEH     -0.091000
     13 H4          2.5360   -1.5650   -1.9200 hc        1 AEH      0.089000
     14 H4A         2.3550    0.0210   -1.9580 hc        1 AEH      0.089000
     15 H6         -0.0530   -2.8730    1.6510 ha        1 AEH      0.133000
     16 H8          1.5530   -0.4740   -3.9700 hc        1 AEH      0.075667
     17 H8A         1.0090   -1.9040   -3.4980 hc        1 AEH      0.075667
     18 H8B         0.1990   -0.5750   -3.1230 hc        1 AEH      0.075667
     19 H10         0.1370    2.3830    1.2050 ha        1 AEH      0.092500
     20 H10A       -0.1950    1.6480    2.5830 ha        1 AEH      0.092500
     21 HN12       -2.7740    3.2830    2.5190 hn        1 AEH      0.144000
     22 HN1A       -2.4730    3.7850    1.1430 hn        1 AEH      0.144000
     23 HO7         0.4770   -3.8720   -0.6920 ho        1 AEH      0.216000
     24 H9         -0.7120   -0.8000    2.5730 ha        1 AEH      0.136000
     25 H11        -2.0920    1.8740    0.4780 h1        1 AEH      0.068000
     26 H11A       -2.3980    1.3390    1.9540 h1        1 AEH      0.068000
     27 H2          0.6990    1.1260   -0.7500 ha        1 AEH      0.134000
@<TRIPOS>BOND
     1    1    4 1   
     2    1   12 1   
     3    1   13 1   
     4    1   14 1   
     5    2    9 1   
     6    2   11 1   
     7    3    9 1   
     8    3   15 1   
     9    4   16 1   
    10    4   17 1   
    11    4   18 1   
    12    5   10 1   
    13    5   19 1   
    14    5   20 1   
    15    6   10 1   
    16    6   21 1   
    17    6   22 1   
    18    7    8 1   
    19    7   23 1   
    20    8   12 1   
    21    9   24 1   
    22   10   25 1   
    23   10   26 1   
    24   11   27 1   
@<TRIPOS>SUBSTRUCTURE
     1 AEH         1 TEMP              0 ****  ****    0 ROOT
