@<TRIPOS>MOLECULE
AEH
   28    27     1     0     0
SMALL
bcc


@<TRIPOS>ATOM
      1 C4          0.3050    0.0370   -0.1010 c3        1 AEH     -0.054200
      2 C5         -1.5070    0.8560    3.2070 ce        1 AEH     -0.140300
      3 C6         -2.2360   -1.3290    4.4350 c2        1 AEH     -0.189100
      4 C8          1.8120    0.1330   -0.1390 c3        1 AEH     -0.093100
      5 C10        -1.7880    2.1880    3.8330 c3        1 AEH     -0.050200
      6 N12        -0.6380    4.2270    4.7500 nz        1 AEH     -0.839600
      7 C3          0.0840   -1.3740    1.9670 c         1 AEH      0.557100
      8 C9         -1.8530   -0.2470    3.8330 c1        1 AEH     -0.009800
      9 C11        -0.4600    2.8570    4.1810 c3        1 AEH      0.097800
     10 C2         -0.9110    0.8960    1.8820 ce        1 AEH     -0.134000
     11 C1         -0.2140   -0.0910    1.2900 cf        1 AEH     -0.144400
     12 H4         -0.0240   -0.8740   -0.6770 hc        1 AEH      0.069700
     13 H4A        -0.1420    0.9340   -0.6050 hc        1 AEH      0.069700
     14 H6         -3.2470   -1.7490    4.2970 ha        1 AEH      0.163500
     15 H8          2.2750   -0.7640    0.3400 hc        1 AEH      0.042700
     16 H8A         2.1600    0.1860   -1.1990 hc        1 AEH      0.042700
     17 H8B         2.1690    1.0460    0.3960 hc        1 AEH      0.042700
     18 H10        -2.3660    2.8180    3.1030 hc        1 AEH      0.074200
     19 H10A       -2.4150    2.0620    4.7550 hc        1 AEH      0.074200
     20 HN12       -1.1990    4.1810    5.6080 hn        1 AEH      0.461133
     21 HN1A       -1.1250    4.8280    4.0760 hn        1 AEH      0.461133
     22 HO7         0.4070   -1.2770    3.0300 h4        1 AEH     -0.003800
     23 H9         -1.5760   -1.9050    5.1040 ha        1 AEH      0.163500
     24 H11         0.0960    2.2390    4.9440 hx        1 AEH      0.117700
     25 H11A        0.1770    2.9470    3.2520 hx        1 AEH      0.117700
     26 H2         -1.0980    1.8310    1.3230 ha        1 AEH      0.127000
     27 H123        0.2740    4.6390    4.9680 hn        1 AEH      0.461133
     28 O7         -0.0070   -2.4690    1.4170 o         1 AEH     -0.483100
@<TRIPOS>BOND
     1    1    4 1   
     2    1   11 1   
     3    1   12 1   
     4    1   13 1   
     5    2    5 1   
     6    2    8 2   
     7    2   10 1   
     8    3    8 2   
     9    3   14 1   
    10    3   23 1   
    11    4   15 1   
    12    4   16 1   
    13    4   17 1   
    14    5    9 1   
    15    5   18 1   
    16    5   19 1   
    17    6    9 1   
    18    6   20 1   
    19    6   21 1   
    20    6   27 1   
    21    7   11 1   
    22    7   22 1   
    23    7   28 2   
    24    9   24 1   
    25    9   25 1   
    26   10   11 2   
    27   10   26 1   
@<TRIPOS>SUBSTRUCTURE
     1 AEH         1 TEMP              0 ****  ****    0 ROOT
