@<TRIPOS>MOLECULE
AEH
   28    27     1     0     0
SMALL
bcc


@<TRIPOS>ATOM
      1 C4          0.4340   -0.0380   -0.0340 c3        1 AEH     -0.054200
      2 C5         -1.5420    0.8930    3.1480 ce        1 AEH     -0.140300
      3 C6         -2.3980   -1.2470    4.3730 c2        1 AEH     -0.189100
      4 C8          1.9420    0.0250    0.0130 c3        1 AEH     -0.093100
      5 C10        -1.8220    2.2450    3.7310 c3        1 AEH     -0.050200
      6 N12        -0.6720    4.2720    4.6740 n4        1 AEH     -0.839600
      7 C3          0.0610   -1.3990    2.0460 c         1 AEH      0.557100
      8 C9         -1.9520   -0.1880    3.7740 c1        1 AEH     -0.009800
      9 C11        -0.4990    2.8870    4.1420 c3        1 AEH      0.097800
     10 C2         -0.8710    0.8910    1.8590 ce        1 AEH     -0.134000
     11 C1         -0.1670   -0.1250    1.3270 cf        1 AEH     -0.144400
     12 H4          0.1170   -0.9540   -0.6090 hc        1 AEH      0.069700
     13 H4A         0.0360    0.8570   -0.5820 hc        1 AEH      0.069700
     14 H6         -3.4100   -1.6430    4.1850 ha        1 AEH      0.163500
     15 H8          2.3570   -0.8710    0.5360 hc        1 AEH      0.042700
     16 H8A         2.3510    0.0470   -1.0260 hc        1 AEH      0.042700
     17 H8B         2.2880    0.9410    0.5480 hc        1 AEH      0.042700
     18 H10        -2.3420    2.8740    2.9580 hc        1 AEH      0.074200
     19 H10A       -2.5030    2.1540    4.6190 hc        1 AEH      0.074200
     20 HN12       -1.2810    4.2580    5.4990 hn        1 AEH      0.461133
     21 HN1A       -1.1040    4.8710    3.9620 hn        1 AEH      0.461133
     22 HO7         0.3230   -1.2880    3.1240 h4        1 AEH     -0.003800
     23 H9         -1.7920   -1.8260    5.0900 ha        1 AEH      0.163500
     24 H11        -0.0040    2.2700    4.9470 hx        1 AEH      0.117700
     25 H11A        0.1920    2.9420    3.2490 hx        1 AEH      0.117700
     26 H2         -1.0030    1.8190    1.2710 ha        1 AEH      0.127000
     27 H123        0.2370    4.6650    4.9350 hn        1 AEH      0.461133
     28 O7         -0.0240   -2.5030    1.5120 o         1 AEH     -0.483100
@<TRIPOS>BOND
     1    1    4 1   
     2    1   11 1   
     3    1   12 1   
     4    1   13 1   
     5    2    5 1   
     6    2    8 2   
     7    2   10 1   
     8    3    8 2   
     9    3   14 1   
    10    3   23 1   
    11    4   15 1   
    12    4   16 1   
    13    4   17 1   
    14    5    9 1   
    15    5   18 1   
    16    5   19 1   
    17    6    9 1   
    18    6   20 1   
    19    6   21 1   
    20    6   27 1   
    21    7   11 1   
    22    7   22 1   
    23    7   28 2   
    24    9   24 1   
    25    9   25 1   
    26   10   11 2   
    27   10   26 1   
@<TRIPOS>SUBSTRUCTURE
     1 AEH         1 TEMP              0 ****  ****    0 ROOT
