@<TRIPOS>MOLECULE
AEH
   28    26     1     0     0
SMALL
bcc


@<TRIPOS>ATOM
      1 C4          0.3640   -0.5740    0.8450 c3        1 AEH     -0.112000
      2 C5         -1.1140    1.7140    3.4060 c2        1 AEH     -0.275000
      3 C6         -0.1890    0.0920    5.2110 c1        1 AEH     -0.247000
      4 C8          1.7950   -0.2520    0.4880 c3        1 AEH     -0.226000
      5 C10        -1.8940    2.8810    3.8770 c3        1 AEH     -0.069000
      6 N12        -1.6630    4.8660    5.4180 n4        1 AEH     -0.068000
      7 C3         -0.8610   -4.4700    0.1730 c2        1 AEH      0.162000
      8 C9         -0.6180    0.8420    4.3770 c1        1 AEH     -0.120000
      9 C11        -0.9430    3.8170    4.6320 c3        1 AEH     -0.149000
     10 C2         -0.9480    1.4800    2.0540 c2        1 AEH      0.016000
     11 C1         -0.3660    0.4310    1.4770 c1        1 AEH     -0.062000
     12 H4          0.3200   -1.4730    1.5560 hc        1 AEH      0.195500
     13 H4A        -0.2040   -0.9570   -0.0630 hc        1 AEH      0.195500
     14 H6         -0.6990   -5.2760    0.9190 h4        1 AEH      0.083500
     15 H8          2.3710    0.0650    1.3900 hc        1 AEH      0.090000
     16 H8A         1.8390    0.5700   -0.2660 hc        1 AEH      0.090000
     17 H8B         2.2850   -1.1570    0.0530 hc        1 AEH      0.090000
     18 H10        -2.3670    3.4290    3.0210 hc        1 AEH      0.090500
     19 H10A       -2.7150    2.5350    4.5640 hc        1 AEH      0.090500
     20 HN12       -2.2320    5.4450    4.7950 hn        1 AEH      0.249000
     21 HN1A       -0.9940    5.4620    5.9120 hn        1 AEH      0.249000
     22 HO7        -1.3300   -4.7780   -0.7850 h4        1 AEH      0.083500
     23 H9          0.1840   -0.5780    5.9410 ha        1 AEH      0.230000
     24 H11        -0.3210    3.2120    5.3560 hx        1 AEH      0.153500
     25 H11A       -0.2560    4.3400    3.9090 hx        1 AEH      0.153500
     26 H2         -1.3780    2.2070    1.3250 ha        1 AEH      0.184000
     27 H123       -2.2820    4.4200    6.1020 hn        1 AEH      0.249000
     28 O7         -0.5390   -3.3030    0.3950 o         1 AEH     -0.329000
@<TRIPOS>BOND
     1    1    4 1   
     2    1   11 1   
     3    1   12 1   
     4    1   13 1   
     5    2    5 1   
     6    2    8 1   
     7    2   10 1   
     8    3    8 1   
     9    3   23 1   
    10    4   15 1   
    11    4   16 1   
    12    4   17 1   
    13    5    9 1   
    14    5   18 1   
    15    5   19 1   
    16    6    9 1   
    17    6   20 1   
    18    6   21 1   
    19    6   27 1   
    20    7   14 1   
    21    7   22 1   
    22    7   28 1   
    23    9   24 1   
    24    9   25 1   
    25   10   11 1   
    26   10   26 1   
@<TRIPOS>SUBSTRUCTURE
     1 AEH         1 TEMP              0 ****  ****    0 ROOT
