@<TRIPOS>MOLECULE
AEH
   27    27     1     0     0
SMALL
bcc


@<TRIPOS>ATOM
      1 C4          2.2290   -1.4540    0.5610 c3        1 AEH     -0.038100
      2 C5         -1.0210    0.4970    0.4170 ca        1 AEH     -0.114300
      3 C6          0.7820    2.0060   -0.1680 ca        1 AEH     -0.156000
      4 C8          2.7150   -2.0280   -0.7490 c3        1 AEH     -0.096100
      5 C10        -2.4680    0.2460    0.6540 c3        1 AEH     -0.035100
      6 N12        -4.4660   -0.8670   -0.3140 n3        1 AEH     -0.917800
      7 C3          1.7020    0.9560   -0.0080 ca        1 AEH      0.128100
      8 C9         -0.5700    1.7690    0.0440 ca        1 AEH     -0.096000
      9 C11        -3.0820   -0.5140   -0.5260 c3        1 AEH      0.159800
     10 C2         -0.0950   -0.5380    0.5760 ca        1 AEH     -0.087000
     11 C1          1.2720   -0.3310    0.3690 ca        1 AEH     -0.156300
     12 H4          1.7360   -2.2690    1.1580 hc        1 AEH      0.048200
     13 H4A         3.1070   -1.1020    1.1700 hc        1 AEH      0.048200
     14 H6          1.1480    3.0010   -0.4590 ha        1 AEH      0.149000
     15 H8          3.4590   -2.8400   -0.5590 hc        1 AEH      0.038367
     16 H8A         1.8630   -2.4570   -1.3290 hc        1 AEH      0.038367
     17 H8B         3.2000   -1.2400   -1.3750 hc        1 AEH      0.038367
     18 H10        -2.5960   -0.3520    1.5960 hc        1 AEH      0.053200
     19 H10A       -3.0080    1.2190    0.8000 hc        1 AEH      0.053200
     20 HN12       -5.0070   -0.0660   -0.0580 hn        1 AEH      0.348800
     21 HN1A       -4.8510   -1.2720   -1.1440 hn        1 AEH      0.348800
     22 HO7         3.5600    0.4940   -0.1140 ho        1 AEH      0.422000
     23 H9         -1.2910    2.5920   -0.0800 ha        1 AEH      0.133000
     24 H11        -2.9300    0.1090   -1.4570 h1        1 AEH      0.028700
     25 H11A       -2.5080   -1.4740   -0.6730 h1        1 AEH      0.028700
     26 H2         -0.4510   -1.5380    0.8730 ha        1 AEH      0.135000
     27 O7          3.0180    1.2860   -0.2400 oh        1 AEH     -0.501100
@<TRIPOS>BOND
     1    1    4 1   
     2    1   11 1   
     3    1   12 1   
     4    1   13 1   
     5    2    5 1   
     6    2    8 ar  
     7    2   10 ar  
     8    3    7 ar  
     9    3    8 ar  
    10    3   14 1   
    11    4   15 1   
    12    4   16 1   
    13    4   17 1   
    14    5    9 1   
    15    5   18 1   
    16    5   19 1   
    17    6    9 1   
    18    6   20 1   
    19    6   21 1   
    20    7   11 ar  
    21    7   27 1   
    22    8   23 1   
    23    9   24 1   
    24    9   25 1   
    25   10   11 ar  
    26   10   26 1   
    27   22   27 1   
@<TRIPOS>SUBSTRUCTURE
     1 AEH         1 TEMP              0 ****  ****    0 ROOT
