@<TRIPOS>MOLECULE
AEI
   30    29     1     0     0
SMALL
bcc


@<TRIPOS>ATOM
      1 N           0.3050   -1.8300    3.0470 n3        1 AEI     -0.905800
      2 CA          0.3840   -0.3880    3.2070 c3        1 AEI      0.031500
      3 C          -0.9670    0.3070    3.5770 c         1 AEI      0.893600
      4 O          -1.9850   -0.4140    3.7880 o         1 AEI     -0.851300
      5 OXT        -0.9600    1.5650    3.7080 o         1 AEI     -0.851300
      6 CB          1.0710    0.3760    2.0490 c3        1 AEI      0.152100
      7 CG2         2.5770    0.4270    2.2700 c3        1 AEI     -0.106100
      8 OG1         0.8300   -0.2810    0.7980 os        1 AEI     -0.468600
      9 CD          0.5600    0.5820   -0.2990 c3        1 AEI      0.331900
     10 OE1         1.7760    1.2540   -0.5460 oh        1 AEI     -0.639800
     11 CE2         0.1210   -0.3090   -1.4620 c3        1 AEI     -0.091400
     12 CZ         -0.0960    0.5000   -2.7420 c3        1 AEI      0.025500
     13 NH1        -1.3230    1.2850   -2.7330 n3        1 AEI     -0.890800
     14 CH2         0.0540   -0.4480   -3.9750 c         1 AEI      0.887600
     15 OT1        -0.8750   -0.4730   -4.8360 o         1 AEI     -0.855300
     16 OT2         1.1190   -1.1220   -4.0770 o         1 AEI     -0.855300
     17 H           0.3140   -2.0620    2.0700 hn        1 AEI      0.343300
     18 H2         -0.5850   -2.1310    3.4140 hn        1 AEI      0.343300
     19 HA          1.0370   -0.2220    4.1190 h1        1 AEI      0.030700
     20 HB          0.6540    1.4230    2.0290 h1        1 AEI      0.080700
     21 HG21        2.9920   -0.6060    2.3350 hc        1 AEI      0.024033
     22 HG22        3.0670    0.9590    1.4190 hc        1 AEI      0.024033
     23 HG23        2.8010    0.9700    3.2180 hc        1 AEI      0.024033
     24 HD         -0.1860    1.3830   -0.0440 h2        1 AEI      0.087700
     25 HE1         2.3900    0.6130   -0.9240 ho        1 AEI      0.400000
     26 HE22        0.9200   -1.0710   -1.6660 hc        1 AEI      0.062200
     27 HE23       -0.8060   -0.8580   -1.1600 hc        1 AEI      0.062200
     28 HZ          0.7510    1.2460   -2.8230 h1        1 AEI      0.051700
     29 HH11       -1.5910    1.4380   -3.6920 hn        1 AEI      0.330300
     30 HH12       -2.0580    0.7420   -2.3150 hn        1 AEI      0.330300
@<TRIPOS>BOND
     1    1    2 1   
     2    1   17 1   
     3    1   18 1   
     4    2    3 1   
     5    2    6 1   
     6    2   19 1   
     7    3    4 1   
     8    3    5 1   
     9    6    7 1   
    10    6    8 1   
    11    6   20 1   
    12    7   21 1   
    13    7   22 1   
    14    7   23 1   
    15    8    9 1   
    16    9   10 1   
    17    9   11 1   
    18    9   24 1   
    19   10   25 1   
    20   11   12 1   
    21   11   26 1   
    22   11   27 1   
    23   12   13 1   
    24   12   14 1   
    25   12   28 1   
    26   13   29 1   
    27   13   30 1   
    28   14   15 1   
    29   14   16 1   
@<TRIPOS>SUBSTRUCTURE
     1 AEI         1 TEMP              0 ****  ****    0 ROOT
