@<TRIPOS>MOLECULE
AEJ
   66    71     1     0     0
SMALL
bcc


@<TRIPOS>ATOM
      1 O42        -0.0290    0.6130   -0.1370 oh        1 AEJ     -0.498100
      2 C39         1.3400    0.4680   -0.1640 ca        1 AEJ      0.126100
      3 C37         2.0130    0.6360    1.0580 ca        1 AEJ     -0.157000
      4 C35         3.3940    0.4990    1.0880 ca        1 AEJ     -0.085000
      5 C34         4.1170    0.1990   -0.0760 ca        1 AEJ     -0.113300
      6 C33         3.4360    0.0410   -1.2890 ca        1 AEJ     -0.030300
      7 C40         2.0440    0.1740   -1.3360 ca        1 AEJ     -0.216000
      8 C24         5.6210    0.0830    0.0330 c3        1 AEJ      0.291100
      9 N26         6.3050   -0.2490   -1.2310 nh        1 AEJ     -0.622000
     10 C44         7.6940    0.1280   -1.2140 ca        1 AEJ      0.089600
     11 C45         8.6660   -0.8900   -1.2520 ca        1 AEJ     -0.127500
     12 C47        10.0210   -0.5640   -1.2500 ca        1 AEJ     -0.129000
     13 C49        10.4300    0.7680   -1.2120 ca        1 AEJ     -0.131000
     14 C51         9.4750    1.7830   -1.1740 ca        1 AEJ     -0.129000
     15 C53         8.1180    1.4720   -1.1740 ca        1 AEJ     -0.127500
     16 C27         5.6290    0.2380   -2.4260 c3        1 AEJ      0.178800
     17 C30         4.1930   -0.2670   -2.5290 c3        1 AEJ     -0.039100
     18 C19         5.9610   -0.9300    1.1050 ca        1 AEJ     -0.104300
     19 C20         6.4560   -0.4960    2.3380 ca        1 AEJ     -0.089000
     20 C22         6.7600   -1.4030    3.3450 ca        1 AEJ     -0.174000
     21 C14         6.5760   -2.7920    3.1470 ca        1 AEJ      0.139600
     22 C15         6.0750   -3.2190    1.8970 ca        1 AEJ     -0.174000
     23 C17         5.7800   -2.2990    0.8950 ca        1 AEJ     -0.089000
     24 N7          6.9740   -3.7000    4.1620 nh        1 AEJ     -0.637000
     25 C8          6.3900   -3.4580    5.4730 c3        1 AEJ      0.188800
     26 C11         6.9930   -4.3630    6.5670 c3        1 AEJ      0.167800
     27 N1          6.9750   -5.7690    6.1980 n3        1 AEJ     -0.726600
     28 C2          7.6250   -5.9880    4.9010 c3        1 AEJ      0.176500
     29 C4          6.9860   -5.1070    3.7970 c3        1 AEJ      0.186800
     30 C55         7.5400   -7.4550    4.4620 c3        1 AEJ     -0.075400
     31 C58         8.1280   -8.3590    5.5240 c3        1 AEJ     -0.077400
     32 C61         7.4740   -8.1100    6.8660 c3        1 AEJ     -0.077400
     33 C64         7.5200   -6.6290    7.2390 c3        1 AEJ      0.172800
     34 H42        -0.3620    0.4620   -1.0330 ho        1 AEJ      0.418000
     35 H37         1.4410    0.8680    1.9670 ha        1 AEJ      0.151000
     36 H35         3.9350    0.6180    2.0410 ha        1 AEJ      0.141000
     37 H40         1.5120    0.0470   -2.2890 ha        1 AEJ      0.133000
     38 H24         5.9810    1.1010    0.3970 h1        1 AEJ      0.039700
     39 H45         8.3580   -1.9470   -1.2770 ha        1 AEJ      0.139000
     40 H47        10.7710   -1.3680   -1.2770 ha        1 AEJ      0.131000
     41 H49        11.5010    1.0170   -1.2100 ha        1 AEJ      0.131000
     42 H51         9.7930    2.8360   -1.1420 ha        1 AEJ      0.131000
     43 H53         7.3770    2.2860   -1.1440 ha        1 AEJ      0.139000
     44 H271        5.6190    1.3670   -2.4730 h1        1 AEJ      0.039200
     45 H272        6.2130   -0.1360   -3.3140 h1        1 AEJ      0.039200
     46 H301        3.7100    0.2140   -3.4190 hc        1 AEJ      0.060200
     47 H302        4.1860   -1.3780   -2.6970 hc        1 AEJ      0.060200
     48 H20         6.6170    0.5790    2.5180 ha        1 AEJ      0.136000
     49 H22         7.1640   -1.0250    4.2960 ha        1 AEJ      0.133000
     50 H15         5.9060   -4.2860    1.6910 ha        1 AEJ      0.133000
     51 H17         5.3970   -2.6560   -0.0730 ha        1 AEJ      0.136000
     52 H81         6.5910   -2.3910    5.7680 h1        1 AEJ      0.043700
     53 H82         5.2720   -3.6110    5.4550 h1        1 AEJ      0.043700
     54 H111        8.0370   -4.0020    6.8040 h1        1 AEJ      0.037700
     55 H112        6.3660   -4.2420    7.4940 h1        1 AEJ      0.037700
     56 H2          8.7250   -5.7150    4.9660 h1        1 AEJ      0.032700
     57 H41         5.9480   -5.4940    3.5830 h1        1 AEJ      0.044700
     58 H42A        7.6090   -5.2230    2.8670 h1        1 AEJ      0.044700
     59 H551        8.1030   -7.5720    3.5010 hc        1 AEJ      0.048200
     60 H552        6.4720   -7.7370    4.2720 hc        1 AEJ      0.048200
     61 H581        7.9880   -9.4310    5.2280 hc        1 AEJ      0.040700
     62 H582        9.2320   -8.1740    5.6040 hc        1 AEJ      0.040700
     63 H611        6.4080   -8.4570    6.8340 hc        1 AEJ      0.047700
     64 H612        8.0000   -8.6920    7.6650 hc        1 AEJ      0.047700
     65 H641        8.5880   -6.3540    7.4890 h1        1 AEJ      0.030200
     66 H642        6.9010   -6.4670    8.1660 h1        1 AEJ      0.030200
@<TRIPOS>BOND
     1    1    2 1   
     2    1   34 1   
     3    2    3 ar  
     4    2    7 ar  
     5    3    4 ar  
     6    3   35 1   
     7    4    5 ar  
     8    4   36 1   
     9    5    6 ar  
    10    5    8 1   
    11    6    7 ar  
    12    6   17 1   
    13    7   37 1   
    14    8    9 1   
    15    8   18 1   
    16    8   38 1   
    17    9   10 1   
    18    9   16 1   
    19   10   11 ar  
    20   10   15 ar  
    21   11   12 ar  
    22   11   39 1   
    23   12   13 ar  
    24   12   40 1   
    25   13   14 ar  
    26   13   41 1   
    27   14   15 ar  
    28   14   42 1   
    29   15   43 1   
    30   16   17 1   
    31   16   44 1   
    32   16   45 1   
    33   17   46 1   
    34   17   47 1   
    35   18   19 ar  
    36   18   23 ar  
    37   19   20 ar  
    38   19   48 1   
    39   20   21 ar  
    40   20   49 1   
    41   21   22 ar  
    42   21   24 1   
    43   22   23 ar  
    44   22   50 1   
    45   23   51 1   
    46   24   25 1   
    47   24   29 1   
    48   25   26 1   
    49   25   52 1   
    50   25   53 1   
    51   26   27 1   
    52   26   54 1   
    53   26   55 1   
    54   27   28 1   
    55   27   33 1   
    56   28   29 1   
    57   28   30 1   
    58   28   56 1   
    59   29   57 1   
    60   29   58 1   
    61   30   31 1   
    62   30   59 1   
    63   30   60 1   
    64   31   32 1   
    65   31   61 1   
    66   31   62 1   
    67   32   33 1   
    68   32   63 1   
    69   32   64 1   
    70   33   65 1   
    71   33   66 1   
@<TRIPOS>SUBSTRUCTURE
     1 AEJ         1 TEMP              0 ****  ****    0 ROOT
