@<TRIPOS>MOLECULE
AEJ
   66    65     1     0     0
SMALL
bcc


@<TRIPOS>ATOM
      1 O42        -7.2250    2.4100    1.3410 oh        1 AEJ     -0.252000
      2 C39        -5.8580    2.4510    0.9700 c2        1 AEJ      0.082000
      3 C37        -4.8550    2.6660    1.9660 c2        1 AEJ     -0.158000
      4 C35        -3.5020    2.7710    1.5940 c1        1 AEJ     -0.084000
      5 C34        -3.1370    2.6670    0.2510 c1        1 AEJ     -0.100000
      6 C33        -4.1490    2.4500   -0.7570 c1        1 AEJ     -0.018000
      7 C40        -5.4940    2.3460   -0.3840 c1        1 AEJ     -0.219000
      8 C24        -1.6700    3.1130   -0.2510 c3        1 AEJ      0.095000
      9 N26        -1.5490    3.4130   -1.5590 n3        1 AEJ     -0.236000
     10 C44        -0.1450    3.4060   -1.9320 c2        1 AEJ      0.057000
     11 C45         0.3620    2.3510   -2.6640 c2        1 AEJ     -0.171000
     12 C47         1.6330    2.4340   -3.2150 c1        1 AEJ     -0.109000
     13 C49         2.3960    3.5800   -3.0310 c1        1 AEJ     -0.133500
     14 C51         1.8950    4.6310   -2.3030 c1        1 AEJ     -0.133500
     15 C53         0.6190    4.5480   -1.7490 c1        1 AEJ     -0.149000
     16 C27        -2.2790    2.6460   -2.4770 c3        1 AEJ     -0.051000
     17 C30        -3.7080    2.5200   -2.2330 c3        1 AEJ     -0.126000
     18 C19        -0.6700    1.9510    0.0760 c2        1 AEJ     -0.141000
     19 C20        -1.0420    0.6110   -0.1710 c2        1 AEJ     -0.085000
     20 C22        -0.2020   -0.4310    0.2310 c1        1 AEJ     -0.186000
     21 C14         1.0040   -0.1460    0.8760 c1        1 AEJ      0.065000
     22 C15         1.3700    1.1840    1.1200 c1        1 AEJ     -0.162000
     23 C17         0.5250    2.2320    0.7150 c1        1 AEJ     -0.091000
     24 N7          1.9210   -1.2410    1.2470 n3        1 AEJ     -0.240000
     25 C8          1.5890   -1.7260    2.5630 c3        1 AEJ     -0.047000
     26 C11         2.4100   -2.9540    2.9580 c3        1 AEJ     -0.069000
     27 N1          2.3640   -3.9980    1.9520 n3        1 AEJ     -0.252000
     28 C2          2.7000   -3.5120    0.6230 c3        1 AEJ     -0.021000
     29 C4          1.8750   -2.2830    0.2340 c3        1 AEJ     -0.049000
     30 C55         2.5000   -4.6000   -0.4670 c3        1 AEJ     -0.154000
     31 C58         3.1880   -5.8660   -0.1320 c3        1 AEJ     -0.156000
     32 C61         2.8490   -6.3470    1.2210 c3        1 AEJ     -0.156000
     33 C64         3.0470   -5.2710    2.2900 c3        1 AEJ     -0.064000
     34 H42        -7.5500    1.6020    1.1820 ho        1 AEJ      0.217000
     35 H37        -5.1130    2.7640    2.9060 ha        1 AEJ      0.151000
     36 H35        -2.8320    2.9150    2.2630 ha        1 AEJ      0.139000
     37 H40        -6.1760    2.2660   -1.0610 ha        1 AEJ      0.133000
     38 H24        -1.4010    3.8980    0.2630 h1        1 AEJ      0.110000
     39 H45        -0.1750    1.5440   -2.7950 ha        1 AEJ      0.132000
     40 H47         1.9890    1.6900   -3.7310 ha        1 AEJ      0.129000
     41 H49         3.3030    3.6390   -3.4250 ha        1 AEJ      0.130000
     42 H51         2.4360    5.4410   -2.1730 ha        1 AEJ      0.130000
     43 H53         0.2620    5.2960   -1.2320 ha        1 AEJ      0.136000
     44 H271       -2.1700    3.0590   -3.3510 h1        1 AEJ      0.080500
     45 H272       -1.9040    1.7500   -2.4730 h1        1 AEJ      0.080500
     46 H301       -4.1450    3.2680   -2.6370 hc        1 AEJ      0.098000
     47 H302       -4.0190    1.7120   -2.6780 hc        1 AEJ      0.098000
     48 H20        -1.8930    0.4100   -0.6260 ha        1 AEJ      0.136000
     49 H22        -0.4570   -1.3560    0.0610 ha        1 AEJ      0.133000
     50 H15         2.2230    1.3860    1.5760 ha        1 AEJ      0.136000
     51 H17         0.7850    3.1750    0.8880 ha        1 AEJ      0.133000
     52 H81         1.7500   -1.0160    3.2120 h1        1 AEJ      0.083500
     53 H82         0.6300   -1.9650    2.5820 h1        1 AEJ      0.083500
     54 H111        3.3460   -2.6810    3.0920 h1        1 AEJ      0.078000
     55 H112        2.0610   -3.3090    3.7980 h1        1 AEJ      0.078000
     56 H2          3.6370   -3.2570    0.6250 h1        1 AEJ      0.073000
     57 H41         2.2220   -1.9220   -0.6090 h1        1 AEJ      0.084000
     58 H42A        0.9280   -2.5610    0.1010 h1        1 AEJ      0.084000
     59 H551        1.5300   -4.7790   -0.5660 hc        1 AEJ      0.087500
     60 H552        2.8480   -4.2660   -1.3160 hc        1 AEJ      0.087500
     61 H581        2.9340   -6.5440   -0.7820 hc        1 AEJ      0.080000
     62 H582        4.1710   -5.7210   -0.1860 hc        1 AEJ      0.080000
     63 H611        3.4140   -7.1080    1.4330 hc        1 AEJ      0.087000
     64 H612        1.9130   -6.6340    1.2310 hc        1 AEJ      0.087000
     65 H641        2.6960   -5.6020    3.1410 h1        1 AEJ      0.070000
     66 H642        3.9960   -5.1000    2.3880 h1        1 AEJ      0.070000
@<TRIPOS>BOND
     1    1    2 1   
     2    1   34 1   
     3    2    3 1   
     4    2    7 1   
     5    3    4 1   
     6    3   35 1   
     7    4   36 1   
     8    5    6 1   
     9    5    8 1   
    10    6   17 1   
    11    7   37 1   
    12    8    9 1   
    13    8   18 1   
    14    8   38 1   
    15    9   10 1   
    16    9   16 1   
    17   10   11 1   
    18   10   15 1   
    19   11   12 1   
    20   11   39 1   
    21   12   40 1   
    22   13   14 1   
    23   13   41 1   
    24   14   42 1   
    25   15   43 1   
    26   16   17 1   
    27   16   44 1   
    28   16   45 1   
    29   17   46 1   
    30   17   47 1   
    31   18   19 1   
    32   18   23 1   
    33   19   20 1   
    34   19   48 1   
    35   20   49 1   
    36   21   22 1   
    37   21   24 1   
    38   22   50 1   
    39   23   51 1   
    40   24   25 1   
    41   24   29 1   
    42   25   26 1   
    43   25   52 1   
    44   25   53 1   
    45   26   27 1   
    46   26   54 1   
    47   26   55 1   
    48   27   28 1   
    49   27   33 1   
    50   28   29 1   
    51   28   30 1   
    52   28   56 1   
    53   29   57 1   
    54   29   58 1   
    55   30   31 1   
    56   30   59 1   
    57   30   60 1   
    58   31   32 1   
    59   31   61 1   
    60   31   62 1   
    61   32   33 1   
    62   32   63 1   
    63   32   64 1   
    64   33   65 1   
    65   33   66 1   
@<TRIPOS>SUBSTRUCTURE
     1 AEJ         1 TEMP              0 ****  ****    0 ROOT
