@<TRIPOS>MOLECULE
AEJ
   66    71     1     0     0
SMALL
bcc


@<TRIPOS>ATOM
      1 O42        -0.0500    0.3960   -0.4360 oh        1 AEJ     -0.499100
      2 C39         1.3170    0.3120   -0.2920 ca        1 AEJ      0.126100
      3 C37         1.9600    0.4980    0.9400 ca        1 AEJ     -0.214000
      4 C35         3.3460    0.3960    1.0010 ca        1 AEJ     -0.079000
      5 C34         4.0970    0.1120   -0.1460 ca        1 AEJ     -0.113300
      6 C33         3.4430   -0.0650   -1.3730 ca        1 AEJ     -0.034300
      7 C40         2.0520    0.0330   -1.4520 ca        1 AEJ     -0.160000
      8 C24         5.6010    0.0320   -0.0070 c3        1 AEJ      0.292100
      9 N26         6.3180   -0.2860   -1.2560 nh        1 AEJ     -0.622000
     10 C44         7.6960    0.1240   -1.2130 ca        1 AEJ      0.089600
     11 C45         8.6940   -0.8710   -1.2290 ca        1 AEJ     -0.127500
     12 C47        10.0400   -0.5130   -1.2010 ca        1 AEJ     -0.129000
     13 C49        10.4160    0.8280   -1.1580 ca        1 AEJ     -0.131000
     14 C51         9.4370    1.8210   -1.1420 ca        1 AEJ     -0.129000
     15 C53         8.0890    1.4780   -1.1690 ca        1 AEJ     -0.127500
     16 C27         5.6540    0.1830   -2.4660 c3        1 AEJ      0.178800
     17 C30         4.2330   -0.3580   -2.5960 c3        1 AEJ     -0.040100
     18 C19         5.9440   -0.9710    1.0730 ca        1 AEJ     -0.104300
     19 C20         6.4110   -0.5230    2.3130 ca        1 AEJ     -0.089000
     20 C22         6.7170   -1.4210    3.3280 ca        1 AEJ     -0.174500
     21 C14         6.5650   -2.8150    3.1300 ca        1 AEJ      0.138600
     22 C15         6.0920   -3.2540    1.8740 ca        1 AEJ     -0.174500
     23 C17         5.7950   -2.3430    0.8650 ca        1 AEJ     -0.089000
     24 N7          6.9650   -3.7120    4.1540 nh        1 AEJ     -0.637000
     25 C8          6.3570   -3.4780    5.4560 c3        1 AEJ      0.189800
     26 C11         6.9610   -4.3690    6.5610 c3        1 AEJ      0.167800
     27 N1          6.9750   -5.7760    6.1960 n3        1 AEJ     -0.726600
     28 C2          7.6490   -5.9860    4.9090 c3        1 AEJ      0.176500
     29 C4          7.0100   -5.1190    3.7930 c3        1 AEJ      0.186800
     30 C55         7.5980   -7.4550    4.4730 c3        1 AEJ     -0.075400
     31 C58         8.1880   -8.3450    5.5460 c3        1 AEJ     -0.077400
     32 C61         7.5080   -8.1040    6.8770 c3        1 AEJ     -0.077400
     33 C64         7.5200   -6.6220    7.2470 c3        1 AEJ      0.172800
     34 H42        -0.4290    0.5790    0.4350 ho        1 AEJ      0.418000
     35 H37         1.3770    0.7180    1.8440 ha        1 AEJ      0.134000
     36 H35         3.8630    0.5290    1.9650 ha        1 AEJ      0.140000
     37 H40         1.5290   -0.1050   -2.4090 ha        1 AEJ      0.150000
     38 H24         5.9300    1.0600    0.3610 h1        1 AEJ      0.038700
     39 H45         8.4110   -1.9350   -1.2580 ha        1 AEJ      0.139000
     40 H47        10.8090   -1.2990   -1.2110 ha        1 AEJ      0.131000
     41 H49        11.4810    1.1030   -1.1360 ha        1 AEJ      0.131000
     42 H51         9.7300    2.8810   -1.1080 ha        1 AEJ      0.131000
     43 H53         7.3280    2.2740   -1.1560 ha        1 AEJ      0.139000
     44 H271        5.6170    1.3110   -2.5150 h1        1 AEJ      0.039200
     45 H272        6.2640   -0.1780   -3.3410 h1        1 AEJ      0.039200
     46 H301        3.7560    0.1090   -3.4980 hc        1 AEJ      0.062200
     47 H302        4.2570   -1.4690   -2.7600 hc        1 AEJ      0.062200
     48 H20         6.5480    0.5550    2.4930 ha        1 AEJ      0.136000
     49 H22         7.0990   -1.0330    4.2830 ha        1 AEJ      0.133000
     50 H15         5.9480   -4.3260    1.6680 ha        1 AEJ      0.133000
     51 H17         5.4340   -2.7110   -0.1090 ha        1 AEJ      0.136000
     52 H81         5.2420   -3.6520    5.4210 h1        1 AEJ      0.043200
     53 H82         6.5330   -2.4070    5.7500 h1        1 AEJ      0.043200
     54 H111        6.3180   -4.2570    7.4790 h1        1 AEJ      0.037700
     55 H112        7.9940   -3.9870    6.8120 h1        1 AEJ      0.037700
     56 H2          8.7420   -5.6910    4.9900 h1        1 AEJ      0.033700
     57 H41         5.9820   -5.5270    3.5640 h1        1 AEJ      0.044700
     58 H42A        7.6490   -5.2260    2.8730 h1        1 AEJ      0.044700
     59 H551        6.5390   -7.7580    4.2680 hc        1 AEJ      0.048200
     60 H552        8.1780   -7.5630    3.5200 hc        1 AEJ      0.048200
     61 H581        8.0720   -9.4200    5.2510 hc        1 AEJ      0.040700
     62 H582        9.2860   -8.1390    5.6430 hc        1 AEJ      0.040700
     63 H611        6.4500   -8.4720    6.8300 hc        1 AEJ      0.047700
     64 H612        8.0330   -8.6740    7.6860 hc        1 AEJ      0.047700
     65 H641        6.8840   -6.4690    8.1650 h1        1 AEJ      0.030200
     66 H642        8.5790   -6.3260    7.5130 h1        1 AEJ      0.030200
@<TRIPOS>BOND
     1    1    2 1   
     2    1   34 1   
     3    2    3 ar  
     4    2    7 ar  
     5    3    4 ar  
     6    3   35 1   
     7    4    5 ar  
     8    4   36 1   
     9    5    6 ar  
    10    5    8 1   
    11    6    7 ar  
    12    6   17 1   
    13    7   37 1   
    14    8    9 1   
    15    8   18 1   
    16    8   38 1   
    17    9   10 1   
    18    9   16 1   
    19   10   11 ar  
    20   10   15 ar  
    21   11   12 ar  
    22   11   39 1   
    23   12   13 ar  
    24   12   40 1   
    25   13   14 ar  
    26   13   41 1   
    27   14   15 ar  
    28   14   42 1   
    29   15   43 1   
    30   16   17 1   
    31   16   44 1   
    32   16   45 1   
    33   17   46 1   
    34   17   47 1   
    35   18   19 ar  
    36   18   23 ar  
    37   19   20 ar  
    38   19   48 1   
    39   20   21 ar  
    40   20   49 1   
    41   21   22 ar  
    42   21   24 1   
    43   22   23 ar  
    44   22   50 1   
    45   23   51 1   
    46   24   25 1   
    47   24   29 1   
    48   25   26 1   
    49   25   52 1   
    50   25   53 1   
    51   26   27 1   
    52   26   54 1   
    53   26   55 1   
    54   27   28 1   
    55   27   33 1   
    56   28   29 1   
    57   28   30 1   
    58   28   56 1   
    59   29   57 1   
    60   29   58 1   
    61   30   31 1   
    62   30   59 1   
    63   30   60 1   
    64   31   32 1   
    65   31   61 1   
    66   31   62 1   
    67   32   33 1   
    68   32   63 1   
    69   32   64 1   
    70   33   65 1   
    71   33   66 1   
@<TRIPOS>SUBSTRUCTURE
     1 AEJ         1 TEMP              0 ****  ****    0 ROOT
