@<TRIPOS>MOLECULE
AEJ
   66    71     1     0     0
SMALL
bcc


@<TRIPOS>ATOM
      1 O42        -4.8160    5.0770    0.2090 oh        1 AEJ     -0.499100
      2 C39        -4.2900    3.8170    0.0290 ca        1 AEJ      0.126100
      3 C37        -3.3820    3.5150   -0.9950 ca        1 AEJ     -0.214000
      4 C35        -2.8960    2.2170   -1.1080 ca        1 AEJ     -0.079000
      5 C34        -3.3030    1.2180   -0.2160 ca        1 AEJ     -0.114300
      6 C33        -4.2180    1.5300    0.8000 ca        1 AEJ     -0.034300
      7 C40        -4.7140    2.8290    0.9290 ca        1 AEJ     -0.160000
      8 C24        -2.7470   -0.1760   -0.4080 c3        1 AEJ      0.292100
      9 N26        -3.2130   -1.1670    0.5780 nh        1 AEJ     -0.622000
     10 C44        -3.0860   -2.5170    0.0970 ca        1 AEJ      0.089600
     11 C45        -2.1670   -3.3730    0.7360 ca        1 AEJ     -0.127500
     12 C47        -2.0240   -4.6910    0.3070 ca        1 AEJ     -0.129000
     13 C49        -2.7840   -5.1780   -0.7550 ca        1 AEJ     -0.131000
     14 C51        -3.6960   -4.3390   -1.3930 ca        1 AEJ     -0.129000
     15 C53        -3.8490   -3.0200   -0.9760 ca        1 AEJ     -0.127500
     16 C27        -4.5460   -0.9080    1.1070 c3        1 AEJ      0.178800
     17 C30        -4.6600    0.4730    1.7460 c3        1 AEJ     -0.040100
     18 C19        -1.2340   -0.1050   -0.4180 ca        1 AEJ     -0.104300
     19 C20        -0.5400   -0.2630   -1.6220 ca        1 AEJ     -0.089000
     20 C22         0.8470   -0.1860   -1.6610 ca        1 AEJ     -0.174500
     21 C14         1.5910    0.0530   -0.4810 ca        1 AEJ      0.138600
     22 C15         0.8780    0.2120    0.7280 ca        1 AEJ     -0.174500
     23 C17        -0.5110    0.1260    0.7530 ca        1 AEJ     -0.089000
     24 N7          3.0090    0.0430   -0.5370 nh        1 AEJ     -0.637000
     25 C8          3.5980    0.9520   -1.5100 c3        1 AEJ      0.189800
     26 C11         5.1230    0.7680   -1.6460 c3        1 AEJ      0.167800
     27 N1          5.8050    0.8050   -0.3630 n3        1 AEJ     -0.726600
     28 C2          5.2290   -0.1660    0.5750 c3        1 AEJ      0.176500
     29 C4          3.7030    0.0510    0.7400 c3        1 AEJ      0.186800
     30 C55         5.8850   -0.0800    1.9580 c3        1 AEJ     -0.075400
     31 C58         7.3840   -0.2590    1.8440 c3        1 AEJ     -0.077400
     32 C61         7.9690    0.7270    0.8550 c3        1 AEJ     -0.077400
     33 C64         7.2470    0.6580   -0.4910 c3        1 AEJ      0.172800
     34 H42        -4.4330    5.6570   -0.4660 ho        1 AEJ      0.418000
     35 H37        -3.0560    4.2950   -1.6970 ha        1 AEJ      0.134000
     36 H35        -2.1740    1.9690   -1.9030 ha        1 AEJ      0.140000
     37 H40        -5.4290    3.0850    1.7220 ha        1 AEJ      0.150000
     38 H24        -3.0820   -0.4980   -1.4490 h1        1 AEJ      0.038700
     39 H45        -1.5550   -3.0000    1.5720 ha        1 AEJ      0.139000
     40 H47        -1.3010   -5.3490    0.8110 ha        1 AEJ      0.131000
     41 H49        -2.6650   -6.2190   -1.0880 ha        1 AEJ      0.131000
     42 H51        -4.2980   -4.7180   -2.2320 ha        1 AEJ      0.131000
     43 H53        -4.5740   -2.3700   -1.4910 ha        1 AEJ      0.139000
     44 H271       -5.3410   -1.0030    0.3100 h1        1 AEJ      0.039200
     45 H272       -4.7520   -1.6910    1.8900 h1        1 AEJ      0.039200
     46 H301       -5.7270    0.6370    2.0520 hc        1 AEJ      0.062200
     47 H302       -4.0280    0.5230    2.6740 hc        1 AEJ      0.062200
     48 H20        -1.0920   -0.4590   -2.5540 ha        1 AEJ      0.135500
     49 H22         1.3590   -0.3340   -2.6230 ha        1 AEJ      0.133000
     50 H15         1.4060    0.4060    1.6730 ha        1 AEJ      0.133000
     51 H17        -1.0440    0.2460    1.7090 ha        1 AEJ      0.135500
     52 H81         3.1400    0.7500   -2.5170 h1        1 AEJ      0.043200
     53 H82         3.3870    2.0280   -1.2400 h1        1 AEJ      0.043200
     54 H111        5.3250   -0.1920   -2.2050 h1        1 AEJ      0.037700
     55 H112        5.5150    1.6200   -2.2700 h1        1 AEJ      0.037700
     56 H2          5.3860   -1.2210    0.1870 h1        1 AEJ      0.033700
     57 H41         3.5340    1.0150    1.3030 h1        1 AEJ      0.044700
     58 H42A        3.3040   -0.7990    1.3620 h1        1 AEJ      0.044700
     59 H551        5.4490   -0.8820    2.6080 hc        1 AEJ      0.048200
     60 H552        5.6550    0.9100    2.4300 hc        1 AEJ      0.048200
     61 H581        7.6120   -1.3060    1.5100 hc        1 AEJ      0.040700
     62 H582        7.8590   -0.1150    2.8480 hc        1 AEJ      0.040700
     63 H611        9.0540    0.5040    0.6850 hc        1 AEJ      0.047700
     64 H612        7.8930    1.7650    1.2700 hc        1 AEJ      0.047700
     65 H641        7.5240   -0.3140   -0.9980 h1        1 AEJ      0.030200
     66 H642        7.6140    1.4990   -1.1450 h1        1 AEJ      0.030200
@<TRIPOS>BOND
     1    1    2 1   
     2    1   34 1   
     3    2    3 ar  
     4    2    7 ar  
     5    3    4 ar  
     6    3   35 1   
     7    4    5 ar  
     8    4   36 1   
     9    5    6 ar  
    10    5    8 1   
    11    6    7 ar  
    12    6   17 1   
    13    7   37 1   
    14    8    9 1   
    15    8   18 1   
    16    8   38 1   
    17    9   10 1   
    18    9   16 1   
    19   10   11 ar  
    20   10   15 ar  
    21   11   12 ar  
    22   11   39 1   
    23   12   13 ar  
    24   12   40 1   
    25   13   14 ar  
    26   13   41 1   
    27   14   15 ar  
    28   14   42 1   
    29   15   43 1   
    30   16   17 1   
    31   16   44 1   
    32   16   45 1   
    33   17   46 1   
    34   17   47 1   
    35   18   19 ar  
    36   18   23 ar  
    37   19   20 ar  
    38   19   48 1   
    39   20   21 ar  
    40   20   49 1   
    41   21   22 ar  
    42   21   24 1   
    43   22   23 ar  
    44   22   50 1   
    45   23   51 1   
    46   24   25 1   
    47   24   29 1   
    48   25   26 1   
    49   25   52 1   
    50   25   53 1   
    51   26   27 1   
    52   26   54 1   
    53   26   55 1   
    54   27   28 1   
    55   27   33 1   
    56   28   29 1   
    57   28   30 1   
    58   28   56 1   
    59   29   57 1   
    60   29   58 1   
    61   30   31 1   
    62   30   59 1   
    63   30   60 1   
    64   31   32 1   
    65   31   61 1   
    66   31   62 1   
    67   32   33 1   
    68   32   63 1   
    69   32   64 1   
    70   33   65 1   
    71   33   66 1   
@<TRIPOS>SUBSTRUCTURE
     1 AEJ         1 TEMP              0 ****  ****    0 ROOT
