@<TRIPOS>MOLECULE
AEJ
   66    71     1     0     0
SMALL
bcc


@<TRIPOS>ATOM
      1 O42        -0.0280    0.6270   -0.1160 oh        1 AEJ     -0.498100
      2 C39         1.3410    0.4790   -0.1480 ca        1 AEJ      0.126100
      3 C37         2.0190    0.6480    1.0720 ca        1 AEJ     -0.157000
      4 C35         3.3990    0.5080    1.0970 ca        1 AEJ     -0.085000
      5 C34         4.1170    0.2030   -0.0690 ca        1 AEJ     -0.113300
      6 C33         3.4320    0.0440   -1.2800 ca        1 AEJ     -0.030300
      7 C40         2.0400    0.1800   -1.3220 ca        1 AEJ     -0.216000
      8 C24         5.6220    0.0840    0.0350 c3        1 AEJ      0.291100
      9 N26         6.3010   -0.2500   -1.2310 nh        1 AEJ     -0.622000
     10 C44         7.6900    0.1260   -1.2200 ca        1 AEJ      0.089600
     11 C45         8.6620   -0.8930   -1.2590 ca        1 AEJ     -0.127500
     12 C47        10.0170   -0.5670   -1.2620 ca        1 AEJ     -0.129000
     13 C49        10.4260    0.7640   -1.2280 ca        1 AEJ     -0.131000
     14 C51         9.4720    1.7800   -1.1890 ca        1 AEJ     -0.129000
     15 C53         8.1150    1.4700   -1.1840 ca        1 AEJ     -0.127500
     16 C27         5.6210    0.2350   -2.4240 c3        1 AEJ      0.178800
     17 C30         4.1840   -0.2690   -2.5210 c3        1 AEJ     -0.039100
     18 C19         5.9620   -0.9300    1.1060 ca        1 AEJ     -0.104300
     19 C20         6.4630   -0.4960    2.3370 ca        1 AEJ     -0.089000
     20 C22         6.7680   -1.4040    3.3440 ca        1 AEJ     -0.174000
     21 C14         6.5800   -2.7930    3.1460 ca        1 AEJ      0.139600
     22 C15         6.0730   -3.2180    1.8980 ca        1 AEJ     -0.174000
     23 C17         5.7770   -2.2980    0.8970 ca        1 AEJ     -0.089000
     24 N7          6.9790   -3.7020    4.1600 nh        1 AEJ     -0.637000
     25 C8          6.4000   -3.4580    5.4730 c3        1 AEJ      0.188800
     26 C11         7.0040   -4.3640    6.5660 c3        1 AEJ      0.167800
     27 N1          6.9800   -5.7700    6.1970 n3        1 AEJ     -0.726600
     28 C2          7.6260   -5.9920    4.8980 c3        1 AEJ      0.176500
     29 C4          6.9850   -5.1090    3.7960 c3        1 AEJ      0.186800
     30 C55         7.5350   -7.4580    4.4590 c3        1 AEJ     -0.075400
     31 C58         8.1240   -8.3640    5.5200 c3        1 AEJ     -0.077400
     32 C61         7.4740   -8.1120    6.8640 c3        1 AEJ     -0.077400
     33 C64         7.5260   -6.6310    7.2370 c3        1 AEJ      0.172800
     34 H42        -0.3650    0.4740   -1.0100 ho        1 AEJ      0.418000
     35 H37         1.4500    0.8840    1.9820 ha        1 AEJ      0.151000
     36 H35         3.9440    0.6280    2.0470 ha        1 AEJ      0.141000
     37 H40         1.5040    0.0530   -2.2720 ha        1 AEJ      0.133000
     38 H24         5.9850    1.1020    0.3970 h1        1 AEJ      0.039700
     39 H45         8.3530   -1.9490   -1.2800 ha        1 AEJ      0.139000
     40 H47        10.7660   -1.3720   -1.2900 ha        1 AEJ      0.131000
     41 H49        11.4970    1.0130   -1.2300 ha        1 AEJ      0.131000
     42 H51         9.7910    2.8330   -1.1610 ha        1 AEJ      0.131000
     43 H53         7.3750    2.2840   -1.1540 ha        1 AEJ      0.139000
     44 H271        5.6120    1.3640   -2.4740 h1        1 AEJ      0.039200
     45 H272        6.2010   -0.1410   -3.3140 h1        1 AEJ      0.039200
     46 H301        3.6980    0.2110   -3.4110 hc        1 AEJ      0.060200
     47 H302        4.1750   -1.3800   -2.6860 hc        1 AEJ      0.060200
     48 H20         6.6280    0.5780    2.5170 ha        1 AEJ      0.136000
     49 H22         7.1770   -1.0270    4.2930 ha        1 AEJ      0.133000
     50 H15         5.9010   -4.2850    1.6930 ha        1 AEJ      0.133000
     51 H17         5.3890   -2.6550   -0.0700 ha        1 AEJ      0.136000
     52 H81         6.6040   -2.3910    5.7670 h1        1 AEJ      0.043700
     53 H82         5.2810   -3.6070    5.4580 h1        1 AEJ      0.043700
     54 H111        6.3800   -4.2410    7.4950 h1        1 AEJ      0.037700
     55 H112        8.0490   -4.0060    6.7990 h1        1 AEJ      0.037700
     56 H2          8.7260   -5.7220    4.9590 h1        1 AEJ      0.032700
     57 H41         5.9450   -5.4930    3.5850 h1        1 AEJ      0.044700
     58 H42A        7.6040   -5.2270    2.8630 h1        1 AEJ      0.044700
     59 H551        8.0940   -7.5770    3.4960 hc        1 AEJ      0.048200
     60 H552        6.4650   -7.7370    4.2730 hc        1 AEJ      0.048200
     61 H581        9.2280   -8.1820    5.5970 hc        1 AEJ      0.040700
     62 H582        7.9790   -9.4350    5.2240 hc        1 AEJ      0.040700
     63 H611        6.4080   -8.4560    6.8360 hc        1 AEJ      0.047700
     64 H612        8.0020   -8.6950    7.6620 hc        1 AEJ      0.047700
     65 H641        8.5950   -6.3590    7.4830 h1        1 AEJ      0.030200
     66 H642        6.9100   -6.4670    8.1660 h1        1 AEJ      0.030200
@<TRIPOS>BOND
     1    1    2 1   
     2    1   34 1   
     3    2    3 ar  
     4    2    7 ar  
     5    3    4 ar  
     6    3   35 1   
     7    4    5 ar  
     8    4   36 1   
     9    5    6 ar  
    10    5    8 1   
    11    6    7 ar  
    12    6   17 1   
    13    7   37 1   
    14    8    9 1   
    15    8   18 1   
    16    8   38 1   
    17    9   10 1   
    18    9   16 1   
    19   10   11 ar  
    20   10   15 ar  
    21   11   12 ar  
    22   11   39 1   
    23   12   13 ar  
    24   12   40 1   
    25   13   14 ar  
    26   13   41 1   
    27   14   15 ar  
    28   14   42 1   
    29   15   43 1   
    30   16   17 1   
    31   16   44 1   
    32   16   45 1   
    33   17   46 1   
    34   17   47 1   
    35   18   19 ar  
    36   18   23 ar  
    37   19   20 ar  
    38   19   48 1   
    39   20   21 ar  
    40   20   49 1   
    41   21   22 ar  
    42   21   24 1   
    43   22   23 ar  
    44   22   50 1   
    45   23   51 1   
    46   24   25 1   
    47   24   29 1   
    48   25   26 1   
    49   25   52 1   
    50   25   53 1   
    51   26   27 1   
    52   26   54 1   
    53   26   55 1   
    54   27   28 1   
    55   27   33 1   
    56   28   29 1   
    57   28   30 1   
    58   28   56 1   
    59   29   57 1   
    60   29   58 1   
    61   30   31 1   
    62   30   59 1   
    63   30   60 1   
    64   31   32 1   
    65   31   61 1   
    66   31   62 1   
    67   32   33 1   
    68   32   63 1   
    69   32   64 1   
    70   33   65 1   
    71   33   66 1   
@<TRIPOS>SUBSTRUCTURE
     1 AEJ         1 TEMP              0 ****  ****    0 ROOT
