@<TRIPOS>MOLECULE
AEK
   50    52     1     0     0
SMALL
bcc


@<TRIPOS>ATOM
      1 N1          1.8360    0.0290    2.6810 n2        1 AEK     -0.816900
      2 N3          1.8090   -1.9580    4.6870 ny        1 AEK     -0.759800
      3 C4         -1.5060    0.0600    5.8560 ce        1 AEK      0.059800
      4 C5         -0.9770    1.1850    6.6400 c3        1 AEK     -0.058200
      5 C6         -0.7000    0.8030    8.0760 c3        1 AEK     -0.092100
      6 C7          2.2440   -3.3610    4.4340 cx        1 AEK      0.203000
      7 C8          2.9900   -2.4890    5.3280 cu        1 AEK     -0.110200
      8 C10         4.9810   -4.4490    6.1650 c3        1 AEK     -0.085400
      9 C13        -2.9100   -0.4020    5.8930 cc        1 AEK      0.130000
     10 C15        -4.5060   -1.8070    4.5740 c         1 AEK      0.707700
     11 C17        -1.8860   -1.6060    4.1610 cx        1 AEK     -0.093600
     12 C1          3.0780    0.6610    2.3850 c3        1 AEK      0.116100
     13 C2          0.7170    0.3840    2.0670 ce        1 AEK      0.877200
     14 N2          0.5710    1.4520    1.1780 nv        1 AEK     -0.917800
     15 C3         -0.8890   -0.6940    4.8870 cf        1 AEK     -0.406800
     16 C9          4.0020   -5.2440    6.9910 c3        1 AEK     -0.100100
     17 C11         5.0660   -2.9990    6.5940 c3        1 AEK     -0.068200
     18 C12         3.9470   -2.1300    6.1650 c2        1 AEK      0.009800
     19 N4         -3.9260   -0.0300    6.7420 na        1 AEK     -0.709000
     20 C14        -5.2040   -0.5380    6.4480 cc        1 AEK      0.666100
     21 N5         -5.5150   -1.3470    5.4750 nd        1 AEK     -0.640100
     22 C16        -3.1570   -1.2630    4.8030 cd        1 AEK     -0.212400
     23 C18        -0.9030   -0.6840    3.4550 cf        1 AEK      0.588600
     24 N6         -0.4940   -0.3720    2.3050 ne        1 AEK     -0.633000
     25 HN3        -0.3120    1.6920    8.6320 hc        1 AEK      0.047700
     26 H5          0.9720   -1.7910    5.2450 hn        1 AEK      0.500300
     27 H5A        -1.7200    2.0310    6.6160 hc        1 AEK      0.073700
     28 H6         -0.0310    1.5640    6.1650 hc        1 AEK      0.073700
     29 H6A         0.0630   -0.0100    8.1320 hc        1 AEK      0.047700
     30 H7         -1.6290    0.4470    8.5830 hc        1 AEK      0.047700
     31 H7A         1.5990   -4.1750    4.8410 hx        1 AEK      0.132200
     32 H8          2.6190   -3.5890    3.4090 hx        1 AEK      0.132200
     33 H10         4.2790   -5.2150    8.0720 hc        1 AEK      0.041367
     34 H10A        4.6990   -4.5080    5.0800 hc        1 AEK      0.055200
     35 H17        -1.7590   -2.6770    3.9100 hc        1 AEK      0.151700
     36 H1          3.0770    1.7550    2.6480 h1        1 AEK      0.047033
     37 H1A         3.3690    0.5660    1.3020 h1        1 AEK      0.047033
     38 H9          2.9680   -4.8340    6.8810 hc        1 AEK      0.041367
     39 H9A         3.9960   -6.3110    6.6600 hc        1 AEK      0.041367
     40 H11         6.0020   -4.9070    6.2650 hc        1 AEK      0.055200
     41 H11A        6.0130   -2.5460    6.1830 hc        1 AEK      0.088200
     42 H12         5.1380   -2.9460    7.7170 hc        1 AEK      0.088200
     43 H12A        3.9560   -1.1060    6.5910 ha        1 AEK      0.160000
     44 H14        -3.7650    0.5890    7.5010 hn        1 AEK      0.468800
     45 HN5        -6.0110   -0.2010    7.1380 h5        1 AEK      0.075800
     46 HN2        -0.2800    1.5300    0.6670 hn        1 AEK      0.440800
     47 H23         1.3890    1.7650    0.7090 hn        1 AEK      0.440800
     48 H24         3.8630    0.1500    3.0030 h1        1 AEK      0.047033
     49 H32         1.9060   -1.2420    3.9200 hn        1 AEK      0.500300
     50 O1         -4.7610   -2.6140    3.6710 o         1 AEK     -0.497100
@<TRIPOS>BOND
     1    1   12 1   
     2    1   13 2   
     3    2    6 1   
     4    2    7 1   
     5    2   26 1   
     6    2   49 1   
     7    3    4 1   
     8    3    9 1   
     9    3   15 2   
    10    4    5 1   
    11    4   27 1   
    12    4   28 1   
    13    5   25 1   
    14    5   29 1   
    15    5   30 1   
    16    6    7 1   
    17    6   31 1   
    18    6   32 1   
    19    7   18 2   
    20    8   16 1   
    21    8   17 1   
    22    8   34 1   
    23    8   40 1   
    24    9   19 1   
    25    9   22 2   
    26   10   21 1   
    27   10   22 1   
    28   10   50 2   
    29   11   15 1   
    30   11   22 1   
    31   11   23 1   
    32   11   35 1   
    33   12   36 1   
    34   12   37 1   
    35   12   48 1   
    36   13   14 1   
    37   13   24 1   
    38   14   46 1   
    39   14   47 1   
    40   15   23 1   
    41   16   33 1   
    42   16   38 1   
    43   16   39 1   
    44   17   18 1   
    45   17   41 1   
    46   17   42 1   
    47   18   43 1   
    48   19   20 1   
    49   19   44 1   
    50   20   21 2   
    51   20   45 1   
    52   23   24 2   
@<TRIPOS>SUBSTRUCTURE
     1 AEK         1 TEMP              0 ****  ****    0 ROOT
