@<TRIPOS>MOLECULE
AEK
   50    49     1     0     0
SMALL
bcc


@<TRIPOS>ATOM
      1 N1          2.4760    1.2600    1.7520 nh        1 AEK     -0.454200
      2 N3         -0.2890   -0.7080    9.2430 nh        1 AEK     -0.752000
      3 C4         -1.5090   -0.3860    5.7050 ca        1 AEK     -0.056800
      4 C5         -1.4170   -0.2270    7.1480 ce        1 AEK     -0.308200
      5 C6         -0.5310   -0.9230    7.9030 c2        1 AEK      0.101000
      6 C7          0.2730   -1.7590   10.0400 c3        1 AEK      0.179100
      7 C8          2.5400   -1.9640    6.2090 c1        1 AEK     -0.265500
      8 C10         4.6120   -4.1150    4.3400 c3        1 AEK     -0.083400
      9 C13        -2.6680   -0.9910    5.1310 ca        1 AEK      0.222600
     10 C15        -3.9710   -1.7330    3.1090 c         1 AEK      0.700100
     11 C17        -1.7610   -0.5860    2.8970 ca        1 AEK      0.026000
     12 C1          3.5420    0.2850    4.1830 c2        1 AEK      0.405100
     13 C2          1.6090    0.5820    2.6690 c2        1 AEK      0.440300
     14 N2          2.3660   -0.0710    3.7720 nh        1 AEK     -0.251200
     15 C3         -0.5080    0.0900    4.8730 ca        1 AEK     -0.100000
     16 C9          4.7960   -3.1340    3.2130 c3        1 AEK     -0.087100
     17 C11         3.1870   -4.1370    4.8680 c3        1 AEK     -0.032300
     18 C12         2.8370   -2.9520    5.5970 c1        1 AEK     -0.077100
     19 N4         -3.7030   -1.4810    5.9120 na        1 AEK     -0.717600
     20 C14        -4.8150   -2.0470    5.2790 cc        1 AEK      0.672100
     21 N5         -4.9840   -2.1900    3.9960 nd        1 AEK     -0.644100
     22 C16        -2.7660   -1.0900    3.7170 ca        1 AEK     -0.231600
     23 C18        -0.6050   -0.0020    3.4600 ca        1 AEK      0.011400
     24 N6          0.3180    0.5510    2.5670 ne        1 AEK     -0.488100
     25 HN3        -0.9290   -0.1100    9.7210 hn        1 AEK      0.419800
     26 H5          2.3240    1.4500    6.9140 ha        1 AEK      0.001500
     27 H5A         2.5480    1.1140    6.3680 ha        1 AEK      0.001500
     28 H6         -2.0940    0.5270    7.5810 ha        1 AEK      0.149000
     29 H6A         0.1130   -1.7010    7.4410 h4        1 AEK      0.137000
     30 H7          1.1410   -2.2270    9.5040 h1        1 AEK      0.048033
     31 H7A        -0.4750   -2.5640   10.2770 h1        1 AEK      0.048033
     32 H8          0.6400   -1.3150   11.0040 h1        1 AEK      0.048033
     33 H10         4.5390   -2.0970    3.5450 hc        1 AEK      0.028700
     34 H10A        4.8650   -5.1480    3.9760 hc        1 AEK      0.065700
     35 H17        -1.8930   -0.6630    1.8000 ha        1 AEK      0.189000
     36 H1          2.0990    2.1500    1.4800 hn        1 AEK      0.265700
     37 H1A         4.0870    1.1460    3.7390 h4        1 AEK      0.076300
     38 H9          5.8590   -3.1380    2.8670 hc        1 AEK      0.028700
     39 H9A         4.1430   -3.3970    2.3450 hc        1 AEK      0.028700
     40 H11         5.3200   -3.8760    5.1760 hc        1 AEK      0.065700
     41 H11A        2.4680   -4.2820    4.0130 hc        1 AEK      0.081700
     42 H12         3.0650   -5.0230    5.5570 hc        1 AEK      0.081700
     43 H12A        4.0320   -0.2840    5.0080 h4        1 AEK      0.076300
     44 H14        -3.6540   -1.3980    6.9020 hn        1 AEK      0.472800
     45 HN5        -5.6170   -2.4070    5.9640 h5        1 AEK      0.073800
     46 HN2         0.3430    0.6090    5.3460 ha        1 AEK      0.129000
     47 H23         1.8900   -0.8570    4.2090 hn        1 AEK      0.337700
     48 H24         2.6620    0.6890    0.9470 hn        1 AEK      0.265700
     49 H32         2.2760   -1.1410    6.8270 ha        1 AEK      0.173500
     50 O1         -4.0780   -1.8660    1.8830 o         1 AEK     -0.500100
@<TRIPOS>BOND
     1    1   13 1   
     2    1   36 1   
     3    1   48 1   
     4    2    5 1   
     5    2    6 1   
     6    2   25 1   
     7    3    4 1   
     8    3    9 ar  
     9    3   15 ar  
    10    4    5 2   
    11    4   28 1   
    12    5   29 1   
    13    6   30 1   
    14    6   31 1   
    15    6   32 1   
    16    7   18 3   
    17    7   49 1   
    18    8   16 1   
    19    8   17 1   
    20    8   34 1   
    21    8   40 1   
    22    9   19 1   
    23    9   22 ar  
    24   10   21 1   
    25   10   22 1   
    26   10   50 2   
    27   11   22 ar  
    28   11   23 ar  
    29   11   35 1   
    30   12   14 2   
    31   12   37 1   
    32   12   43 1   
    33   13   14 1   
    34   13   24 2   
    35   14   47 1   
    36   15   23 ar  
    37   15   46 1   
    38   16   33 1   
    39   16   38 1   
    40   16   39 1   
    41   17   18 1   
    42   17   41 1   
    43   17   42 1   
    44   19   20 1   
    45   19   44 1   
    46   20   21 2   
    47   20   45 1   
    48   23   24 1   
    49   26   27 1   
@<TRIPOS>SUBSTRUCTURE
     1 AEK         1 TEMP              0 ****  ****    0 ROOT
