@<TRIPOS>MOLECULE
AEK
   51    51     1     0     0
SMALL
bcc


@<TRIPOS>ATOM
      1 N1       -196.3350  155.1730 -171.1780 n3        1 AEK     -0.362500
      2 N3        336.2400 -263.0800  299.3040 n4        1 AEK     -0.049000
      3 C4       -199.9420  153.1340 -170.3340 c2        1 AEK      0.068000
      4 C5       -199.6900  152.1610 -171.4030 c3        1 AEK     -0.138000
      5 C6       -198.5430  152.5410 -172.3060 c3        1 AEK     -0.212000
      6 C7        336.1790 -263.7350  300.6550 c3        1 AEK      0.017000
      7 C8        335.8890 -265.1350  300.5530 c1        1 AEK     -0.318000
      8 C10       336.4830 -261.5890  299.3960 c3        1 AEK     -0.065000
      9 C13      -200.8780  152.8930 -169.2060 c2        1 AEK      0.059000
     10 C15      -201.4380  153.8000 -166.9410 c2        1 AEK      0.312000
     11 C17      -199.8530  154.9490 -168.7470 cx        1 AEK     -0.041000
     12 C1       -192.6590  156.2080 -170.6580 c1        1 AEK     -0.028000
     13 C2       -196.1730  155.4520 -169.8410 c2        1 AEK      0.324000
     14 N2       -194.9710  155.8150 -169.3520 n3        1 AEK     -0.362500
     15 C3       -199.3730  154.3480 -170.0760 cu        1 AEK     -0.262000
     16 C9        335.2010 -260.8350  299.7210 c3        1 AEK     -0.253500
     17 C11       337.0860 -261.0670  298.0980 c3        1 AEK     -0.253500
     18 C12       335.6510 -266.3080  300.5480 c1        1 AEK     -0.014000
     19 N4       -201.7480  151.8480 -169.0140 na        1 AEK     -0.269000
     20 C14      -202.4230  151.8150 -167.7790 c2        1 AEK      0.097000
     21 N5       -202.3080  152.6740 -166.8080 n2        1 AEK     -0.208000
     22 C16      -200.6860  153.8700 -168.2070 c2        1 AEK     -0.201000
     23 C18      -198.4120  154.9320 -169.2130 cu        1 AEK      0.176000
     24 N6       -197.2620  155.3860 -168.9080 n2        1 AEK     -0.177000
     25 HN3       335.3570 -263.2470  298.8080 hn        1 AEK      0.248000
     26 H5       -198.4620  151.8060 -173.1440 hc        1 AEK      0.084667
     27 H5A      -199.4930  151.1490 -170.9470 hc        1 AEK      0.122000
     28 H6       -200.6320  152.0650 -172.0170 hc        1 AEK      0.122000
     29 H6A      -197.5780  152.5390 -171.7430 hc        1 AEK      0.084667
     30 H7       -198.7040  153.5580 -172.7410 hc        1 AEK      0.084667
     31 H7A       335.3780 -263.2090  301.2580 hx        1 AEK      0.158500
     32 H8        337.1780 -263.5760  301.1630 hx        1 AEK      0.158500
     33 H10       334.4450 -260.9420  298.9050 hc        1 AEK      0.119500
     34 H10A      337.2290 -261.4420  300.2360 hx        1 AEK      0.147000
     35 H17      -200.2510  155.9720 -168.5780 hc        1 AEK      0.212000
     36 H1       -195.5890  155.2760 -171.8240 hn        1 AEK      0.280250
     37 H1A      -192.4480  156.1030 -171.7290 ha        1 AEK      0.088500
     38 H9        334.7510 -261.1750  300.6850 hc        1 AEK      0.119500
     39 H9A       335.4520 -259.7480  299.8210 hc        1 AEK      0.119500
     40 H11       336.3780 -261.1800  297.2420 hc        1 AEK      0.119500
     41 H11A      338.0480 -261.5820  297.8520 hc        1 AEK      0.119500
     42 H12       337.3030 -259.9760  298.2290 hc        1 AEK      0.119500
     43 H12A      335.4390 -267.3540  300.5430 ha        1 AEK      0.259000
     44 H14      -201.9090  151.1700 -169.7210 hn        1 AEK      0.265000
     45 HN5      -203.1170  150.9530 -167.6490 h5        1 AEK      0.207000
     46 HN2      -194.8980  156.0050 -168.3740 hn        1 AEK      0.280250
     47 H23      -194.0790  155.9440 -169.9560 hn        1 AEK      0.280250
     48 H24      -197.2290  154.9050 -171.5280 hn        1 AEK      0.280250
     49 H121     -191.8070  156.5230 -170.0440 ha        1 AEK      0.088500
     50 H32       336.9950 -263.5090  298.7570 hn        1 AEK      0.248000
     51 O1       -201.3320  154.6490 -166.0490 o         1 AEK     -0.253000
@<TRIPOS>BOND
     1    1   13 1   
     2    1   36 1   
     3    1   48 1   
     4    2    6 1   
     5    2    8 1   
     6    2   25 1   
     7    2   50 1   
     8    3    4 1   
     9    3    9 1   
    10    3   15 1   
    11    4    5 1   
    12    4   27 1   
    13    4   28 1   
    14    5   26 1   
    15    5   29 1   
    16    5   30 1   
    17    6    7 1   
    18    6   31 1   
    19    6   32 1   
    20    7   18 1   
    21    8   16 1   
    22    8   17 1   
    23    8   34 1   
    24    9   19 1   
    25    9   22 1   
    26   10   21 1   
    27   10   22 1   
    28   10   51 1   
    29   11   15 1   
    30   11   22 1   
    31   11   23 1   
    32   11   35 1   
    33   12   37 1   
    34   12   49 1   
    35   13   14 1   
    36   13   24 1   
    37   14   46 1   
    38   14   47 1   
    39   15   23 1   
    40   16   33 1   
    41   16   38 1   
    42   16   39 1   
    43   17   40 1   
    44   17   41 1   
    45   17   42 1   
    46   18   43 1   
    47   19   20 1   
    48   19   44 1   
    49   20   21 1   
    50   20   45 1   
    51   23   24 1   
@<TRIPOS>SUBSTRUCTURE
     1 AEK         1 TEMP              0 ****  ****    0 ROOT
