@<TRIPOS>MOLECULE
AEK
   49    45     1     0     0
SMALL
bcc


@<TRIPOS>ATOM
      1 N1          1.6330    2.1130   -5.9540 n3        1 AEK     -0.251000
      2 N3          0.9670    0.1210    1.7350 n3        1 AEK     -0.308000
      3 C4         -0.5320    0.5840   -1.7250 c1        1 AEK     -0.062000
      4 C5          0.1790    1.0180   -0.4180 c3        1 AEK     -0.119000
      5 C6          0.6600   -0.2360    0.3490 c3        1 AEK     -0.074000
      6 C7          1.1160   -1.0810    2.5180 c3        1 AEK     -0.068000
      7 C8          0.8680   -0.7680    3.9620 c3        1 AEK     -0.111000
      8 C10         0.3600   -1.8680    6.0490 c3        1 AEK     -0.157000
      9 C13        -1.8350    0.0820   -1.6260 c1        1 AEK      0.040000
     10 C15        -4.0550   -0.5030   -2.6230 c1        1 AEK      0.344000
     11 C17        -2.0880    0.3180   -3.9960 c1        1 AEK     -0.012000
     12 C1          2.4960    3.2460   -6.1270 c3        1 AEK     -0.117000
     13 C2          1.1190    1.8060   -4.6730 c2        1 AEK      0.116000
     14 N2          1.1610    1.5620   -3.3300 n2        1 AEK     -0.248000
     15 C3         -0.0180    0.9510   -2.9710 c1        1 AEK      0.005000
     16 C9         -0.0660   -1.5980    4.4660 c3        1 AEK     -0.157000
     17 C11         1.7480   -1.9340    6.0740 c3        1 AEK     -0.157000
     18 C12         2.2230   -1.0610    4.8510 c3        1 AEK     -0.157000
     19 N4         -2.3900   -0.2670   -0.3130 n2        1 AEK     -0.196000
     20 C14        -3.7660   -0.7260   -0.2040 c1        1 AEK      0.064000
     21 N5         -4.5780   -0.8360   -1.3720 n1        1 AEK     -0.343000
     22 O1         -4.7030   -0.7300   -3.6260 o         1 AEK     -0.347000
     23 C16        -2.6030   -0.0500   -2.7450 c1        1 AEK     -0.177000
     24 C18        -0.7870    0.8200   -4.0960 c1        1 AEK     -0.067000
     25 N6         -0.0870    1.3470   -5.1510 n1        1 AEK     -0.173000
     26 HN3         0.2930    0.6200    2.0750 hn        1 AEK      0.153000
     27 H5         -0.4450    1.5240    0.1430 hc        1 AEK      0.101500
     28 H5A         0.9460    1.5800   -0.6380 hc        1 AEK      0.101500
     29 H6         -0.0220   -0.8930    0.3370 h1        1 AEK      0.073500
     30 H6A         1.4570   -0.5900   -0.0770 h1        1 AEK      0.073500
     31 H7          2.0070   -1.4230    2.4140 h1        1 AEK      0.070000
     32 H7A         0.4470   -1.7760    2.2020 h1        1 AEK      0.070000
     33 H8          0.5910    0.1500    4.0640 hc        1 AEK      0.101000
     34 H10        -0.0340   -2.7400    6.3700 hc        1 AEK      0.080000
     35 H10A        0.0430   -1.1160    6.6220 hc        1 AEK      0.080000
     36 H17        -2.6560    0.2980   -4.7730 ha        1 AEK      0.176000
     37 H1          2.0370    4.0650   -5.8000 h1        1 AEK      0.085000
     38 H1A         2.7100    3.3500   -7.0740 h1        1 AEK      0.085000
     39 H9         -0.0710   -2.4260    3.9800 hc        1 AEK      0.081250
     40 H9A        -0.9470   -1.1780    4.4220 hc        1 AEK      0.081250
     41 H11         2.0430   -2.8520    5.9650 hc        1 AEK      0.080000
     42 H11A        2.0960   -1.5590    6.9220 hc        1 AEK      0.080000
     43 H12         2.8720   -1.5500    4.3230 hc        1 AEK      0.081250
     44 H12A        2.6100   -0.2140    5.1690 hc        1 AEK      0.081250
     45 H14        -4.1320   -0.9570    0.6620 ha        1 AEK      0.180000
     46 HN5        -5.4360   -1.1240   -1.3020 hn        1 AEK      0.251000
     47 HN2         1.8380    1.8240   -2.7480 DU        1 AEK      0.264000
     48 H23         1.3870    1.5760   -6.7110 hn        1 AEK      0.216000
     49 H24         3.3410    3.1050   -5.6070 h1        1 AEK      0.085000
@<TRIPOS>BOND
     1    1   12 1   
     2    1   13 1   
     3    1   48 1   
     4    2    5 1   
     5    2    6 1   
     6    2   26 1   
     7    3    4 1   
     8    3   15 1   
     9    4    5 1   
    10    4   27 1   
    11    4   28 1   
    12    5   29 1   
    13    5   30 1   
    14    6    7 1   
    15    6   31 1   
    16    6   32 1   
    17    7   16 1   
    18    7   18 1   
    19    7   33 1   
    20    8   16 1   
    21    8   17 1   
    22    8   34 1   
    23    8   35 1   
    24    9   19 1   
    25    9   23 1   
    26   10   22 1   
    27   10   23 1   
    28   11   24 1   
    29   11   36 1   
    30   12   37 1   
    31   12   38 1   
    32   12   49 1   
    33   13   14 1   
    34   13   25 1   
    35   14   15 1   
    36   16   39 1   
    37   16   40 1   
    38   17   18 1   
    39   17   41 1   
    40   17   42 1   
    41   18   43 1   
    42   18   44 1   
    43   19   20 1   
    44   20   45 1   
    45   21   46 1   
@<TRIPOS>SUBSTRUCTURE
     1 AEK         1 TEMP              0 ****  ****    0 ROOT
