@<TRIPOS>MOLECULE
AEK
   49    52     1     0     0
SMALL
bcc


@<TRIPOS>ATOM
      1 N1          1.5320    4.5510    0.5540 nh        1 AEK     -0.765200
      2 N3         -2.6410   -0.4330   -0.4530 n3        1 AEK     -0.828200
      3 C4          1.1230   -0.2510   -0.5660 ca        1 AEK     -0.069300
      4 C5         -0.2480   -0.4150   -1.1180 c3        1 AEK     -0.033100
      5 C6         -1.2720   -0.5100    0.0180 c3        1 AEK      0.162800
      6 C7         -3.6110   -0.7100    0.5890 c3        1 AEK      0.168800
      7 C8         -5.0290   -0.9210    0.0590 c3        1 AEK     -0.068700
      8 C10        -7.3230   -0.5740    0.8530 c3        1 AEK     -0.079900
      9 C13         2.0260   -1.3270   -0.4020 ca        1 AEK      0.179400
     10 C15         4.2720   -2.2260    0.2700 c         1 AEK      0.707100
     11 C17         3.7880    0.1810    0.4860 ca        1 AEK     -0.012000
     12 C1          0.7560    5.2120   -0.4620 c3        1 AEK      0.159100
     13 C2          1.8830    3.2020    0.3170 cc        1 AEK      0.594700
     14 N2          0.9500    2.2660   -0.2370 na        1 AEK     -0.291300
     15 C3          1.5760    1.0150   -0.1820 ca        1 AEK     -0.040200
     16 C9         -5.9950   -1.2320    1.2030 c3        1 AEK     -0.073900
     17 C11        -7.0710    0.3820   -0.3070 c3        1 AEK     -0.079900
     18 C12        -5.5890    0.3090   -0.6500 c3        1 AEK     -0.073900
     19 N4          1.6240   -2.6300   -0.7480 nc        1 AEK     -0.623100
     20 C14         2.4820   -3.6060   -0.5910 cd        1 AEK      0.487800
     21 N5          3.7790   -3.4890   -0.1050 n         1 AEK     -0.503400
     22 C16         3.3410   -1.0880    0.1150 ca        1 AEK     -0.197600
     23 C18         2.9100    1.2520    0.3470 ca        1 AEK      0.072400
     24 N6          3.0760    2.6210    0.6360 nd        1 AEK     -0.600100
     25 HN3        -2.7780   -1.0460   -1.2360 hn        1 AEK      0.356800
     26 H5         -0.4900    0.4600   -1.7810 hc        1 AEK      0.062200
     27 H5A        -0.3160   -1.3310   -1.7620 hc        1 AEK      0.062200
     28 H6         -1.1170    0.3500    0.7300 h1        1 AEK      0.034200
     29 H6A        -1.0670   -1.4600    0.5960 h1        1 AEK      0.034200
     30 H7         -3.3320   -1.6210    1.1990 h1        1 AEK      0.031200
     31 H7A        -3.6050    0.1730    1.2900 h1        1 AEK      0.031200
     32 H8         -5.0280   -1.7880   -0.6580 hc        1 AEK      0.045700
     33 H10        -8.0770   -1.3470    0.5620 hc        1 AEK      0.039950
     34 H10A       -7.7340   -0.0260    1.7370 hc        1 AEK      0.039950
     35 H17         4.8090    0.3180    0.8770 ha        1 AEK      0.176000
     36 H1         -0.2660    4.7510   -0.5150 h1        1 AEK      0.045700
     37 H1A         0.6430    6.2880   -0.1640 h1        1 AEK      0.045700
     38 H9         -6.1130   -2.3360    1.3310 hc        1 AEK      0.044450
     39 H9A        -5.6030   -0.8230    2.1690 hc        1 AEK      0.044450
     40 H11        -7.6920    0.0910   -1.1910 hc        1 AEK      0.039950
     41 H11A       -7.3590    1.4270   -0.0300 hc        1 AEK      0.039950
     42 H12        -5.0630    1.2330   -0.3000 hc        1 AEK      0.044450
     43 H12A       -5.4320    0.2350   -1.7540 hc        1 AEK      0.044450
     44 H14         2.1550   -4.6310   -0.8670 h5        1 AEK      0.050800
     45 HN5         4.3660   -4.2860   -0.0200 hn        1 AEK      0.338500
     46 HN2        -0.0210    2.4090   -0.3380 hn        1 AEK      0.312700
     47 H23         2.3320    5.0850    0.8460 hn        1 AEK      0.420800
     48 H24         1.2210    5.1670   -1.4840 h1        1 AEK      0.045700
     49 O1          5.4360   -2.1420    0.7010 o         1 AEK     -0.621500
@<TRIPOS>BOND
     1    1   12 1   
     2    1   13 1   
     3    1   47 1   
     4    2    5 1   
     5    2    6 1   
     6    2   25 1   
     7    3    4 1   
     8    3    9 ar  
     9    3   15 ar  
    10    4    5 1   
    11    4   26 1   
    12    4   27 1   
    13    5   28 1   
    14    5   29 1   
    15    6    7 1   
    16    6   30 1   
    17    6   31 1   
    18    7   16 1   
    19    7   18 1   
    20    7   32 1   
    21    8   16 1   
    22    8   17 1   
    23    8   33 1   
    24    8   34 1   
    25    9   19 1   
    26    9   22 ar  
    27   10   21 1   
    28   10   22 1   
    29   10   49 2   
    30   11   22 ar  
    31   11   23 ar  
    32   11   35 1   
    33   12   36 1   
    34   12   37 1   
    35   12   48 1   
    36   13   14 1   
    37   13   24 2   
    38   14   15 1   
    39   14   46 1   
    40   15   23 ar  
    41   16   38 1   
    42   16   39 1   
    43   17   18 1   
    44   17   40 1   
    45   17   41 1   
    46   18   42 1   
    47   18   43 1   
    48   19   20 2   
    49   20   21 1   
    50   20   44 1   
    51   21   45 1   
    52   23   24 1   
@<TRIPOS>SUBSTRUCTURE
     1 AEK         1 TEMP              0 ****  ****    0 ROOT
