@<TRIPOS>MOLECULE
AEM
   10     7     1     0     0
SMALL
bcc


@<TRIPOS>ATOM
      1 C1          0.6440    0.0000   -0.8780 c1        1 AEM      0.317300
      2 N1          1.9530    0.0000   -0.8780 n1        1 AEM     -0.554800
      3 C2         -0.1120    0.0000    0.4320 c2        1 AEM      0.207100
      4 N2         -1.5140   -0.0000    0.1710 nh        1 AEM     -0.498100
      5 HA          0.1560    0.0000   -1.7240 ha        1 AEM      0.101500
      6 H1          2.4090    0.0000   -0.0880 DU        1 AEM      0.132000
      7 H2C1        0.1230    0.7970    0.9440 h4        1 AEM     -0.052200
      8 H2C2        0.1240   -0.7970    0.9440 h4        1 AEM     -0.052200
      9 H2N1       -1.8920    0.7440    0.5380 hn        1 AEM      0.200700
     10 H2N2       -1.8910   -0.7450    0.5390 hn        1 AEM      0.200700
@<TRIPOS>BOND
     1    1    2 3   
     2    1    5 1   
     3    3    4 2   
     4    3    7 1   
     5    3    8 1   
     6    4    9 1   
     7    4   10 1   
@<TRIPOS>SUBSTRUCTURE
     1 AEM         1 TEMP              0 ****  ****    0 ROOT
