@<TRIPOS>MOLECULE
AEM
   11    10     1     0     0
SMALL
bcc


@<TRIPOS>ATOM
      1 C1          0.0930    0.0820    0.0330 c2        1 AEM      0.376200
      2 N1          1.3430   -0.0700   -0.1110 n2        1 AEM     -0.647100
      3 C2         -0.7200    0.0420    1.3170 c3        1 AEM     -0.013500
      4 N2         -1.6790    1.1790    1.4050 nz        1 AEM     -0.829600
      5 HA         -0.5130    0.2070   -0.8920 h4        1 AEM      0.044800
      6 H1          1.9230   -0.2110    0.6900 hn        1 AEM      0.422400
      7 H2C1       -1.3120   -0.9220    1.3370 hx        1 AEM      0.123200
      8 H2C2       -0.0620    0.0760    2.2340 hx        1 AEM      0.123200
      9 H2N1       -2.3060    1.1760    0.5920 hn        1 AEM      0.466467
     10 H2N2       -2.2410    1.0990    2.2590 hn        1 AEM      0.466467
     11 H23        -1.1710    2.0700    1.4210 hn        1 AEM      0.466467
@<TRIPOS>BOND
     1    1    2 2   
     2    1    3 1   
     3    1    5 1   
     4    2    6 1   
     5    3    4 1   
     6    3    7 1   
     7    3    8 1   
     8    4    9 1   
     9    4   10 1   
    10    4   11 1   
@<TRIPOS>SUBSTRUCTURE
     1 AEM         1 TEMP              0 ****  ****    0 ROOT
