@<TRIPOS>MOLECULE
AEM
   10     9     1     0     0
SMALL
bcc


@<TRIPOS>ATOM
      1 C1          0.1920   -0.2990   -0.7370 c2        1 AEM      0.385200
      2 N1         -0.7680    0.3860   -1.2270 n2        1 AEM     -0.778100
      3 C2          0.5470   -0.2980    0.7380 c3        1 AEM      0.101500
      4 N2         -0.2290    0.5100    1.6350 n3        1 AEM     -0.895800
      5 HA          0.8660   -0.9630   -1.3250 h4        1 AEM     -0.040200
      6 H1         -0.9030    0.3020   -2.2130 hn        1 AEM      0.387400
      7 H2C1        1.6240    0.0300    0.8120 h1        1 AEM      0.063700
      8 H2C2        0.4860   -1.3690    1.0880 h1        1 AEM      0.063700
      9 H2N1       -0.1780    1.4780    1.3830 hn        1 AEM      0.355800
     10 H2N2       -1.1920    0.2320    1.6280 hn        1 AEM      0.355800
@<TRIPOS>BOND
     1    1    2 2   
     2    1    3 1   
     3    1    5 1   
     4    2    6 1   
     5    3    4 1   
     6    3    7 1   
     7    3    8 1   
     8    4    9 1   
     9    4   10 1   
@<TRIPOS>SUBSTRUCTURE
     1 AEM         1 TEMP              0 ****  ****    0 ROOT
