@<TRIPOS>MOLECULE
AEM
   11    10     1     0     0
SMALL
bcc


@<TRIPOS>ATOM
      1 C1          0.0840    0.0450    0.0410 c2        1 AEM      0.376200
      2 N1          1.3320   -0.1100   -0.1100 n2        1 AEM     -0.647100
      3 C2         -0.7150    0.0580    1.3340 c3        1 AEM     -0.013500
      4 N2         -1.6760    1.1950    1.3850 n4        1 AEM     -0.829600
      5 HA         -0.5320    0.1300   -0.8820 h4        1 AEM      0.044800
      6 H1          1.9220   -0.2150    0.6890 hn        1 AEM      0.422400
      7 H2C1       -1.3040   -0.9060    1.4010 hx        1 AEM      0.123200
      8 H2C2       -0.0470    0.1320    2.2420 hx        1 AEM      0.123200
      9 H2N1       -2.2290    1.1510    2.2480 hn        1 AEM      0.466467
     10 H2N2       -1.1700    2.0870    1.3570 hn        1 AEM      0.466467
     11 H23        -2.3110    1.1580    0.5790 hn        1 AEM      0.466467
@<TRIPOS>BOND
     1    1    2 2   
     2    1    3 1   
     3    1    5 1   
     4    2    6 1   
     5    3    4 1   
     6    3    7 1   
     7    3    8 1   
     8    4    9 1   
     9    4   10 1   
    10    4   11 1   
@<TRIPOS>SUBSTRUCTURE
     1 AEM         1 TEMP              0 ****  ****    0 ROOT
