@<TRIPOS>MOLECULE
AEM
   11    10     1     0     0
SMALL
bcc


@<TRIPOS>ATOM
      1 C1          0.0820    0.0420    0.0420 c2        1 AEM      0.376200
      2 N1          1.3300   -0.1200   -0.1100 n2        1 AEM     -0.647100
      3 C2         -0.7170    0.0590    1.3350 c3        1 AEM     -0.013500
      4 N2         -1.6730    1.2000    1.3840 n4        1 AEM     -0.829600
      5 HA         -0.5340    0.1290   -0.8810 h4        1 AEM      0.044800
      6 H1          1.9190   -0.2280    0.6890 hn        1 AEM      0.422400
      7 H2C1       -1.3090   -0.9020    1.4030 hx        1 AEM      0.123200
      8 H2C2       -0.0480    0.1320    2.2420 hx        1 AEM      0.123200
      9 H2N1       -2.3090    1.1640    0.5790 hn        1 AEM      0.466467
     10 H2N2       -2.2250    1.1590    2.2480 hn        1 AEM      0.466467
     11 H23        -1.1630    2.0910    1.3550 hn        1 AEM      0.466467
@<TRIPOS>BOND
     1    1    2 2   
     2    1    3 1   
     3    1    5 1   
     4    2    6 1   
     5    3    4 1   
     6    3    7 1   
     7    3    8 1   
     8    4    9 1   
     9    4   10 1   
    10    4   11 1   
@<TRIPOS>SUBSTRUCTURE
     1 AEM         1 TEMP              0 ****  ****    0 ROOT
