@<TRIPOS>MOLECULE
AEN
   37    38     1     0     0
SMALL
bcc


@<TRIPOS>ATOM
      1 C1          0.3440    0.9860    2.2980 ca        1 AEN     -0.282500
      2 C2          1.6210    0.5820    1.9920 ca        1 AEN     -0.038000
      3 C3          2.0290   -0.7600    2.2050 ca        1 AEN     -0.144000
      4 C4          1.1940   -1.6280    2.8660 ca        1 AEN     -0.106000
      5 C5         -1.0220   -1.9960    4.0190 ca        1 AEN      0.033600
      6 C6         -2.3880   -1.7590    3.9550 ca        1 AEN     -0.174000
      7 C7         -2.8860   -0.6730    3.1990 ca        1 AEN     -0.145000
      8 C8         -2.0220    0.2390    2.6450 ca        1 AEN     -0.113000
      9 C9         -0.6170    0.0060    2.6820 ca        1 AEN     -0.002000
     10 C10        -0.1380   -1.2340    3.1730 ca        1 AEN     -0.073000
     11 C1'        -1.2170    2.4720    6.6200 c3        1 AEN     -0.183100
     12 C2'        -0.7230    1.1030    6.9360 c         1 AEN      0.565100
     13 O2'        -0.7010    0.5520    8.0310 o         1 AEN     -0.482100
     14 N3'        -0.1820    0.3340    5.7630 n4        1 AEN     -0.689800
     15 C4'         0.6340   -0.8610    6.1110 c3        1 AEN      0.109800
     16 C5'        -0.1500   -2.1830    6.2400 c3        1 AEN      0.153800
     17 N6'        -0.4230   -2.8650    4.9810 nh        1 AEN     -0.703600
     18 S           0.0170    2.6890    2.6610 s6        1 AEN      1.479100
     19 O1S        -0.0480    2.5550    4.1100 o         1 AEN     -0.741867
     20 O2S         1.1350    3.4050    2.2280 o         1 AEN     -0.741867
     21 O3S        -1.2250    3.0300    2.1190 o         1 AEN     -0.741867
     22 H2          2.3570    1.3230    1.6300 ha        1 AEN      0.170000
     23 H3          3.0330   -1.0760    1.8850 ha        1 AEN      0.139000
     24 H4          1.5290   -2.6400    3.1420 ha        1 AEN      0.148000
     25 H6         -3.0990   -2.3860    4.5140 ha        1 AEN      0.135000
     26 H7         -3.9750   -0.5430    3.1050 ha        1 AEN      0.145000
     27 H8         -2.3910    1.1590    2.1500 ha        1 AEN      0.202000
     28 H1'1       -1.9580    2.4520    5.7790 hc        1 AEN      0.118700
     29 H1'2       -1.6770    2.9160    7.5360 hc        1 AEN      0.118700
     30 H1'3       -0.3640    3.1140    6.2580 hc        1 AEN      0.118700
     31 HN'3       -0.9840    0.0590    5.1730 hn        1 AEN      0.500300
     32 H4'1        1.4260   -0.9680    5.3110 hx        1 AEN      0.109200
     33 H4'2        1.1340   -0.6610    7.1010 hx        1 AEN      0.109200
     34 H5'1       -1.0870   -1.9870    6.8410 h1        1 AEN      0.059700
     35 H5'2        0.5030   -2.8800    6.8400 h1        1 AEN      0.059700
     36 HN'6       -0.9920   -3.6750    5.1480 hn        1 AEN      0.386800
     37 H3'2        0.3710    1.0140    5.1740 hn        1 AEN      0.500300
@<TRIPOS>BOND
     1    1    2 ar  
     2    1    9 ar  
     3    1   18 1   
     4    2    3 ar  
     5    2   22 1   
     6    3    4 ar  
     7    3   23 1   
     8    4   10 ar  
     9    4   24 1   
    10    5    6 ar  
    11    5   10 ar  
    12    5   17 1   
    13    6    7 ar  
    14    6   25 1   
    15    7    8 ar  
    16    7   26 1   
    17    8    9 ar  
    18    8   27 1   
    19    9   10 ar  
    20   11   12 1   
    21   11   28 1   
    22   11   29 1   
    23   11   30 1   
    24   12   13 2   
    25   12   14 1   
    26   14   15 1   
    27   14   31 1   
    28   14   37 1   
    29   15   16 1   
    30   15   32 1   
    31   15   33 1   
    32   16   17 1   
    33   16   34 1   
    34   16   35 1   
    35   17   36 1   
    36   18   19 1   
    37   18   20 1   
    38   18   21 1   
@<TRIPOS>SUBSTRUCTURE
     1 AEN         1 TEMP              0 ****  ****    0 ROOT
