@<TRIPOS>MOLECULE
AEN
   38    39     1     0     0
SMALL
bcc


@<TRIPOS>ATOM
      1 C1          0.9640   -0.8820    2.4470 ca        1 AEN     -0.211500
      2 C2          2.2660   -0.4680    2.5690 ca        1 AEN     -0.052000
      3 C3          2.5630    0.8490    3.0080 ca        1 AEN     -0.059000
      4 C4          1.5520    1.6560    3.4820 ca        1 AEN     -0.201000
      5 C5         -0.9290    1.9010    3.9380 ca        1 AEN     -0.143400
      6 C6         -2.2180    1.6980    3.4540 ca        1 AEN     -0.066000
      7 C7         -2.4310    0.7030    2.4830 ca        1 AEN     -0.161000
      8 C8         -1.4060   -0.1500    2.1230 ca        1 AEN     -0.024000
      9 C9         -0.0880    0.0620    2.6110 ca        1 AEN     -0.014000
     10 C10         0.1990    1.2450    3.3460 ca        1 AEN     -0.053000
     11 C1'        -1.7450   -2.8010    6.3730 c3        1 AEN     -0.199100
     12 C2'        -1.6250   -1.3320    6.5680 c         1 AEN      0.581100
     13 O2'        -2.2690   -0.5970    7.3060 o         1 AEN     -0.479100
     14 N3'        -0.5570   -0.6520    5.7340 n4        1 AEN     -0.697800
     15 C4'         0.0510    0.5480    6.3540 c3        1 AEN      0.105800
     16 C5'        -0.8060    1.8260    6.3700 c3        1 AEN      0.092800
     17 N6'        -0.7080    2.6920    5.1470 n4        1 AEN     -0.619400
     18 S           0.5450   -2.6440    2.5860 s6        1 AEN      1.489100
     19 O1S         1.7480   -3.3150    2.4640 o         1 AEN     -0.730533
     20 O2S         0.0610   -2.5470    3.9520 o         1 AEN     -0.730533
     21 O3S        -0.4930   -2.8710    1.6920 o         1 AEN     -0.730533
     22 H2          3.0920   -1.1800    2.3710 ha        1 AEN      0.194000
     23 H3          3.6090    1.1950    3.0150 ha        1 AEN      0.162000
     24 H4          1.7980    2.6450    3.8950 ha        1 AEN      0.123000
     25 H6         -3.0790    2.2730    3.8310 ha        1 AEN      0.155000
     26 H7         -3.4370    0.5870    2.0450 ha        1 AEN      0.180000
     27 H8         -1.5910   -1.0170    1.4480 ha        1 AEN      0.232000
     28 H1'1       -1.0390   -3.3200    7.0750 hc        1 AEN      0.134700
     29 H1'2       -2.7940   -3.1100    6.6150 hc        1 AEN      0.134700
     30 H1'3       -1.4830   -3.1230    5.3230 hc        1 AEN      0.134700
     31 HN'3        0.1820   -1.3740    5.5080 hn        1 AEN      0.508300
     32 H4'1        1.0340    0.7410    5.8240 hx        1 AEN      0.126200
     33 H4'2        0.2690    0.2960    7.4360 hx        1 AEN      0.126200
     34 H5'1       -0.4600    2.4520    7.2460 hx        1 AEN      0.129200
     35 H5'2       -1.8970    1.5680    6.5250 hx        1 AEN      0.129200
     36 HN'6        0.2250    3.1240    5.1020 hn        1 AEN      0.462300
     37 H3'2       -0.9700   -0.4280    4.8120 hn        1 AEN      0.508300
     38 H6'2       -1.4130    3.4370    5.2140 hn        1 AEN      0.462300
@<TRIPOS>BOND
     1    1    2 ar  
     2    1    9 ar  
     3    1   18 1   
     4    2    3 ar  
     5    2   22 1   
     6    3    4 ar  
     7    3   23 1   
     8    4   10 ar  
     9    4   24 1   
    10    5    6 ar  
    11    5   10 ar  
    12    5   17 1   
    13    6    7 ar  
    14    6   25 1   
    15    7    8 ar  
    16    7   26 1   
    17    8    9 ar  
    18    8   27 1   
    19    9   10 ar  
    20   11   12 1   
    21   11   28 1   
    22   11   29 1   
    23   11   30 1   
    24   12   13 2   
    25   12   14 1   
    26   14   15 1   
    27   14   31 1   
    28   14   37 1   
    29   15   16 1   
    30   15   32 1   
    31   15   33 1   
    32   16   17 1   
    33   16   34 1   
    34   16   35 1   
    35   17   36 1   
    36   17   38 1   
    37   18   19 1   
    38   18   20 1   
    39   18   21 1   
@<TRIPOS>SUBSTRUCTURE
     1 AEN         1 TEMP              0 ****  ****    0 ROOT
