@<TRIPOS>MOLECULE
AEN
   37    38     1     0     0
SMALL
bcc


@<TRIPOS>ATOM
      1 C1          0.3550    0.8370    2.2360 ca        1 AEN     -0.282500
      2 C2          1.6280    0.4030    1.9590 ca        1 AEN     -0.038000
      3 C3          2.0250   -0.9250    2.2630 ca        1 AEN     -0.144000
      4 C4          1.1810   -1.7400    2.9790 ca        1 AEN     -0.106000
      5 C5         -1.0380   -2.0110    4.1510 ca        1 AEN      0.033600
      6 C6         -2.4020   -1.7670    4.0700 ca        1 AEN     -0.174000
      7 C7         -2.8900   -0.7300    3.2420 ca        1 AEN     -0.145000
      8 C8         -2.0180    0.1360    2.6290 ca        1 AEN     -0.113000
      9 C9         -0.6150   -0.1060    2.6830 ca        1 AEN     -0.002000
     10 C10        -0.1470   -1.3150    3.2580 ca        1 AEN     -0.073000
     11 C1'        -1.2000    2.6230    6.4460 c3        1 AEN     -0.183100
     12 C2'        -0.7150    1.2750    6.8540 c         1 AEN      0.565100
     13 O2'        -0.6970    0.7980    7.9850 o         1 AEN     -0.482100
     14 N3'        -0.1800    0.4230    5.7360 ny        1 AEN     -0.689800
     15 C4'         0.6260   -0.7520    6.1650 c3        1 AEN      0.109800
     16 C5'        -0.1700   -2.0550    6.3810 c3        1 AEN      0.153800
     17 N6'        -0.4470   -2.8180    5.1700 nu        1 AEN     -0.703600
     18 S           0.0420    2.5640    2.4840 s6        1 AEN      1.479100
     19 O1S        -0.0250    2.5280    3.9390 o         1 AEN     -0.741867
     20 O2S         1.1660    3.2400    2.0060 o         1 AEN     -0.741867
     21 O3S        -1.1970    2.8790    1.9180 o         1 AEN     -0.741867
     22 H2          2.3710    1.1120    1.5500 ha        1 AEN      0.170000
     23 H3          3.0260   -1.2700    1.9660 ha        1 AEN      0.139000
     24 H4          1.5080   -2.7330    3.3220 ha        1 AEN      0.148000
     25 H6         -3.1190   -2.3490    4.6680 ha        1 AEN      0.135000
     26 H7         -3.9780   -0.5970    3.1380 ha        1 AEN      0.145000
     27 H8         -2.3780    1.0240    2.0730 ha        1 AEN      0.202000
     28 H1'1       -0.3420    3.2320    6.0420 hc        1 AEN      0.118700
     29 H1'2       -1.6560    3.1300    7.3300 hc        1 AEN      0.118700
     30 H1'3       -1.9420    2.5500    5.6080 hc        1 AEN      0.118700
     31 HN'3       -0.9830    0.1170    5.1650 hn        1 AEN      0.500300
     32 H4'1        1.1270   -0.4900    7.1400 hx        1 AEN      0.109200
     33 H4'2        1.4180   -0.9190    5.3750 hx        1 AEN      0.109200
     34 H5'1        0.4770   -2.7170    7.0270 h1        1 AEN      0.059700
     35 H5'2       -1.1060   -1.8120    6.9660 h1        1 AEN      0.059700
     36 HN'6       -1.0240   -3.6100    5.3900 hn        1 AEN      0.386800
     37 H3'2        0.3790    1.0590    5.1040 hn        1 AEN      0.500300
@<TRIPOS>BOND
     1    1    2 ar  
     2    1    9 ar  
     3    1   18 1   
     4    2    3 ar  
     5    2   22 1   
     6    3    4 ar  
     7    3   23 1   
     8    4   10 ar  
     9    4   24 1   
    10    5    6 ar  
    11    5   10 ar  
    12    5   17 1   
    13    6    7 ar  
    14    6   25 1   
    15    7    8 ar  
    16    7   26 1   
    17    8    9 ar  
    18    8   27 1   
    19    9   10 ar  
    20   11   12 1   
    21   11   28 1   
    22   11   29 1   
    23   11   30 1   
    24   12   13 2   
    25   12   14 1   
    26   14   15 1   
    27   14   31 1   
    28   14   37 1   
    29   15   16 1   
    30   15   32 1   
    31   15   33 1   
    32   16   17 1   
    33   16   34 1   
    34   16   35 1   
    35   17   36 1   
    36   18   19 1   
    37   18   20 1   
    38   18   21 1   
@<TRIPOS>SUBSTRUCTURE
     1 AEN         1 TEMP              0 ****  ****    0 ROOT
