@<TRIPOS>MOLECULE
AEN
   36    31     1     0     0
SMALL
bcc


@<TRIPOS>ATOM
      1 C1          0.0140   -0.5850   -4.0610 c1        1 AEN     -0.216400
      2 C2          1.4020   -0.5550   -4.0790 c1        1 AEN     -0.055750
      3 C3          2.1130   -0.5360   -2.8830 c1        1 AEN     -0.055750
      4 C4          1.4360   -0.5460   -1.6720 c1        1 AEN     -0.063500
      5 C5         -0.6590   -0.6230   -0.4250 c1        1 AEN      0.087800
      6 C6         -2.0460   -0.6890   -0.4070 c1        1 AEN     -0.141500
      7 C7         -2.7570   -0.7090   -1.6030 c1        1 AEN     -0.055750
      8 C8         -2.0800   -0.6620   -2.8150 c1        1 AEN     -0.055750
      9 C9         -0.6740   -0.5950   -2.8340 cg        1 AEN      0.059000
     10 C10         0.0280   -0.5760   -1.6520 cg        1 AEN     -0.070000
     11 C1'         0.9150    2.2180    6.1860 c3        1 AEN     -0.176100
     12 C2'         1.1610    1.1250    5.1700 c         1 AEN      0.652100
     13 O2'         2.0560    0.3230    5.3450 o         1 AEN     -0.609100
     14 N3'         0.3400    1.0310    4.0170 n         1 AEN     -0.564900
     15 C4'         0.6530    0.0920    2.9970 c3        1 AEN      0.073000
     16 C5'        -0.3120    0.2600    1.8450 c3        1 AEN      0.153800
     17 N6'        -0.0230   -0.7040    0.8410 n3        1 AEN     -0.686800
     18 S          -0.6420   -0.6460   -5.7060 s4        1 AEN      1.625200
     19 O1S         0.4590   -0.7860   -6.7300 o         1 AEN     -0.673900
     20 O2S        -1.4220   -1.9170   -5.9380 o         1 AEN     -0.673900
     21 O3S        -1.4890    0.5750   -5.9760 os        1 AEN     -1.063000
     22 H2          1.8790   -0.5760   -4.9310 ha        1 AEN      0.083250
     23 H3          3.0890   -0.5150   -2.8960 ha        1 AEN      0.083250
     24 H4          1.9350   -0.5320   -0.8330 ha        1 AEN      0.049500
     25 H6         -2.5210   -0.7220    0.4440 ha        1 AEN      0.052500
     26 H7         -3.7320   -0.7550   -1.5900 ha        1 AEN      0.083250
     27 H8         -2.5800   -0.6630   -3.6530 ha        1 AEN      0.083250
     28 H1'1        1.0080    3.0930    5.7530 hc        1 AEN      0.062033
     29 H1'2        1.5680    2.1420    6.9120 hc        1 AEN      0.062033
     30 H1'3        0.0100    2.1280    6.5500 hc        1 AEN      0.062033
     31 HN'3       -0.3960    1.5630    3.9370 hn        1 AEN      0.302500
     32 H4'1        0.5780   -0.8170    3.3560 h1        1 AEN      0.067700
     33 H4'2        1.5680    0.2450    2.6820 h1        1 AEN      0.067700
     34 H5'1       -0.2190    1.1600    1.4700 h1        1 AEN      0.036200
     35 H5'2       -1.2290    0.1330    2.1660 h1        1 AEN      0.036200
     36 HN'6        0.5650   -1.3800    1.0130 hn        1 AEN      0.380800
@<TRIPOS>BOND
     1    1    9 3   
     2    1   18 1   
     3    2    3 3   
     4    2   22 1   
     5    3   23 1   
     6    4   10 3   
     7    4   24 1   
     8    5    6 3   
     9    5   17 1   
    10    6   25 1   
    11    7    8 3   
    12    7   26 1   
    13    8   27 1   
    14    9   10 1   
    15   11   12 1   
    16   11   28 1   
    17   11   29 1   
    18   11   30 1   
    19   12   13 2   
    20   12   14 1   
    21   14   15 1   
    22   14   31 1   
    23   15   16 1   
    24   15   32 1   
    25   15   33 1   
    26   16   17 1   
    27   16   34 1   
    28   16   35 1   
    29   17   36 1   
    30   18   19 1   
    31   18   20 1   
@<TRIPOS>SUBSTRUCTURE
     1 AEN         1 TEMP              0 ****  ****    0 ROOT
