@<TRIPOS>MOLECULE
AEN
   36    37     1     0     0
SMALL
bcc


@<TRIPOS>ATOM
      1 C1          0.5100    0.1810   -2.8920 ca        1 AEN     -0.228500
      2 C2          1.8830    0.2470   -2.8530 ca        1 AEN     -0.064000
      3 C3          2.5900    0.0350   -1.6500 ca        1 AEN     -0.150000
      4 C4          1.9110   -0.2240   -0.4840 ca        1 AEN     -0.126000
      5 C5         -0.2650   -0.5280    0.7410 ca        1 AEN      0.107600
      6 C6         -1.6490   -0.6310    0.6660 ca        1 AEN     -0.191000
      7 C7         -2.3190   -0.4810   -0.5660 ca        1 AEN     -0.132000
      8 C8         -1.6250   -0.2130   -1.7150 ca        1 AEN     -0.109000
      9 C9         -0.2040   -0.1040   -1.6950 ca        1 AEN      0.058000
     10 C10         0.4910   -0.2850   -0.4670 ca        1 AEN     -0.073000
     11 C1'        -1.0080    0.5060    7.7810 c3        1 AEN     -0.176100
     12 C2'        -0.0970   -0.0680    6.7210 c         1 AEN      0.654100
     13 O2'         0.6590   -1.0280    6.9710 o         1 AEN     -0.610100
     14 N3'        -0.1090    0.5470    5.4840 n         1 AEN     -0.566900
     15 C4'         0.6020    0.0310    4.3480 c3        1 AEN      0.071000
     16 C5'        -0.3290   -0.3150    3.1610 c3        1 AEN      0.151800
     17 N6'         0.4020   -0.7220    1.9790 nh        1 AEN     -0.705600
     18 S          -0.2980    0.4800   -4.4680 s6        1 AEN      1.454100
     19 O1S         0.7690    0.6940   -5.3700 o         1 AEN     -0.741533
     20 O2S        -1.0480   -0.6870   -4.7290 o         1 AEN     -0.741533
     21 O3S        -1.1030    1.6200   -4.2520 o         1 AEN     -0.741533
     22 H2          2.4440    0.4650   -3.7800 ha        1 AEN      0.160000
     23 H3          3.6890    0.0770   -1.6570 ha        1 AEN      0.111000
     24 H4          2.4970   -0.4020    0.4290 ha        1 AEN      0.104000
     25 H6         -2.2550   -0.8400    1.5600 ha        1 AEN      0.113000
     26 H7         -3.4140   -0.5780   -0.5850 ha        1 AEN      0.119000
     27 H8         -2.1470   -0.0820   -2.6810 ha        1 AEN      0.175000
     28 H1'1       -0.8620   -0.0680    8.7280 hc        1 AEN      0.062033
     29 H1'2       -0.7670    1.5800    7.9660 hc        1 AEN      0.062033
     30 H1'3       -2.0760    0.4200    7.4660 hc        1 AEN      0.062033
     31 HN'3       -0.8030    1.2320    5.3030 hn        1 AEN      0.304500
     32 H4'1        1.3450    0.8170    4.0210 h1        1 AEN      0.065200
     33 H4'2        1.1760   -0.8890    4.6570 h1        1 AEN      0.065200
     34 H5'1       -0.9910   -1.1790    3.4560 h1        1 AEN      0.039200
     35 H5'2       -1.0030    0.5690    2.9520 h1        1 AEN      0.039200
     36 HN'6        1.3250   -0.3310    1.9700 hn        1 AEN      0.376800
@<TRIPOS>BOND
     1    1    2 ar  
     2    1    9 ar  
     3    1   18 1   
     4    2    3 ar  
     5    2   22 1   
     6    3    4 ar  
     7    3   23 1   
     8    4   10 ar  
     9    4   24 1   
    10    5    6 ar  
    11    5   10 ar  
    12    5   17 1   
    13    6    7 ar  
    14    6   25 1   
    15    7    8 ar  
    16    7   26 1   
    17    8    9 ar  
    18    8   27 1   
    19    9   10 ar  
    20   11   12 1   
    21   11   28 1   
    22   11   29 1   
    23   11   30 1   
    24   12   13 2   
    25   12   14 1   
    26   14   15 1   
    27   14   31 1   
    28   15   16 1   
    29   15   32 1   
    30   15   33 1   
    31   16   17 1   
    32   16   34 1   
    33   16   35 1   
    34   17   36 1   
    35   18   19 1   
    36   18   20 1   
    37   18   21 1   
@<TRIPOS>SUBSTRUCTURE
     1 AEN         1 TEMP              0 ****  ****    0 ROOT
