@<TRIPOS>MOLECULE
AEP
   27    26     1     0     0
SMALL
bcc


@<TRIPOS>ATOM
      1 N          -1.9910    0.8910    1.4860 n3        1 AEP     -0.876800
      2 C1         -0.5780    1.0160    1.3740 c3        1 AEP     -0.136700
      3 C2          0.0320    1.0920    2.7540 c3        1 AEP     -0.218400
      4 C3          0.1880    2.5420    3.1580 c         1 AEP      0.911600
      5 O1         -0.6530    3.0740    3.9300 o         1 AEP     -0.861800
      6 O2          1.1580    3.2160    2.7220 o         1 AEP     -0.861800
      7 P           0.0880   -0.4260    0.4970 p5        1 AEP      1.506100
      8 C4         -0.1000   -0.1850   -1.2930 c3        1 AEP     -0.432600
      9 C5         -0.2700   -1.7150   -3.2250 c3        1 AEP     -0.066100
     10 C6          0.5690   -1.3260   -2.0280 c3        1 AEP     -0.165700
     11 C7          1.9410   -0.8890   -2.4940 c         1 AEP      0.915600
     12 O3          2.0590    0.0980   -3.2660 o         1 AEP     -0.853800
     13 O4          2.9640   -1.5140   -2.1100 o         1 AEP     -0.853800
     14 O1P         1.5230   -0.5830    0.8250 o         1 AEP     -0.902300
     15 O2P        -0.6990   -1.7220    0.9400 oh        1 AEP     -0.801400
     16 HN1        -2.3950    1.4860    0.9200 hn        1 AEP      0.355300
     17 HN2        -2.2450    1.0690    2.3480 hn        1 AEP      0.355300
     18 H1         -0.3610    1.8290    0.8770 h1        1 AEP      0.097700
     19 H21         0.9100    0.6600    2.7470 hc        1 AEP      0.045200
     20 H22        -0.5510    0.6360    3.3940 hc        1 AEP      0.045200
     21 H41        -1.0510   -0.1640   -1.5210 hc        1 AEP      0.122200
     22 H42         0.3170    0.6600   -1.5540 hc        1 AEP      0.122200
     23 H51         0.2320   -2.3430   -3.7860 hc        1 AEP      0.017367
     24 H52        -1.0980   -2.1400   -2.9190 hc        1 AEP      0.017367
     25 H53        -0.4870   -0.9140   -3.7470 hc        1 AEP      0.017367
     26 H6          0.6570   -2.0920   -1.4290 hc        1 AEP      0.059700
     27 HOP2       -0.1570   -2.2560    1.3980 ho        1 AEP      0.445000
@<TRIPOS>BOND
     1    1    2 1   
     2    1   16 1   
     3    1   17 1   
     4    2    3 1   
     5    2    7 1   
     6    2   18 1   
     7    3    4 1   
     8    3   19 1   
     9    3   20 1   
    10    4    5 1   
    11    4    6 1   
    12    7    8 1   
    13    7   14 2   
    14    7   15 1   
    15    8   10 1   
    16    8   21 1   
    17    8   22 1   
    18    9   10 1   
    19    9   23 1   
    20    9   24 1   
    21    9   25 1   
    22   10   11 1   
    23   10   26 1   
    24   11   12 1   
    25   11   13 1   
    26   15   27 1   
@<TRIPOS>SUBSTRUCTURE
     1 AEP         1 TEMP              0 ****  ****    0 ROOT
