@<TRIPOS>MOLECULE
AEP
   27    26     1     0     0
SMALL
bcc


@<TRIPOS>ATOM
      1 N          -1.1380    4.7560    1.9230 n3        1 AEP     -0.874800
      2 C1         -0.7530    3.3760    1.6640 c3        1 AEP     -0.121700
      3 C2         -0.0660    3.1500    0.3220 c3        1 AEP     -0.219400
      4 C3         -0.5530    4.0600   -0.8190 c         1 AEP      0.907600
      5 O1         -1.7620    4.4430   -0.8460 o         1 AEP     -0.858300
      6 O2          0.2840    4.3730   -1.7150 o         1 AEP     -0.858300
      7 P           0.2100    2.8730    2.9370 p5        1 AEP      1.503100
      8 C4          0.7480    1.3710    2.5930 c3        1 AEP     -0.449600
      9 C5         -0.9710   -0.4670    2.5110 c3        1 AEP     -0.069100
     10 C6          0.0160    0.2950    3.3700 c3        1 AEP     -0.168700
     11 C7          0.9840   -0.7300    4.0260 c         1 AEP      0.916600
     12 O3          2.2300   -0.5130    4.0060 o         1 AEP     -0.854300
     13 O4          0.4690   -1.7480    4.5770 o         1 AEP     -0.854300
     14 O1P        -0.2830    3.1350    4.2960 o         1 AEP     -0.897300
     15 O2P         1.5270    3.8330    2.8770 oh        1 AEP     -0.799400
     16 HN1        -1.8580    5.0270    1.2700 hn        1 AEP      0.353300
     17 HN2        -0.3350    5.3310    1.7340 hn        1 AEP      0.353300
     18 H1         -1.7160    2.7850    1.6350 h1        1 AEP      0.092700
     19 H21         1.0370    3.2990    0.4510 hc        1 AEP      0.041200
     20 H22        -0.2470    2.1040   -0.0420 hc        1 AEP      0.041200
     21 H41         1.8430    1.2680    2.8770 hc        1 AEP      0.124200
     22 H42         0.7360    1.1030    1.5070 hc        1 AEP      0.124200
     23 H51        -1.4090   -1.3000    3.1140 hc        1 AEP      0.018700
     24 H52        -0.4580   -0.9080    1.6240 hc        1 AEP      0.018700
     25 H53        -1.8000    0.1880    2.1470 hc        1 AEP      0.018700
     26 H6         -0.5330    0.7800    4.2280 hc        1 AEP      0.064700
     27 HOP2        1.6400    4.3450    3.6720 ho        1 AEP      0.447000
@<TRIPOS>BOND
     1    1    2 1   
     2    1   16 1   
     3    1   17 1   
     4    2    3 1   
     5    2    7 1   
     6    2   18 1   
     7    3    4 1   
     8    3   19 1   
     9    3   20 1   
    10    4    5 1   
    11    4    6 1   
    12    7    8 1   
    13    7   14 2   
    14    7   15 1   
    15    8   10 1   
    16    8   21 1   
    17    8   22 1   
    18    9   10 1   
    19    9   23 1   
    20    9   24 1   
    21    9   25 1   
    22   10   11 1   
    23   10   26 1   
    24   11   12 1   
    25   11   13 1   
    26   15   27 1   
@<TRIPOS>SUBSTRUCTURE
     1 AEP         1 TEMP              0 ****  ****    0 ROOT
