@<TRIPOS>MOLECULE
AER
   57    61     1     0     0
SMALL
bcc


@<TRIPOS>ATOM
      1 C1          0.1270   -0.2160   -0.1650 c3        1 AER     -0.070400
      2 C2          1.6150    0.0190   -0.0590 c3        1 AER     -0.075400
      3 C3          2.0110    0.2240    1.3980 c3        1 AER      0.145100
      4 O3          3.4240    0.3900    1.4190 oh        1 AER     -0.600800
      5 C4          1.5950   -0.9790    2.2400 c3        1 AER     -0.076200
      6 C5          0.1510   -1.3110    2.0680 c2        1 AER     -0.104400
      7 C6         -0.6170   -1.5330    3.1450 c2        1 AER     -0.169200
      8 C7         -2.0490   -1.8950    3.0930 c3        1 AER     -0.042200
      9 C8         -2.4760   -2.3590    1.7080 c3        1 AER     -0.046700
     10 C9         -1.9050   -1.4090    0.6410 c3        1 AER     -0.048700
     11 C10        -0.3590   -1.4240    0.6510 c3        1 AER     -0.000800
     12 C11        -2.4680   -1.6640   -0.7540 c3        1 AER     -0.075400
     13 C12        -3.9790   -1.8410   -0.8270 c3        1 AER     -0.062400
     14 C13        -4.4410   -2.8690    0.1890 c3        1 AER     -0.011800
     15 C14        -3.9810   -2.3370    1.5800 c3        1 AER     -0.067700
     16 C15        -4.8810   -3.0860    2.5690 c3        1 AER     -0.047200
     17 C16        -6.1460   -3.2430    1.7680 c2        1 AER     -0.161200
     18 C17        -5.9350   -3.0510    0.4400 ce        1 AER     -0.066400
     19 C18        -3.8700   -4.2460   -0.1290 c3        1 AER     -0.085100
     20 C19         0.1910   -2.7060    0.0320 c3        1 AER     -0.084100
     21 C20        -6.9570   -3.0410   -0.5810 ca        1 AER     -0.143100
     22 C21        -6.6960   -3.3980   -1.9250 ca        1 AER      0.402200
     23 N22        -7.6260   -3.4020   -2.8960 nb        1 AER     -0.666000
     24 C23        -8.8800   -3.0420   -2.5610 ca        1 AER      0.391200
     25 C24        -9.2500   -2.6680   -1.2570 ca        1 AER     -0.246300
     26 C25        -8.2760   -2.6690   -0.2610 ca        1 AER     -0.090000
     27 H1         -0.1360   -0.3760   -1.2440 hc        1 AER      0.045200
     28 H1A        -0.4170    0.7020    0.1840 hc        1 AER      0.045200
     29 H2          1.9040    0.9260   -0.6500 hc        1 AER      0.055700
     30 H2A         2.1840   -0.8520   -0.4770 hc        1 AER      0.055700
     31 H3          1.5250    1.1570    1.8010 h1        1 AER      0.035700
     32 HO3         3.6790    0.4740    2.3450 ho        1 AER      0.398000
     33 H4          1.8240   -0.7670    3.3180 hc        1 AER      0.051700
     34 H4A         2.2180   -1.8650    1.9390 hc        1 AER      0.051700
     35 H6         -0.2000   -1.4390    4.1610 ha        1 AER      0.120000
     36 H7         -2.6590   -1.0000    3.4000 hc        1 AER      0.048700
     37 H7A        -2.2650   -2.7090    3.8360 hc        1 AER      0.048700
     38 H8         -2.0860   -3.3990    1.5450 hc        1 AER      0.060700
     39 H9         -2.2240   -0.3680    0.9410 hc        1 AER      0.048700
     40 H11        -2.1930   -0.7930   -1.4080 hc        1 AER      0.043200
     41 H11A       -1.9840   -2.5720   -1.1990 hc        1 AER      0.043200
     42 H12        -4.4880   -0.8620   -0.6290 hc        1 AER      0.045700
     43 H12A       -4.2560   -2.1600   -1.8650 hc        1 AER      0.045700
     44 H14        -4.2970   -1.2520    1.6390 hc        1 AER      0.051700
     45 H15        -5.0490   -2.4990    3.5040 hc        1 AER      0.054200
     46 H15A       -4.4550   -4.0810    2.8500 hc        1 AER      0.054200
     47 H16        -7.0950   -3.4690    2.2560 ha        1 AER      0.138000
     48 H18        -2.7620   -4.2100   -0.2600 hc        1 AER      0.038700
     49 H18A       -4.1020   -4.9570    0.7000 hc        1 AER      0.038700
     50 H18B       -4.3190   -4.6430   -1.0710 hc        1 AER      0.038700
     51 H19        -0.3550   -3.5990    0.4200 hc        1 AER      0.038033
     52 H19A        0.0880   -2.6800   -1.0800 hc        1 AER      0.038033
     53 H19B        1.2750   -2.8230    0.2720 hc        1 AER      0.038033
     54 H21        -5.6810   -3.7030   -2.2410 h4        1 AER      0.026100
     55 H23        -9.6200   -3.0550   -3.3810 h4        1 AER      0.022100
     56 H24       -10.2860   -2.3810   -1.0340 ha        1 AER      0.143000
     57 H25        -8.5310   -2.3760    0.7690 ha        1 AER      0.139000
@<TRIPOS>BOND
     1    1    2 1   
     2    1   11 1   
     3    1   27 1   
     4    1   28 1   
     5    2    3 1   
     6    2   29 1   
     7    2   30 1   
     8    3    4 1   
     9    3    5 1   
    10    3   31 1   
    11    4   32 1   
    12    5    6 1   
    13    5   33 1   
    14    5   34 1   
    15    6    7 2   
    16    6   11 1   
    17    7    8 1   
    18    7   35 1   
    19    8    9 1   
    20    8   36 1   
    21    8   37 1   
    22    9   10 1   
    23    9   15 1   
    24    9   38 1   
    25   10   11 1   
    26   10   12 1   
    27   10   39 1   
    28   11   20 1   
    29   12   13 1   
    30   12   40 1   
    31   12   41 1   
    32   13   14 1   
    33   13   42 1   
    34   13   43 1   
    35   14   15 1   
    36   14   18 1   
    37   14   19 1   
    38   15   16 1   
    39   15   44 1   
    40   16   17 1   
    41   16   45 1   
    42   16   46 1   
    43   17   18 2   
    44   17   47 1   
    45   18   21 1   
    46   19   48 1   
    47   19   49 1   
    48   19   50 1   
    49   20   51 1   
    50   20   52 1   
    51   20   53 1   
    52   21   22 ar  
    53   21   26 ar  
    54   22   23 ar  
    55   22   54 1   
    56   23   24 ar  
    57   24   25 ar  
    58   24   55 1   
    59   25   26 ar  
    60   25   56 1   
    61   26   57 1   
@<TRIPOS>SUBSTRUCTURE
     1 AER         1 TEMP              0 ****  ****    0 ROOT
