@<TRIPOS>MOLECULE
AER
   57    61     1     0     0
SMALL
bcc


@<TRIPOS>ATOM
      1 C1          0.1140   -0.2020   -0.1630 c3        1 AER     -0.070400
      2 C2          1.6010    0.0440   -0.0570 c3        1 AER     -0.075400
      3 C3          1.9980    0.2390    1.4000 c3        1 AER      0.145100
      4 O3          3.4090    0.4160    1.4200 oh        1 AER     -0.600800
      5 C4          1.5930   -0.9740    2.2320 c3        1 AER     -0.076200
      6 C5          0.1520   -1.3170    2.0600 c2        1 AER     -0.104400
      7 C6         -0.6130   -1.5530    3.1370 c2        1 AER     -0.169200
      8 C7         -2.0420   -1.9270    3.0850 c3        1 AER     -0.042200
      9 C8         -2.4680   -2.3820    1.6970 c3        1 AER     -0.046700
     10 C9         -1.9070   -1.4190    0.6370 c3        1 AER     -0.048700
     11 C10        -0.3600   -1.4210    0.6440 c3        1 AER     -0.000800
     12 C11        -2.4700   -1.6660   -0.7590 c3        1 AER     -0.075400
     13 C12        -3.9790   -1.8540   -0.8300 c3        1 AER     -0.062400
     14 C13        -4.4310   -2.8950    0.1770 c3        1 AER     -0.011800
     15 C14        -3.9730   -2.3710    1.5720 c3        1 AER     -0.067700
     16 C15        -4.8650   -3.1360    2.5560 c3        1 AER     -0.047200
     17 C16        -6.1300   -3.2970    1.7570 c2        1 AER     -0.161200
     18 C17        -5.9230   -3.0910    0.4300 ce        1 AER     -0.066400
     19 C18        -3.8500   -4.2650   -0.1540 c3        1 AER     -0.085100
     20 C19         0.1980   -2.6940    0.0120 c3        1 AER     -0.084100
     21 C20        -6.9480   -3.0810   -0.5890 ca        1 AER     -0.143100
     22 C21        -6.6860   -3.4250   -1.9360 ca        1 AER      0.402200
     23 N22        -7.6180   -3.4280   -2.9050 nb        1 AER     -0.666000
     24 C23        -8.8740   -3.0800   -2.5650 ca        1 AER      0.391200
     25 C24        -9.2450   -2.7210   -1.2570 ca        1 AER     -0.246300
     26 C25        -8.2690   -2.7220   -0.2630 ca        1 AER     -0.090000
     27 H1         -0.4360    0.7080    0.1950 hc        1 AER      0.045200
     28 H1A        -0.1500   -0.3550   -1.2430 hc        1 AER      0.045200
     29 H2          2.1750   -0.8190   -0.4850 hc        1 AER      0.055700
     30 H2A         1.8810    0.9580   -0.6420 hc        1 AER      0.055700
     31 H3          1.5050    1.1650    1.8120 h1        1 AER      0.035700
     32 HO3         3.6660    0.4950    2.3460 ho        1 AER      0.398000
     33 H4          2.2230   -1.8520    1.9230 hc        1 AER      0.051700
     34 H4A         1.8220   -0.7690    3.3120 hc        1 AER      0.051700
     35 H6         -0.1940   -1.4650    4.1530 ha        1 AER      0.120000
     36 H7         -2.6580   -1.0400    3.4010 hc        1 AER      0.048700
     37 H7A        -2.2500   -2.7490    3.8210 hc        1 AER      0.048700
     38 H8         -2.0700   -3.4180    1.5240 hc        1 AER      0.060700
     39 H9         -2.2330   -0.3830    0.9470 hc        1 AER      0.048700
     40 H11        -2.2030   -0.7870   -1.4060 hc        1 AER      0.043200
     41 H11A       -1.9800   -2.5670   -1.2130 hc        1 AER      0.043200
     42 H12        -4.2570   -2.1670   -1.8700 hc        1 AER      0.045700
     43 H12A       -4.4970   -0.8820   -0.6230 hc        1 AER      0.045700
     44 H14        -4.2970   -1.2890    1.6410 hc        1 AER      0.051700
     45 H15        -5.0360   -2.5580    3.4960 hc        1 AER      0.054200
     46 H15A       -4.4300   -4.1300    2.8280 hc        1 AER      0.054200
     47 H16        -7.0760   -3.5340    2.2450 ha        1 AER      0.138000
     48 H18        -4.2980   -4.6570   -1.0980 hc        1 AER      0.038700
     49 H18A       -2.7430   -4.2180   -0.2870 hc        1 AER      0.038700
     50 H18B       -4.0750   -4.9850    0.6700 hc        1 AER      0.038700
     51 H19         1.2840   -2.8040    0.2500 hc        1 AER      0.038033
     52 H19A       -0.3390   -3.5940    0.3940 hc        1 AER      0.038033
     53 H19B        0.0930   -2.6580   -1.0990 hc        1 AER      0.038033
     54 H21        -5.6700   -3.7180   -2.2570 h4        1 AER      0.026100
     55 H23        -9.6160   -3.0920   -3.3830 h4        1 AER      0.022100
     56 H24       -10.2830   -2.4440   -1.0290 ha        1 AER      0.143000
     57 H25        -8.5240   -2.4410    0.7700 ha        1 AER      0.139000
@<TRIPOS>BOND
     1    1    2 1   
     2    1   11 1   
     3    1   27 1   
     4    1   28 1   
     5    2    3 1   
     6    2   29 1   
     7    2   30 1   
     8    3    4 1   
     9    3    5 1   
    10    3   31 1   
    11    4   32 1   
    12    5    6 1   
    13    5   33 1   
    14    5   34 1   
    15    6    7 2   
    16    6   11 1   
    17    7    8 1   
    18    7   35 1   
    19    8    9 1   
    20    8   36 1   
    21    8   37 1   
    22    9   10 1   
    23    9   15 1   
    24    9   38 1   
    25   10   11 1   
    26   10   12 1   
    27   10   39 1   
    28   11   20 1   
    29   12   13 1   
    30   12   40 1   
    31   12   41 1   
    32   13   14 1   
    33   13   42 1   
    34   13   43 1   
    35   14   15 1   
    36   14   18 1   
    37   14   19 1   
    38   15   16 1   
    39   15   44 1   
    40   16   17 1   
    41   16   45 1   
    42   16   46 1   
    43   17   18 2   
    44   17   47 1   
    45   18   21 1   
    46   19   48 1   
    47   19   49 1   
    48   19   50 1   
    49   20   51 1   
    50   20   52 1   
    51   20   53 1   
    52   21   22 ar  
    53   21   26 ar  
    54   22   23 ar  
    55   22   54 1   
    56   23   24 ar  
    57   24   25 ar  
    58   24   55 1   
    59   25   26 ar  
    60   25   56 1   
    61   26   57 1   
@<TRIPOS>SUBSTRUCTURE
     1 AER         1 TEMP              0 ****  ****    0 ROOT
