@<TRIPOS>MOLECULE
AER
   57    61     1     0     0
SMALL
bcc


@<TRIPOS>ATOM
      1 C1         -3.2280    1.6030   -0.7480 c3        1 AER     -0.070400
      2 C2         -4.6960    1.8850   -0.5280 c3        1 AER     -0.075400
      3 C3         -5.5120    0.6170   -0.7460 c3        1 AER      0.145100
      4 O3         -6.8680    0.9510   -0.4760 oh        1 AER     -0.600800
      5 C4         -5.0320   -0.4940    0.1830 c3        1 AER     -0.076200
      6 C5         -3.5620   -0.7200    0.0750 c2        1 AER     -0.104400
      7 C6         -3.0840   -1.9670   -0.0560 c2        1 AER     -0.169200
      8 C7         -1.6490   -2.3100   -0.1430 c3        1 AER     -0.042200
      9 C8         -0.7550   -1.1640    0.3040 c3        1 AER     -0.045700
     10 C9         -1.2480    0.1550   -0.3170 c3        1 AER     -0.048700
     11 C10        -2.6760    0.4990    0.1680 c3        1 AER     -0.000800
     12 C11        -0.2820    1.3200   -0.1130 c3        1 AER     -0.075400
     13 C12         1.1820    1.0110   -0.3940 c3        1 AER     -0.060400
     14 C13         1.6030   -0.2460    0.3430 c3        1 AER     -0.011800
     15 C14         0.6650   -1.3820   -0.1600 c3        1 AER     -0.067700
     16 C15         1.4380   -2.6640    0.1690 c3        1 AER     -0.047200
     17 C16         2.8670   -2.2090    0.0150 c2        1 AER     -0.156200
     18 C17         2.9680   -0.8590    0.0450 ce        1 AER     -0.076400
     19 C18         1.5380   -0.0270    1.8500 c3        1 AER     -0.085100
     20 C19        -2.6710    0.9950    1.6110 c3        1 AER     -0.084100
     21 C20         4.1700   -0.0680   -0.1260 ca        1 AER     -0.148100
     22 C21         4.8310    0.5090    0.9840 ca        1 AER      0.403200
     23 N22         5.9470    1.2520    0.8830 nb        1 AER     -0.665000
     24 C23         6.4550    1.4480   -0.3490 ca        1 AER      0.391200
     25 C24         5.8780    0.9160   -1.5160 ca        1 AER     -0.247300
     26 C25         4.7200    0.1470   -1.3980 ca        1 AER     -0.084000
     27 H1         -3.0670    1.3040   -1.8180 hc        1 AER      0.045200
     28 H1A        -2.6500    2.5480   -0.5690 hc        1 AER      0.045200
     29 H2         -4.8740    2.2650    0.5110 hc        1 AER      0.055700
     30 H2A        -5.0460    2.6760   -1.2400 hc        1 AER      0.055700
     31 H3         -5.4220    0.2810   -1.8180 h1        1 AER      0.035700
     32 HO3        -7.3780    0.1380   -0.5680 ho        1 AER      0.398000
     33 H4         -5.2890   -0.2170    1.2420 hc        1 AER      0.051700
     34 H4A        -5.5930   -1.4370   -0.0550 hc        1 AER      0.051700
     35 H6         -3.7710   -2.8270   -0.1180 ha        1 AER      0.120000
     36 H7         -1.4330   -3.2130    0.4890 hc        1 AER      0.049200
     37 H7A        -1.4090   -2.5890   -1.2070 hc        1 AER      0.049200
     38 H8         -0.7930   -1.0990    1.4250 hc        1 AER      0.060700
     39 H9         -1.3160   -0.0260   -1.4300 hc        1 AER      0.047700
     40 H11        -0.5940    2.1570   -0.7930 hc        1 AER      0.043200
     41 H11A       -0.3660    1.7020    0.9380 hc        1 AER      0.043200
     42 H12         1.3410    0.8750   -1.4950 hc        1 AER      0.045200
     43 H12A        1.8090    1.8810   -0.0680 hc        1 AER      0.045200
     44 H14         0.6490   -1.3190   -1.2900 hc        1 AER      0.049700
     45 H15         1.2400   -3.0140    1.2120 hc        1 AER      0.053700
     46 H15A        1.1860   -3.4930   -0.5350 hc        1 AER      0.053700
     47 H16         3.6760   -2.9280   -0.1180 ha        1 AER      0.141000
     48 H18         0.5290    0.3260    2.1700 hc        1 AER      0.039033
     49 H18A        1.7650   -0.9790    2.3880 hc        1 AER      0.039033
     50 H18B        2.2890    0.7450    2.1480 hc        1 AER      0.039033
     51 H19        -2.0320    0.3420    2.2520 hc        1 AER      0.038033
     52 H19A       -2.2820    2.0410    1.6650 hc        1 AER      0.038033
     53 H19B       -3.7070    0.9940    2.0280 hc        1 AER      0.038033
     54 H21         4.4410    0.3600    2.0070 h4        1 AER      0.026100
     55 H23         7.3710    2.0630   -0.3990 h4        1 AER      0.021100
     56 H24         6.3330    1.1040   -2.4970 ha        1 AER      0.143000
     57 H25         4.2420   -0.2860   -2.2880 ha        1 AER      0.141000
@<TRIPOS>BOND
     1    1    2 1   
     2    1   11 1   
     3    1   27 1   
     4    1   28 1   
     5    2    3 1   
     6    2   29 1   
     7    2   30 1   
     8    3    4 1   
     9    3    5 1   
    10    3   31 1   
    11    4   32 1   
    12    5    6 1   
    13    5   33 1   
    14    5   34 1   
    15    6    7 2   
    16    6   11 1   
    17    7    8 1   
    18    7   35 1   
    19    8    9 1   
    20    8   36 1   
    21    8   37 1   
    22    9   10 1   
    23    9   15 1   
    24    9   38 1   
    25   10   11 1   
    26   10   12 1   
    27   10   39 1   
    28   11   20 1   
    29   12   13 1   
    30   12   40 1   
    31   12   41 1   
    32   13   14 1   
    33   13   42 1   
    34   13   43 1   
    35   14   15 1   
    36   14   18 1   
    37   14   19 1   
    38   15   16 1   
    39   15   44 1   
    40   16   17 1   
    41   16   45 1   
    42   16   46 1   
    43   17   18 2   
    44   17   47 1   
    45   18   21 1   
    46   19   48 1   
    47   19   49 1   
    48   19   50 1   
    49   20   51 1   
    50   20   52 1   
    51   20   53 1   
    52   21   22 ar  
    53   21   26 ar  
    54   22   23 ar  
    55   22   54 1   
    56   23   24 ar  
    57   24   25 ar  
    58   24   55 1   
    59   25   26 ar  
    60   25   56 1   
    61   26   57 1   
@<TRIPOS>SUBSTRUCTURE
     1 AER         1 TEMP              0 ****  ****    0 ROOT
