@<TRIPOS>MOLECULE
AER
   57    58     1     0     0
SMALL
bcc


@<TRIPOS>ATOM
      1 C1          1.8140    0.2540    0.3720 c3        1 AER     -0.142000
      2 C2          2.6690   -0.2190    0.8690 c3        1 AER     -0.189000
      3 C3          3.5810    0.3650    1.4460 c3        1 AER      0.036000
      4 O3          4.2930   -0.7290    2.5940 oh        1 AER     -0.331000
      5 C4          3.2290    1.2480    1.9910 c3        1 AER     -0.123000
      6 C5          1.6620    1.1580    2.1490 c2        1 AER     -0.098000
      7 C6          1.1560    0.4010    2.7740 c1        1 AER     -0.164000
      8 C7         -0.0080    0.2270    2.4850 c2        1 AER     -0.126000
      9 C8         -0.1700    0.2600    1.3580 c3        1 AER     -0.092000
     10 C9          0.2610    1.1890    0.7640 c3        1 AER     -0.088000
     11 C10         1.3690    1.1810    1.0070 c3        1 AER     -0.006000
     12 C11         0.0070    1.0360   -0.9440 c3        1 AER     -0.151000
     13 C12        -1.1920    0.8110   -1.2040 c3        1 AER     -0.144000
     14 C13        -1.6230   -0.0670   -0.5870 c3        1 AER     -0.007000
     15 C14        -1.3360    0.0100    1.0940 c3        1 AER     -0.092000
     16 C15        -1.3930   -1.3570    1.4620 c3        1 AER     -0.141000
     17 C16        -1.7130   -1.7940    0.4760 c2        1 AER     -0.149000
     18 C17        -1.5400   -0.7170   -0.7770 c2        1 AER     -0.087000
     19 C18        -3.1740    0.1450   -0.7160 c3        1 AER     -0.205000
     20 C19         1.9890    2.5050    0.4070 c3        1 AER     -0.205000
     21 C20        -1.9160   -1.1680   -2.2810 c2        1 AER     -0.072000
     22 C21        -1.3070   -0.5240   -3.3890 c2        1 AER     -0.062000
     23 N22        -1.5820   -0.9410   -4.6560 n1        1 AER     -0.139000
     24 C23        -2.4440   -1.9780   -4.8630 c1        1 AER     -0.075000
     25 C24        -3.0530   -2.6230   -3.7630 c1        1 AER     -0.182000
     26 C25        -2.7770   -2.2050   -2.4850 c2        1 AER     -0.085000
     27 H1          2.0920    0.5750   -0.4930 hc        1 AER      0.084000
     28 H1A         1.1210   -0.4020    0.2510 hc        1 AER      0.084000
     29 H2          3.1030   -0.7810    0.1770 hc        1 AER      0.086000
     30 H2A         2.2950   -0.8200    1.5160 hc        1 AER      0.086000
     31 H3          4.2440    0.6290    0.8050 h1        1 AER      0.071000
     32 HO3         4.9410   -1.1620    2.2180 ho        1 AER      0.197000
     33 H4          3.7930    1.3940    2.7950 hc        1 AER      0.101500
     34 H4A         3.4180    2.1340    1.4640 hc        1 AER      0.101500
     35 H6          1.4720    0.2340    3.7170 ha        1 AER      0.124000
     36 H7         -0.3520   -0.5340    2.9600 ha        1 AER      0.086500
     37 H7A        -0.5870    0.9630    2.8790 ha        1 AER      0.086500
     38 H8          0.3600   -0.5460    0.9950 hc        1 AER      0.096000
     39 H9         -0.1490    2.0160    1.0940 hc        1 AER      0.091000
     40 H11         0.5580    0.2900   -1.2890 hc        1 AER      0.084000
     41 H11A        0.2860    1.8810   -1.3920 hc        1 AER      0.084000
     42 H12        -1.7190    1.6240   -1.0120 hc        1 AER      0.084500
     43 H12A       -1.2740    0.6000   -2.1460 hc        1 AER      0.084500
     44 H14        -1.9680    0.5590    1.5750 hc        1 AER      0.093000
     45 H15        -2.0070   -1.5480    2.2080 hc        1 AER      0.093500
     46 H15A       -0.4850   -1.7370    1.8110 hc        1 AER      0.093500
     47 H16        -1.6130   -2.7610    0.3120 ha        1 AER      0.142000
     48 H18        -3.4020    0.4230   -1.6660 hc        1 AER      0.076000
     49 H18A       -3.4560    0.8380   -0.1010 hc        1 AER      0.076000
     50 H18B       -3.6300   -0.6820   -0.5050 hc        1 AER      0.076000
     51 H19         2.1870    3.1580    1.1610 hc        1 AER      0.076000
     52 H19A        2.7720    2.3040   -0.0400 hc        1 AER      0.076000
     53 H19B        1.3560    2.9100   -0.2130 hc        1 AER      0.076000
     54 H21        -0.6710    0.2400   -3.2400 h4        1 AER      0.162000
     55 H23        -2.6440   -2.2820   -5.7940 ha        1 AER      0.158000
     56 H24        -3.6460   -3.3360   -3.9080 DU        1 AER      0.143000
     57 H25        -3.1970   -2.6510   -1.7210 ha        1 AER      0.142000
@<TRIPOS>BOND
     1    1    2 1   
     2    1   11 1   
     3    1   27 1   
     4    1   28 1   
     5    2    3 1   
     6    2   29 1   
     7    2   30 1   
     8    3    4 1   
     9    3    5 1   
    10    3   31 1   
    11    4   32 1   
    12    5    6 1   
    13    5   33 1   
    14    5   34 1   
    15    6    7 1   
    16    6   11 1   
    17    7   35 1   
    18    8    9 1   
    19    8   36 1   
    20    8   37 1   
    21    9   10 1   
    22    9   15 1   
    23    9   38 1   
    24   10   11 1   
    25   10   12 1   
    26   10   39 1   
    27   11   20 1   
    28   12   13 1   
    29   12   40 1   
    30   12   41 1   
    31   13   14 1   
    32   13   42 1   
    33   13   43 1   
    34   14   15 1   
    35   14   18 1   
    36   14   19 1   
    37   15   16 1   
    38   15   44 1   
    39   16   17 1   
    40   16   45 1   
    41   16   46 1   
    42   17   18 1   
    43   17   47 1   
    44   18   21 1   
    45   19   48 1   
    46   19   49 1   
    47   19   50 1   
    48   20   51 1   
    49   20   52 1   
    50   20   53 1   
    51   21   22 1   
    52   21   26 1   
    53   22   23 1   
    54   22   54 1   
    55   24   25 1   
    56   24   55 1   
    57   25   26 1   
    58   26   57 1   
@<TRIPOS>SUBSTRUCTURE
     1 AER         1 TEMP              0 ****  ****    0 ROOT
