@<TRIPOS>MOLECULE
AES
   24    24     1     0     0
SMALL
bcc


@<TRIPOS>ATOM
      1 C3          0.0060    0.0150   -0.0130 ca        1 AES     -0.145000
      2 C2          1.3990    0.0100   -0.0070 ca        1 AES      0.005000
      3 C1          2.1120    0.0090    1.1970 ca        1 AES     -0.404500
      4 S           3.8040   -0.0470    1.1970 sy        1 AES      1.713000
      5 F           4.1990    1.4270    1.1940 f         1 AES     -0.275900
      6 O1S         4.2390   -0.5410    2.4070 o         1 AES     -0.658800
      7 O2S         4.2390   -0.5450   -0.0110 o         1 AES     -0.658800
      8 C6          1.3990    0.0150    2.4010 ca        1 AES      0.005000
      9 C5          0.0060    0.0200    2.4080 ca        1 AES     -0.145000
     10 C4         -0.6960    0.0180    1.1970 ca        1 AES     -0.061300
     11 C7         -2.1860    0.0380    1.1970 c3        1 AES     -0.062100
     12 C8         -2.6970   -1.4020    1.1960 c3        1 AES      0.097800
     13 N8         -4.1880   -1.4850    1.1960 nz        1 AES     -0.839600
     14 H3         -0.5350    0.0290   -0.9720 ha        1 AES      0.145000
     15 H2          1.9520   -0.0040   -0.9660 ha        1 AES      0.177000
     16 H6          1.9520    0.0050    3.3600 ha        1 AES      0.177000
     17 H5         -0.5340    0.0380    3.3660 ha        1 AES      0.145000
     18 H71        -2.5580    0.5870    0.2900 hc        1 AES      0.079700
     19 H72        -2.5580    0.5850    2.1060 hc        1 AES      0.079700
     20 H81        -2.3220   -1.9420    0.2780 hx        1 AES      0.119700
     21 H82        -2.3220   -1.9440    2.1140 hx        1 AES      0.119700
     22 HN81       -4.4850   -2.4660    1.1950 hn        1 AES      0.462800
     23 HN82       -4.5680   -1.0200    0.3640 hn        1 AES      0.462800
     24 H83        -4.5680   -1.0220    2.0290 hn        1 AES      0.462800
@<TRIPOS>BOND
     1    1    2 ar  
     2    1   10 ar  
     3    1   14 1   
     4    2    3 ar  
     5    2   15 1   
     6    3    4 1   
     7    3    8 ar  
     8    4    5 1   
     9    4    6 2   
    10    4    7 2   
    11    8    9 ar  
    12    8   16 1   
    13    9   10 ar  
    14    9   17 1   
    15   10   11 1   
    16   11   12 1   
    17   11   18 1   
    18   11   19 1   
    19   12   13 1   
    20   12   20 1   
    21   12   21 1   
    22   13   22 1   
    23   13   23 1   
    24   13   24 1   
@<TRIPOS>SUBSTRUCTURE
     1 AES         1 TEMP              0 ****  ****    0 ROOT
