@<TRIPOS>MOLECULE
AES
   23    19     1     0     0
SMALL
bcc


@<TRIPOS>ATOM
      1 C3          0.1840   -0.3220   -1.2550 c1        1 AES     -0.021500
      2 C2          1.5700   -0.3360   -1.2510 c1        1 AES     -0.021500
      3 C1          2.2600   -0.3700   -0.0500 c1        1 AES     -0.453400
      4 S           4.0310   -0.4680   -0.0480 s4        1 AES      1.686200
      5 F           4.4880   -1.9570   -0.0710 f         1 AES     -0.493000
      6 O1S         4.5900    0.2310    1.0750 o         1 AES     -0.565400
      7 O2S         4.5950    0.2680   -1.1440 o         1 AES     -0.565400
      8 C6          1.5640   -0.3910    1.1490 c1        1 AES      0.059500
      9 C5          0.1780   -0.3770    1.1450 c1        1 AES     -0.102500
     10 C4         -0.5120   -0.3430   -0.0560 c1        1 AES      0.039900
     11 C7         -2.0240   -0.3940   -0.0610 c3        1 AES     -0.092300
     12 C8         -2.5760    1.0010    0.1320 c3        1 AES      0.164800
     13 N8         -4.0000    0.9630    0.0570 n3        1 AES     -0.918800
     14 H3         -0.3010   -0.2980   -2.1010 ha        1 AES      0.096500
     15 H2          2.0600   -0.3210   -2.0950 ha        1 AES      0.096500
     16 H6          2.0500   -0.4150    1.9950 ha        1 AES      0.100500
     17 H5         -0.3120   -0.3920    1.9890 ha        1 AES      0.087500
     18 H71        -2.3350   -0.7530   -0.9160 hc        1 AES      0.065200
     19 H72        -2.3330   -0.9710    0.6660 hc        1 AES      0.065200
     20 H81        -2.2280    1.5900   -0.5690 h1        1 AES      0.031700
     21 H82        -2.3040    1.3420    1.0090 h1        1 AES      0.031700
     22 HN81       -4.3520    1.0790    0.8940 hn        1 AES      0.354300
     23 HN82       -4.2940    1.6330   -0.4940 hn        1 AES      0.354300
@<TRIPOS>BOND
     1    1    2 3   
     2    1   14 1   
     3    2   15 1   
     4    3    4 1   
     5    3    8 3   
     6    4    6 1   
     7    4    7 1   
     8    8   16 1   
     9    9   10 3   
    10    9   17 1   
    11   10   11 1   
    12   11   12 1   
    13   11   18 1   
    14   11   19 1   
    15   12   13 1   
    16   12   20 1   
    17   12   21 1   
    18   13   22 1   
    19   13   23 1   
@<TRIPOS>SUBSTRUCTURE
     1 AES         1 TEMP              0 ****  ****    0 ROOT
