@<TRIPOS>MOLECULE
AES
   23    23     1     0     0
SMALL
bcc


@<TRIPOS>ATOM
      1 C3          1.1500   -1.2920    0.4640 ca        1 AES     -0.160000
      2 C2         -0.2230   -1.2360    0.2520 ca        1 AES      0.002000
      3 C1         -0.8720   -0.0140    0.0250 ca        1 AES     -0.467500
      4 S          -2.5070    0.0440   -0.2600 sy        1 AES      1.721000
      5 F          -3.1200    0.2190    1.1340 f         1 AES     -0.288900
      6 O1S        -2.8520    1.2030   -0.9300 o         1 AES     -0.677800
      7 O2S        -2.9780   -1.1860   -0.6840 o         1 AES     -0.677800
      8 C6         -0.0970    1.1560    0.0110 ca        1 AES      0.002000
      9 C5          1.2750    1.1100    0.2230 ca        1 AES     -0.160000
     10 C4          1.9130   -0.1170    0.4530 ca        1 AES      0.005700
     11 C7          3.3800   -0.1640    0.6950 c3        1 AES     -0.058100
     12 C8          4.1480    0.1240   -0.6010 c3        1 AES      0.164800
     13 N8          5.5740    0.2040   -0.3970 n3        1 AES     -0.918800
     14 H3          1.6380   -2.2630    0.6410 ha        1 AES      0.147000
     15 H2         -0.8160   -2.1680    0.2490 ha        1 AES      0.158500
     16 H6         -0.5910    2.1260   -0.1830 ha        1 AES      0.158500
     17 H5          1.8670    2.0380    0.2110 ha        1 AES      0.147000
     18 H71         3.6520    0.6010    1.4730 hc        1 AES      0.065200
     19 H72         3.6760   -1.1700    1.0950 hc        1 AES      0.065200
     20 H81         3.8570   -0.6630   -1.3590 h1        1 AES      0.031700
     21 H82         3.8070    1.1190   -1.0080 h1        1 AES      0.031700
     22 HN81        5.9290   -0.6360    0.0140 hn        1 AES      0.354300
     23 HN82        6.0400    0.3730   -1.2660 hn        1 AES      0.354300
@<TRIPOS>BOND
     1    1    2 ar  
     2    1   10 ar  
     3    1   14 1   
     4    2    3 ar  
     5    2   15 1   
     6    3    4 1   
     7    3    8 ar  
     8    4    5 1   
     9    4    6 2   
    10    4    7 2   
    11    8    9 ar  
    12    8   16 1   
    13    9   10 ar  
    14    9   17 1   
    15   10   11 1   
    16   11   12 1   
    17   11   18 1   
    18   11   19 1   
    19   12   13 1   
    20   12   20 1   
    21   12   21 1   
    22   13   22 1   
    23   13   23 1   
@<TRIPOS>SUBSTRUCTURE
     1 AES         1 TEMP              0 ****  ****    0 ROOT
