@<TRIPOS>MOLECULE
AET
   54    51     1     0     0
SMALL
bcc


@<TRIPOS>ATOM
      1 P           2.5340    4.7680   -4.9740 p4        1 AET      1.698200
      2 OP1         3.2840    5.7220   -4.0410 o         1 AET     -0.911500
      3 OP2         1.0630    5.0190   -4.8610 os        1 AET     -1.240000
      4 OP3         2.9930    5.0080   -6.4460 o         1 AET     -0.960300
      5 O5'         2.8450    3.2690   -4.5600 os        1 AET     -0.569200
      6 C5'         2.0580    2.6650   -3.4560 c3        1 AET      0.221400
      7 C4'         2.9950    1.9630   -2.4940 c3        1 AET      0.046100
      8 O4'         2.1710    1.4570   -1.1770 os        1 AET     -0.435600
      9 C3'         3.4870    0.9060   -3.0430 c3        1 AET      0.135100
     10 O3'         4.8620    0.6430   -2.5200 oh        1 AET     -0.709800
     11 C2'         2.5210   -0.2470   -2.6330 c3        1 AET      0.102100
     12 O2'         3.2150   -1.2880   -2.1630 oh        1 AET     -0.619800
     13 C1'         1.6090    0.3480   -1.5110 c3        1 AET      0.223800
     14 N9          0.2740    0.5980   -2.0250 n3        1 AET     -0.100400
     15 C8         -0.6580    1.5660   -1.7900 c1        1 AET      0.211400
     16 N7         -1.7360    0.9790   -1.2070 ne        1 AET     -0.424400
     17 C5         -1.4700   -0.3750   -1.0770 cg        1 AET     -0.118000
     18 C6         -2.2640   -1.4420   -0.6690 c1        1 AET      0.538000
     19 N6         -2.6770   -1.1440    0.6270 n         1 AET     -0.375600
     20 CM6        -3.5750   -0.0510    0.8490 c3        1 AET      0.066300
     21 N1         -1.8090   -2.7000   -0.7730 n1        1 AET     -0.541800
     22 C2         -0.5560   -2.9380   -1.2820 c1        1 AET      0.354300
     23 N3          0.2270   -1.8960   -1.6840 n1        1 AET     -0.500800
     24 C4         -0.2390   -0.6070   -1.5790 c1        1 AET     -0.024300
     25 C10        -2.4320   -2.0810    1.6760 c         1 AET      0.764100
     26 O10        -1.8870   -3.0930    1.4400 o         1 AET     -0.626100
     27 N11        -2.7470   -1.7350    3.0390 n         1 AET     -0.512900
     28 C12        -1.8040   -2.0460    4.1040 c3        1 AET     -0.063300
     29 C13        -2.0710   -3.4310    4.6180 c         1 AET      0.916600
     30 ODA        -1.2190   -4.3300    4.4550 o         1 AET     -0.836300
     31 ODB        -3.1120   -3.6660    5.2780 o         1 AET     -0.836300
     32 C14        -1.9680   -1.0490    5.2310 c3        1 AET      0.130100
     33 O14        -2.4800    0.1210    4.7360 oh        1 AET     -0.648800
     34 C15        -0.5880   -0.7730    5.8860 c3        1 AET     -0.093100
     35 H5'         1.4080    2.0040   -3.8300 h1        1 AET      0.008200
     36 H5''        1.5790    3.3570   -2.9880 h1        1 AET      0.008200
     37 H4'         3.7280    2.5770   -2.2230 h1        1 AET      0.077700
     38 H3'         3.5060    1.0030   -3.9990 h1        1 AET      0.074700
     39 HO3'        5.3040    0.1120   -3.0910 ho        1 AET      0.535000
     40 H2'         1.9630   -0.5290   -3.4220 h1        1 AET      0.061700
     41 HO2'        3.0680   -1.3720   -1.2980 ho        1 AET      0.435000
     42 H1'         1.5700   -0.2780   -0.7200 h2        1 AET      0.088700
     43 H8         -0.5580    2.5640   -2.0040 DU        1 AET      0.236000
     44 HM61       -3.0920    0.6890    1.3120 h1        1 AET      0.046700
     45 HM62       -4.3310   -0.3540    1.4100 h1        1 AET      0.046700
     46 HM63       -3.9120    0.2670   -0.0050 h1        1 AET      0.046700
     47 H2         -0.2160   -3.8820   -1.3600 ha        1 AET      0.112500
     48 HN1        -3.4860   -1.2710    3.2210 hn        1 AET      0.312500
     49 H12        -0.8970   -1.9990    3.7580 h1        1 AET      0.081700
     50 H14        -2.5540   -1.3990    5.8720 h1        1 AET      0.026700
     51 HO4        -3.0170    0.4490    5.2920 ho        1 AET      0.439000
     52 H151       -0.6860   -0.7700    6.8930 hc        1 AET      0.035700
     53 H152        0.0170   -1.4420    5.6330 hc        1 AET      0.035700
     54 H153       -0.2410    0.1330    5.5750 hc        1 AET      0.035700
@<TRIPOS>BOND
     1    1    2 1   
     2    1    4 2   
     3    1    5 1   
     4    5    6 1   
     5    6    7 1   
     6    6   35 1   
     7    6   36 1   
     8    7    8 1   
     9    7    9 1   
    10    7   37 1   
    11    8   13 1   
    12    9   10 1   
    13    9   11 1   
    14    9   38 1   
    15   10   39 1   
    16   11   12 1   
    17   11   13 1   
    18   11   40 1   
    19   12   41 1   
    20   13   14 1   
    21   13   42 1   
    22   14   15 2   
    23   14   24 1   
    24   15   16 2   
    25   16   17 1   
    26   17   24 3   
    27   18   19 1   
    28   18   21 3   
    29   19   20 1   
    30   19   25 1   
    31   20   44 1   
    32   20   45 1   
    33   20   46 1   
    34   22   23 3   
    35   22   47 1   
    36   25   26 2   
    37   25   27 1   
    38   27   28 1   
    39   27   48 1   
    40   28   29 1   
    41   28   32 1   
    42   28   49 1   
    43   29   30 1   
    44   29   31 1   
    45   32   33 1   
    46   32   34 1   
    47   32   50 1   
    48   33   51 1   
    49   34   52 1   
    50   34   53 1   
    51   34   54 1   
@<TRIPOS>SUBSTRUCTURE
     1 AET         1 TEMP              0 ****  ****    0 ROOT
