@<TRIPOS>MOLECULE
AET
   54    56     1     0     0
SMALL
bcc


@<TRIPOS>ATOM
      1 P           1.4160    0.9200   -6.9970 p5        1 AET      1.335900
      2 OP1         2.5180    1.5770   -6.2180 o         1 AET     -0.931833
      3 OP2         1.7140    0.4520   -8.3880 o         1 AET     -0.931833
      4 OP3         0.0440    1.5270   -6.7680 o         1 AET     -0.931833
      5 O5'         1.1820   -0.5610   -6.1100 os        1 AET     -0.559200
      6 C5'         0.8670   -0.3820   -4.7910 c3        1 AET      0.231400
      7 C4'        -0.6500   -0.5930   -4.5650 c3        1 AET      0.055100
      8 O4'        -0.8740   -1.3260   -3.3360 os        1 AET     -0.436600
      9 C3'        -1.4540    0.7180   -4.5010 c3        1 AET      0.130100
     10 O3'        -2.3200    0.8340   -5.6070 oh        1 AET     -0.687800
     11 C2'        -2.3040    0.6280   -3.2150 c3        1 AET      0.102100
     12 O2'        -3.6890    0.4590   -3.4300 oh        1 AET     -0.612800
     13 C1'        -1.7620   -0.6380   -2.4680 c3        1 AET      0.220800
     14 N9         -1.0800   -0.3390   -1.2170 na        1 AET     -0.260000
     15 C8          0.2550    0.0860   -1.0510 cc        1 AET      0.439700
     16 N7          0.6310    0.1950    0.2340 nd        1 AET     -0.585100
     17 C5         -0.4870   -0.1890    0.9890 ca        1 AET     -0.201200
     18 C6         -0.7470   -0.3090    2.3950 ca        1 AET      0.646200
     19 N6          0.1910    0.0390    3.3670 n         1 AET     -0.485300
     20 CM6         1.4500    0.6340    3.0140 c3        1 AET      0.086300
     21 N1         -1.9860   -0.7400    2.8010 nb        1 AET     -0.768000
     22 C2         -2.9010   -1.0420    1.8430 ca        1 AET      0.649900
     23 N3         -2.8080   -0.9820    0.4970 nb        1 AET     -0.727000
     24 C4         -1.5820   -0.5450    0.0750 ca        1 AET      0.438800
     25 C10         0.0830   -0.5100    4.7100 c         1 AET      0.779100
     26 O10        -0.0520   -1.7420    4.8680 o         1 AET     -0.613100
     27 N11         0.0940    0.3890    5.7720 n         1 AET     -0.489900
     28 C12         0.5390   -0.0290    7.0800 c3        1 AET     -0.072300
     29 C13         0.1430    1.0330    8.1700 c         1 AET      0.919600
     30 ODA        -0.4640    0.6160    9.1890 o         1 AET     -0.832800
     31 ODB         0.5180    2.2260    7.9760 o         1 AET     -0.832800
     32 C14         2.0740   -0.2140    7.2050 c3        1 AET      0.127100
     33 O14         2.7890    0.9330    6.7630 oh        1 AET     -0.649800
     34 C15         2.5900   -1.3910    6.4010 c3        1 AET     -0.094100
     35 H5'         1.1670    0.6460   -4.4380 h1        1 AET     -0.000800
     36 H5''        1.4030   -1.1530   -4.1630 h1        1 AET     -0.000800
     37 H4'        -1.0520   -1.2550   -5.3810 h1        1 AET      0.076700
     38 H3'        -0.7670    1.6080   -4.4660 h1        1 AET      0.104700
     39 HO3'       -1.7400    1.0940   -6.3650 ho        1 AET      0.515000
     40 H2'        -2.2110    1.5570   -2.5950 h1        1 AET      0.069700
     41 HO2'       -3.8100    0.1140   -4.3250 ho        1 AET      0.425000
     42 H1'        -2.6100   -1.3460   -2.2270 h2        1 AET      0.087700
     43 H8          0.8870    0.2800   -1.9350 h5        1 AET      0.105800
     44 HM61        2.0100    0.9130    3.9480 h1        1 AET      0.051700
     45 HM62        2.0850   -0.0790    2.4210 h1        1 AET      0.051700
     46 HM63        1.2760    1.5620    2.4060 h1        1 AET      0.051700
     47 H2         -3.8770   -1.3910    2.2370 h5        1 AET      0.029100
     48 HN1         0.2500    1.3570    5.5830 hn        1 AET      0.316500
     49 H12         0.0430   -1.0100    7.3270 h1        1 AET      0.081700
     50 H14         2.2940   -0.3750    8.3000 h1        1 AET      0.030700
     51 HO4         2.3230    1.7080    7.1210 ho        1 AET      0.443000
     52 H151        3.6540   -1.6000    6.6600 hc        1 AET      0.034367
     53 H152        1.9680   -2.2930    6.6130 hc        1 AET      0.034367
     54 H153        2.5300   -1.1700    5.3070 hc        1 AET      0.034367
@<TRIPOS>BOND
     1    1    2 1   
     2    1    3 1   
     3    1    4 1   
     4    1    5 1   
     5    5    6 1   
     6    6    7 1   
     7    6   35 1   
     8    6   36 1   
     9    7    8 1   
    10    7    9 1   
    11    7   37 1   
    12    8   13 1   
    13    9   10 1   
    14    9   11 1   
    15    9   38 1   
    16   10   39 1   
    17   11   12 1   
    18   11   13 1   
    19   11   40 1   
    20   12   41 1   
    21   13   14 1   
    22   13   42 1   
    23   14   15 1   
    24   14   24 1   
    25   15   16 2   
    26   15   43 1   
    27   16   17 1   
    28   17   18 ar  
    29   17   24 ar  
    30   18   19 1   
    31   18   21 ar  
    32   19   20 1   
    33   19   25 1   
    34   20   44 1   
    35   20   45 1   
    36   20   46 1   
    37   21   22 ar  
    38   22   23 ar  
    39   22   47 1   
    40   23   24 ar  
    41   25   26 2   
    42   25   27 1   
    43   27   28 1   
    44   27   48 1   
    45   28   29 1   
    46   28   32 1   
    47   28   49 1   
    48   29   30 1   
    49   29   31 1   
    50   32   33 1   
    51   32   34 1   
    52   32   50 1   
    53   33   51 1   
    54   34   52 1   
    55   34   53 1   
    56   34   54 1   
@<TRIPOS>SUBSTRUCTURE
     1 AET         1 TEMP              0 ****  ****    0 ROOT
