@<TRIPOS>MOLECULE
AEW
   48    49     1     0     0
SMALL
bcc


@<TRIPOS>ATOM
      1 CAV         8.9370   -0.5990   -1.1320 c3        1 AEW     -0.093100
      2 CAU         7.9370    0.2820   -0.4300 c3        1 AEW     -0.080400
      3 CAT         6.5420   -0.3010   -0.4930 c3        1 AEW     -0.079400
      4 CAS         5.5410    0.5880    0.2130 c3        1 AEW     -0.080400
      5 CAR         4.1470    0.0020    0.1470 c3        1 AEW     -0.075400
      6 CAQ         3.1490    0.8940    0.8620 c3        1 AEW     -0.049200
      7 CAM         1.7640    0.3570    0.7690 cc        1 AEW      0.018800
      8 CAH         1.1080   -0.1350    1.8560 cd        1 AEW     -0.261200
      9 CAC        -0.2580   -0.6510    1.7640 c         1 AEW      0.688700
     10 OAA        -0.8860   -1.1230    2.7340 o         1 AEW     -0.646500
     11 CAN         1.0970    0.3730   -0.5000 cc        1 AEW     -0.252000
     12 CAI        -0.1840   -0.1020   -0.5960 cd        1 AEW      0.014600
     13 NAD        -0.8710   -0.6160    0.4850 n         1 AEW     -0.344000
     14 CAE        -2.2210   -1.1090    0.3030 c3        1 AEW      0.116300
     15 CAF        -3.2750   -0.1120   -0.0990 ca        1 AEW     -0.062300
     16 CAG        -4.5620   -0.5930   -0.3970 ca        1 AEW     -0.129300
     17 CAB        -4.9040   -2.0340   -0.3000 c3        1 AEW     -0.053800
     18 CAJ        -3.0020    1.2560   -0.1700 ca        1 AEW     -0.165000
     19 CAO        -3.9970    2.1530   -0.5510 ca        1 AEW     -0.093000
     20 CAP        -5.2700    1.7020   -0.8670 ca        1 AEW     -0.188000
     21 CAK        -5.5730    0.3220   -0.8030 ca        1 AEW      0.139600
     22 NAL        -6.8340   -0.1260   -1.2180 nh        1 AEW     -0.817200
     23 HAV1        8.9690   -1.6120   -0.6630 hc        1 AEW      0.033367
     24 HAV2        8.6670   -0.7220   -2.2090 hc        1 AEW      0.033367
     25 HAV3        9.9580   -0.1510   -1.0730 hc        1 AEW      0.033367
     26 HAU1        8.2390    0.4130    0.6430 hc        1 AEW      0.038700
     27 HAU2        7.9380    1.3020   -0.8990 hc        1 AEW      0.038700
     28 HAT1        6.2380   -0.4320   -1.5650 hc        1 AEW      0.040700
     29 HAT2        6.5390   -1.3200   -0.0230 hc        1 AEW      0.040700
     30 HAS1        5.8450    0.7170    1.2860 hc        1 AEW      0.040700
     31 HAS2        5.5450    1.6060   -0.2560 hc        1 AEW      0.040700
     32 HAR1        3.8390   -0.1240   -0.9240 hc        1 AEW      0.046200
     33 HAR2        4.1430   -1.0170    0.6160 hc        1 AEW      0.046200
     34 HAQ1        3.4500    1.0010    1.9380 hc        1 AEW      0.054700
     35 HAQ2        3.1710    1.9210    0.4050 hc        1 AEW      0.054700
     36 HAH         1.5540   -0.1720    2.8600 ha        1 AEW      0.162000
     37 HAN         1.6160    0.7660   -1.3830 ha        1 AEW      0.150000
     38 HAI        -0.7370   -0.0950   -1.5550 h4        1 AEW      0.158000
     39 HAE1       -2.1780   -1.9140   -0.4910 h1        1 AEW      0.083200
     40 HAE2       -2.5430   -1.5840    1.2800 h1        1 AEW      0.083200
     41 HAJ        -2.0070    1.6500    0.0810 ha        1 AEW      0.138000
     42 HAB1       -5.7670   -2.1830    0.3990 hc        1 AEW      0.044033
     43 HAB2       -5.1910   -2.4330   -1.3060 hc        1 AEW      0.044033
     44 HAB3       -4.0630   -2.6580    0.0860 hc        1 AEW      0.044033
     45 HAO        -3.7720    3.2290   -0.5990 ha        1 AEW      0.132000
     46 HAP        -6.0420    2.4240   -1.1730 ha        1 AEW      0.132000
     47 HAL1       -7.1220   -0.9890   -0.8140 hn        1 AEW      0.388800
     48 HAL2       -7.5420    0.5740   -1.1820 hn        1 AEW      0.388800
@<TRIPOS>BOND
     1    1    2 1   
     2    1   23 1   
     3    1   24 1   
     4    1   25 1   
     5    2    3 1   
     6    2   26 1   
     7    2   27 1   
     8    3    4 1   
     9    3   28 1   
    10    3   29 1   
    11    4    5 1   
    12    4   30 1   
    13    4   31 1   
    14    5    6 1   
    15    5   32 1   
    16    5   33 1   
    17    6    7 1   
    18    6   34 1   
    19    6   35 1   
    20    7    8 2   
    21    7   11 1   
    22    8    9 1   
    23    8   36 1   
    24    9   10 2   
    25    9   13 1   
    26   11   12 2   
    27   11   37 1   
    28   12   13 1   
    29   12   38 1   
    30   13   14 1   
    31   14   15 1   
    32   14   39 1   
    33   14   40 1   
    34   15   16 ar  
    35   15   18 ar  
    36   16   17 1   
    37   16   21 ar  
    38   17   42 1   
    39   17   43 1   
    40   17   44 1   
    41   18   19 ar  
    42   18   41 1   
    43   19   20 ar  
    44   19   45 1   
    45   20   21 ar  
    46   20   46 1   
    47   21   22 1   
    48   22   47 1   
    49   22   48 1   
@<TRIPOS>SUBSTRUCTURE
     1 AEW         1 TEMP              0 ****  ****    0 ROOT
