@<TRIPOS>MOLECULE
AEW
   48    45     1     0     0
SMALL
bcc


@<TRIPOS>ATOM
      1 CAV        -4.7860   -0.2570   -6.1360 c3        1 AEW     -0.211000
      2 CAU        -3.2900   -0.4590   -6.0410 c3        1 AEW     -0.159000
      3 CAT        -2.8060   -0.0110   -4.6810 c3        1 AEW     -0.158000
      4 CAS        -1.3290   -0.3060   -4.5490 c3        1 AEW     -0.159000
      5 CAR        -0.9040   -0.1140   -3.1090 c3        1 AEW     -0.154000
      6 CAQ         0.5860   -0.3570   -2.9870 c3        1 AEW     -0.133000
      7 CAM         1.0140   -0.1520   -1.5490 c2        1 AEW      0.023000
      8 CAH         0.9430   -1.2680   -0.5950 c1        1 AEW     -0.242000
      9 CAC         1.4620   -1.0890    0.8150 c1        1 AEW      0.327000
     10 OAA         1.4030   -2.0110    1.6040 o         1 AEW     -0.371000
     11 CAN         1.5980    1.1290   -1.1320 c2        1 AEW     -0.252000
     12 CAI         2.0730    1.3140    0.2920 c1        1 AEW      0.012000
     13 NAD         2.0430    0.1890    1.2250 n2        1 AEW     -0.237000
     14 CAE         2.6480    0.3140    2.5070 c3        1 AEW     -0.007000
     15 CAF         1.5720    0.4400    3.5620 c2        1 AEW     -0.055000
     16 CAG         1.8380    0.0680    4.8700 c2        1 AEW     -0.122000
     17 CAB         3.2210   -0.4210    5.2520 c3        1 AEW     -0.179000
     18 CAJ         0.3280    0.9490    3.2250 c1        1 AEW     -0.165000
     19 CAO        -0.6500    1.0870    4.1970 c1        1 AEW     -0.140500
     20 CAP        -0.3850    0.7150    5.5060 c1        1 AEW     -0.140500
     21 CAK         0.8590    0.2050    5.8430 c1        1 AEW      0.058000
     22 NAL         1.1100   -0.2350    7.1680 n3        1 AEW     -0.326000
     23 HAV1       -5.1240   -0.6930   -6.9460 hc        1 AEW      0.072667
     24 HAV2       -4.9840    0.7020   -6.1750 hc        1 AEW      0.072667
     25 HAV3       -5.2200   -0.6480   -5.3490 hc        1 AEW      0.072667
     26 HAU1       -3.0800   -1.4070   -6.1660 hc        1 AEW      0.078500
     27 HAU2       -2.8450    0.0670   -6.7350 hc        1 AEW      0.078500
     28 HAT1       -2.9570    0.9500   -4.5820 hc        1 AEW      0.080000
     29 HAT2       -3.2980   -0.4920   -3.9860 hc        1 AEW      0.080000
     30 HAS1       -0.8230    0.3030   -5.1220 hc        1 AEW      0.080000
     31 HAS2       -1.1550   -1.2300   -4.8200 hc        1 AEW      0.080000
     32 HAR1       -1.1090    0.8000   -2.8270 hc        1 AEW      0.085500
     33 HAR2       -1.3850   -0.7470   -2.5400 hc        1 AEW      0.085500
     34 HAQ1        1.0670    0.2710   -3.5630 hc        1 AEW      0.094000
     35 HAQ2        0.7910   -1.2740   -3.2610 hc        1 AEW      0.094000
     36 HAH         0.6080   -2.1370   -0.8850 ha        1 AEW      0.162000
     37 HAN         1.6190    1.8810   -1.7540 ha        1 AEW      0.150000
     38 HAI         2.4610    2.1650    0.5690 ha        1 AEW      0.158000
     39 HAE1        3.1930   -0.4790    2.6890 h1        1 AEW      0.122500
     40 HAE2        3.2160    1.1110    2.5230 h1        1 AEW      0.122500
     41 HAJ         0.1410    1.2110    2.3040 ha        1 AEW      0.138000
     42 HAB1        3.8960    0.0910    4.7590 hc        1 AEW      0.083333
     43 HAB2        3.3560   -0.2980    6.2140 hc        1 AEW      0.083333
     44 HAB3        3.3050   -1.3710    5.0280 hc        1 AEW      0.083333
     45 HAO        -1.5270    1.4460    3.9610 ha        1 AEW      0.132000
     46 HAP        -1.0740    0.8120    6.1900 ha        1 AEW      0.132000
     47 HAL1        1.9610   -0.4400    7.4280 hn        1 AEW      0.184000
     48 HAL2        0.4180   -0.3240    7.7590 hn        1 AEW      0.184000
@<TRIPOS>BOND
     1    1    2 1   
     2    1   23 1   
     3    1   24 1   
     4    1   25 1   
     5    2    3 1   
     6    2   26 1   
     7    2   27 1   
     8    3    4 1   
     9    3   28 1   
    10    3   29 1   
    11    4    5 1   
    12    4   30 1   
    13    4   31 1   
    14    5    6 1   
    15    5   32 1   
    16    5   33 1   
    17    6    7 1   
    18    6   34 1   
    19    6   35 1   
    20    7    8 1   
    21    7   11 1   
    22    8   36 1   
    23    9   10 1   
    24    9   13 1   
    25   11   12 1   
    26   11   37 1   
    27   12   38 1   
    28   13   14 1   
    29   14   15 1   
    30   14   39 1   
    31   14   40 1   
    32   15   16 1   
    33   15   18 1   
    34   16   17 1   
    35   16   21 1   
    36   17   42 1   
    37   17   43 1   
    38   17   44 1   
    39   18   41 1   
    40   19   20 1   
    41   19   45 1   
    42   20   46 1   
    43   21   22 1   
    44   22   47 1   
    45   22   48 1   
@<TRIPOS>SUBSTRUCTURE
     1 AEW         1 TEMP              0 ****  ****    0 ROOT
