@<TRIPOS>MOLECULE
AEW
   49    50     1     0     0
SMALL
bcc


@<TRIPOS>ATOM
      1 CAV         0.1140    0.2030   -0.1040 c3        1 AEW     -0.094100
      2 CAU         1.5230   -0.3020    0.0670 c3        1 AEW     -0.079400
      3 CAT         2.0700    0.0370    1.4380 c3        1 AEW     -0.079400
      4 CAS         3.4850   -0.4730    1.6050 c3        1 AEW     -0.080400
      5 CAR         4.0290   -0.1310    2.9760 c3        1 AEW     -0.075400
      6 CAQ         5.4460   -0.6490    3.1390 c3        1 AEW     -0.056200
      7 CAM         6.0180   -0.2850    4.4630 cc        1 AEW      0.030800
      8 CAH         6.2720   -1.2190    5.4220 cd        1 AEW     -0.253200
      9 CAC         6.8420   -0.8540    6.7160 c         1 AEW      0.698700
     10 OAA         7.1020   -1.6720    7.6250 o         1 AEW     -0.676500
     11 CAN         6.3190    1.0930    4.7350 cc        1 AEW     -0.212000
     12 CAI         6.8480    1.4490    5.9440 cd        1 AEW     -0.012400
     13 NAD         7.1150    0.5200    6.9380 n         1 AEW     -0.358000
     14 CAE         7.6320    0.9550    8.2160 c3        1 AEW      0.127300
     15 CAF         9.1290    0.8010    8.3550 ca        1 AEW     -0.084300
     16 CAG         9.6950   -0.1010    9.2770 ca        1 AEW      0.008700
     17 CAB         8.8220   -0.9140   10.1560 c3        1 AEW     -0.107800
     18 CAJ         9.9480    1.5830    7.5370 ca        1 AEW     -0.059000
     19 CAO        11.3380    1.4880    7.6070 ca        1 AEW     -0.108000
     20 CAP        11.9270    0.5960    8.4930 ca        1 AEW     -0.098000
     21 CAK        11.1040   -0.1940    9.3180 ca        1 AEW     -0.089400
     22 NAL        11.7480   -1.1490   10.2230 n4        1 AEW     -0.698000
     23 HAV1       -0.2700   -0.0570   -1.1210 hc        1 AEW      0.035700
     24 HAV2       -0.5650   -0.2540    0.6560 hc        1 AEW      0.035700
     25 HAV3        0.0750    1.3130    0.0130 hc        1 AEW      0.035700
     26 HAU1        2.1830    0.1480   -0.7210 hc        1 AEW      0.040200
     27 HAU2        1.5450   -1.4140   -0.0800 hc        1 AEW      0.040200
     28 HAT1        2.0490    1.1490    1.5860 hc        1 AEW      0.041700
     29 HAT2        1.4110   -0.4140    2.2270 hc        1 AEW      0.041700
     30 HAS1        3.5040   -1.5850    1.4580 hc        1 AEW      0.043200
     31 HAS2        4.1430   -0.0230    0.8150 hc        1 AEW      0.043200
     32 HAR1        4.0140    0.9810    3.1230 hc        1 AEW      0.046700
     33 HAR2        3.3700   -0.5800    3.7660 hc        1 AEW      0.046700
     34 HAQ1        5.4510   -1.7650    3.0100 hc        1 AEW      0.062200
     35 HAQ2        6.0980   -0.2160    2.3310 hc        1 AEW      0.062200
     36 HAH         6.0630   -2.2900    5.2880 ha        1 AEW      0.173000
     37 HAN         6.1130    1.8530    3.9680 ha        1 AEW      0.164000
     38 HAI         7.0760    2.5030    6.1880 h4        1 AEW      0.152000
     39 HAE1        7.3820    2.0460    8.3680 h1        1 AEW      0.085200
     40 HAE2        7.0990    0.3620    9.0160 h1        1 AEW      0.085200
     41 HAJ         9.4860    2.2830    6.8180 ha        1 AEW      0.164000
     42 HAB1        9.3670   -1.6220   10.8230 hc        1 AEW      0.080367
     43 HAB2        8.1130   -1.5230    9.5250 hc        1 AEW      0.080367
     44 HAB3        8.2100   -0.2420   10.8120 hc        1 AEW      0.080367
     45 HAO        11.9710    2.1140    6.9570 ha        1 AEW      0.173000
     46 HAP        13.0270    0.5190    8.5340 ha        1 AEW      0.154000
     47 HAL1       11.4250   -2.0990   10.0000 hn        1 AEW      0.462800
     48 HAL2       11.4940   -0.9290   11.1930 hn        1 AEW      0.462800
     49 HAL3       12.7660   -1.1030   10.1190 hn        1 AEW      0.462800
@<TRIPOS>BOND
     1    1    2 1   
     2    1   23 1   
     3    1   24 1   
     4    1   25 1   
     5    2    3 1   
     6    2   26 1   
     7    2   27 1   
     8    3    4 1   
     9    3   28 1   
    10    3   29 1   
    11    4    5 1   
    12    4   30 1   
    13    4   31 1   
    14    5    6 1   
    15    5   32 1   
    16    5   33 1   
    17    6    7 1   
    18    6   34 1   
    19    6   35 1   
    20    7    8 2   
    21    7   11 1   
    22    8    9 1   
    23    8   36 1   
    24    9   10 2   
    25    9   13 1   
    26   11   12 2   
    27   11   37 1   
    28   12   13 1   
    29   12   38 1   
    30   13   14 1   
    31   14   15 1   
    32   14   39 1   
    33   14   40 1   
    34   15   16 ar  
    35   15   18 ar  
    36   16   17 1   
    37   16   21 ar  
    38   17   42 1   
    39   17   43 1   
    40   17   44 1   
    41   18   19 ar  
    42   18   41 1   
    43   19   20 ar  
    44   19   45 1   
    45   20   21 ar  
    46   20   46 1   
    47   21   22 1   
    48   22   47 1   
    49   22   48 1   
    50   22   49 1   
@<TRIPOS>SUBSTRUCTURE
     1 AEW         1 TEMP              0 ****  ****    0 ROOT
