@<TRIPOS>MOLECULE
AEW
   48    49     1     0     0
SMALL
bcc


@<TRIPOS>ATOM
      1 CAV         0.0260    1.0520    0.1570 c3        1 AEW     -0.093100
      2 CAU         1.4390    0.5310    0.1220 c3        1 AEW     -0.080400
      3 CAT         2.0260    0.4240    1.5130 c3        1 AEW     -0.079400
      4 CAS         3.4460   -0.1000    1.4720 c3        1 AEW     -0.080400
      5 CAR         4.0300   -0.2050    2.8650 c3        1 AEW     -0.075400
      6 CAQ         5.4510   -0.7360    2.8180 c3        1 AEW     -0.049200
      7 CAM         6.0580   -0.8040    4.1750 cc        1 AEW      0.018800
      8 CAH         6.3330   -1.9920    4.7820 cd        1 AEW     -0.261200
      9 CAC         6.9410   -2.0570    6.1110 c         1 AEW      0.688700
     10 OAA         7.1910   -3.1250    6.7060 o         1 AEW     -0.644500
     11 CAN         6.3780    0.4160    4.8550 cc        1 AEW     -0.252000
     12 CAI         6.9550    0.3670    6.0960 cd        1 AEW      0.014600
     13 NAD         7.2360   -0.8200    6.7410 n         1 AEW     -0.344000
     14 CAE         7.8340   -0.7920    8.0600 c3        1 AEW      0.116300
     15 CAF         9.1870   -0.1430    8.1920 ca        1 AEW     -0.063300
     16 CAG         9.6930    0.0770    9.4850 ca        1 AEW     -0.129300
     17 CAB         8.9570   -0.3500   10.7000 c3        1 AEW     -0.055800
     18 CAJ         9.9350    0.2230    7.0720 ca        1 AEW     -0.166000
     19 CAO        11.1790    0.8310    7.2240 ca        1 AEW     -0.093000
     20 CAP        11.6870    1.0900    8.4890 ca        1 AEW     -0.190000
     21 CAK        10.9570    0.7130    9.6400 ca        1 AEW      0.142600
     22 NAL        11.5220    0.9020   10.9070 nv        1 AEW     -0.819200
     23 HAV1       -0.6300    0.3720    0.7530 hc        1 AEW      0.033367
     24 HAV2       -0.0090    2.0670    0.6220 hc        1 AEW      0.033367
     25 HAV3       -0.3880    1.1230   -0.8780 hc        1 AEW      0.033367
     26 HAU1        2.0770    1.2130   -0.5010 hc        1 AEW      0.039200
     27 HAU2        1.4570   -0.4770   -0.3700 hc        1 AEW      0.039200
     28 HAT1        2.0110    1.4310    2.0060 hc        1 AEW      0.040700
     29 HAT2        1.3910   -0.2590    2.1370 hc        1 AEW      0.040700
     30 HAS1        4.0810    0.5820    0.8470 hc        1 AEW      0.040700
     31 HAS2        3.4610   -1.1080    0.9800 hc        1 AEW      0.040700
     32 HAR1        3.3950   -0.8860    3.4900 hc        1 AEW      0.046200
     33 HAR2        4.0210    0.8030    3.3570 hc        1 AEW      0.046200
     34 HAQ1        5.4530   -1.7530    2.3430 hc        1 AEW      0.054700
     35 HAQ2        6.0800   -0.0640    2.1720 hc        1 AEW      0.054700
     36 HAH         6.1220   -2.9660    4.3180 ha        1 AEW      0.162000
     37 HAN         6.1610    1.3790    4.3760 ha        1 AEW      0.150000
     38 HAI         7.2280    1.2870    6.6480 h4        1 AEW      0.157000
     39 HAE1        7.9240   -1.8630    8.4180 h1        1 AEW      0.083700
     40 HAE2        7.1130   -0.2460    8.7390 h1        1 AEW      0.083700
     41 HAJ         9.5650    0.0300    6.0540 ha        1 AEW      0.138000
     42 HAB1        8.0530   -0.9640   10.4670 hc        1 AEW      0.044700
     43 HAB2        9.6140   -0.9780   11.3540 hc        1 AEW      0.044700
     44 HAB3        8.6220    0.5440   11.2860 hc        1 AEW      0.044700
     45 HAO        11.7630    1.1110    6.3340 ha        1 AEW      0.132000
     46 HAP        12.6680    1.5770    8.5910 ha        1 AEW      0.132000
     47 HAL1       12.2400    1.5920   10.9340 hn        1 AEW      0.390300
     48 HAL2       10.8620    0.9950   11.6480 hn        1 AEW      0.390300
@<TRIPOS>BOND
     1    1    2 1   
     2    1   23 1   
     3    1   24 1   
     4    1   25 1   
     5    2    3 1   
     6    2   26 1   
     7    2   27 1   
     8    3    4 1   
     9    3   28 1   
    10    3   29 1   
    11    4    5 1   
    12    4   30 1   
    13    4   31 1   
    14    5    6 1   
    15    5   32 1   
    16    5   33 1   
    17    6    7 1   
    18    6   34 1   
    19    6   35 1   
    20    7    8 2   
    21    7   11 1   
    22    8    9 1   
    23    8   36 1   
    24    9   10 2   
    25    9   13 1   
    26   11   12 2   
    27   11   37 1   
    28   12   13 1   
    29   12   38 1   
    30   13   14 1   
    31   14   15 1   
    32   14   39 1   
    33   14   40 1   
    34   15   16 ar  
    35   15   18 ar  
    36   16   17 1   
    37   16   21 ar  
    38   17   42 1   
    39   17   43 1   
    40   17   44 1   
    41   18   19 ar  
    42   18   41 1   
    43   19   20 ar  
    44   19   45 1   
    45   20   21 ar  
    46   20   46 1   
    47   21   22 1   
    48   22   47 1   
    49   22   48 1   
@<TRIPOS>SUBSTRUCTURE
     1 AEW         1 TEMP              0 ****  ****    0 ROOT
