@<TRIPOS>MOLECULE
AEW
   48    49     1     0     0
SMALL
bcc


@<TRIPOS>ATOM
      1 CAV         0.0370    1.0540    0.1410 c3        1 AEW     -0.093100
      2 CAU         1.4470    0.5230    0.1120 c3        1 AEW     -0.080400
      3 CAT         2.0320    0.4230    1.5060 c3        1 AEW     -0.079400
      4 CAS         3.4470   -0.1120    1.4710 c3        1 AEW     -0.080400
      5 CAR         4.0290   -0.2080    2.8650 c3        1 AEW     -0.075400
      6 CAQ         5.4450   -0.7510    2.8260 c3        1 AEW     -0.049200
      7 CAM         6.0510   -0.8110    4.1840 cc        1 AEW      0.018800
      8 CAH         6.3140   -1.9950    4.8030 cd        1 AEW     -0.261200
      9 CAC         6.9200   -2.0520    6.1340 c         1 AEW      0.688700
     10 OAA         7.1600   -3.1160    6.7390 o         1 AEW     -0.644500
     11 CAN         6.3810    0.4130    4.8510 cc        1 AEW     -0.252000
     12 CAI         6.9560    0.3720    6.0940 cd        1 AEW      0.014600
     13 NAD         7.2260   -0.8110    6.7510 n         1 AEW     -0.344000
     14 CAE         7.8230   -0.7750    8.0710 c3        1 AEW      0.116300
     15 CAF         9.1820   -0.1380    8.1970 ca        1 AEW     -0.063300
     16 CAG         9.6900    0.0900    9.4870 ca        1 AEW     -0.129300
     17 CAB         8.9480   -0.3180   10.7060 c3        1 AEW     -0.055800
     18 CAJ         9.9350    0.2090    7.0730 ca        1 AEW     -0.166000
     19 CAO        11.1840    0.8060    7.2210 ca        1 AEW     -0.093000
     20 CAP        11.6940    1.0720    8.4820 ca        1 AEW     -0.190000
     21 CAK        10.9600    0.7140    9.6370 ca        1 AEW      0.142600
     22 NAL        11.5260    0.9110   10.9030 nh        1 AEW     -0.819200
     23 HAV1       -0.6240    0.3840    0.7420 hc        1 AEW      0.033367
     24 HAV2       -0.3740    1.1190   -0.8950 hc        1 AEW      0.033367
     25 HAV3        0.0090    2.0730    0.5970 hc        1 AEW      0.033367
     26 HAU1        1.4580   -0.4900   -0.3700 hc        1 AEW      0.039200
     27 HAU2        2.0900    1.1940   -0.5150 hc        1 AEW      0.039200
     28 HAT1        2.0230    1.4350    1.9890 hc        1 AEW      0.040700
     29 HAT2        1.3900   -0.2490    2.1350 hc        1 AEW      0.040700
     30 HAS1        3.4550   -1.1250    0.9890 hc        1 AEW      0.040700
     31 HAS2        4.0880    0.5590    0.8410 hc        1 AEW      0.040700
     32 HAR1        3.3880   -0.8780    3.4970 hc        1 AEW      0.046200
     33 HAR2        4.0280    0.8050    3.3480 hc        1 AEW      0.046200
     34 HAQ1        5.4390   -1.7730    2.3600 hc        1 AEW      0.054700
     35 HAQ2        6.0800   -0.0910    2.1740 hc        1 AEW      0.054700
     36 HAH         6.0950   -2.9710    4.3490 ha        1 AEW      0.162000
     37 HAN         6.1730    1.3730    4.3630 ha        1 AEW      0.150000
     38 HAI         7.2370    1.2950    6.6360 h4        1 AEW      0.157000
     39 HAE1        7.9020   -1.8430    8.4400 h1        1 AEW      0.083700
     40 HAE2        7.1070   -0.2150    8.7430 h1        1 AEW      0.083700
     41 HAJ         9.5630    0.0090    6.0570 ha        1 AEW      0.138000
     42 HAB1        8.6240    0.5850   11.2840 hc        1 AEW      0.044700
     43 HAB2        9.6000   -0.9460   11.3670 hc        1 AEW      0.044700
     44 HAB3        8.0390   -0.9240   10.4790 hc        1 AEW      0.044700
     45 HAO        11.7710    1.0710    6.3280 ha        1 AEW      0.132000
     46 HAP        12.6800    1.5510    8.5810 ha        1 AEW      0.132000
     47 HAL1       12.2510    1.5930   10.9230 hn        1 AEW      0.390300
     48 HAL2       10.8670    1.0170   11.6420 hn        1 AEW      0.390300
@<TRIPOS>BOND
     1    1    2 1   
     2    1   23 1   
     3    1   24 1   
     4    1   25 1   
     5    2    3 1   
     6    2   26 1   
     7    2   27 1   
     8    3    4 1   
     9    3   28 1   
    10    3   29 1   
    11    4    5 1   
    12    4   30 1   
    13    4   31 1   
    14    5    6 1   
    15    5   32 1   
    16    5   33 1   
    17    6    7 1   
    18    6   34 1   
    19    6   35 1   
    20    7    8 2   
    21    7   11 1   
    22    8    9 1   
    23    8   36 1   
    24    9   10 2   
    25    9   13 1   
    26   11   12 2   
    27   11   37 1   
    28   12   13 1   
    29   12   38 1   
    30   13   14 1   
    31   14   15 1   
    32   14   39 1   
    33   14   40 1   
    34   15   16 ar  
    35   15   18 ar  
    36   16   17 1   
    37   16   21 ar  
    38   17   42 1   
    39   17   43 1   
    40   17   44 1   
    41   18   19 ar  
    42   18   41 1   
    43   19   20 ar  
    44   19   45 1   
    45   20   21 ar  
    46   20   46 1   
    47   21   22 1   
    48   22   47 1   
    49   22   48 1   
@<TRIPOS>SUBSTRUCTURE
     1 AEW         1 TEMP              0 ****  ****    0 ROOT
