@<TRIPOS>MOLECULE
AF
   26    28     1     0     0
SMALL
bcc


@<TRIPOS>ATOM
      1 N          -0.0360    0.0210   -0.0400 n4        1 AF      -0.695000
      2 C2          1.4260    0.0180   -0.0150 ca        1 AF      -0.101400
      3 C3          2.1010    0.0340    1.2150 ca        1 AF      -0.083000
      4 C4          3.4980    0.0320    1.2430 ca        1 AF      -0.104000
      5 C4A         4.2000    0.0130    0.0450 cp        1 AF       0.053000
      6 C4B         5.6290    0.0070   -0.2290 cp        1 AF      -0.098000
      7 C5          6.7210    0.0170    0.6270 ca        1 AF      -0.067000
      8 C6          8.0050    0.0060    0.0690 ca        1 AF      -0.129000
      9 C7          8.1850   -0.0140   -1.3130 ca        1 AF      -0.084000
     10 C8          7.0860   -0.0240   -2.1860 ca        1 AF      -0.113000
     11 C8A         5.8140   -0.0140   -1.6450 ca        1 AF      -0.068300
     12 C9          4.4830   -0.0210   -2.3440 c3        1 AF      -0.000800
     13 C9A         3.4990   -0.0030   -1.2060 ca        1 AF      -0.066300
     14 C1          2.1220   -0.0010   -1.2480 ca        1 AF      -0.095000
     15 HN1        -0.3730   -0.8210   -0.5200 hn        1 AF       0.460133
     16 HN2        -0.4060    0.0350    0.9170 hn        1 AF       0.460133
     17 H3          1.5510    0.0490    2.1710 ha        1 AF       0.153000
     18 H4          4.0280    0.0440    2.2090 ha        1 AF       0.173000
     19 H5          6.5870    0.0320    1.7190 ha        1 AF       0.144000
     20 H6          8.8830    0.0140    0.7340 ha        1 AF       0.153000
     21 H7          9.2040   -0.0220   -1.7310 ha        1 AF       0.153000
     22 H8          7.2420   -0.0400   -3.2750 ha        1 AF       0.152000
     23 H91         4.3620    0.8790   -3.0000 hc        1 AF       0.093700
     24 H92         4.3580   -0.9390   -2.9740 hc        1 AF       0.093700
     25 H1          1.5900   -0.0130   -2.2120 ha        1 AF       0.155000
     26 HN3        -0.3700    0.8500   -0.5430 hn        1 AF       0.460133
@<TRIPOS>BOND
     1    1    2 1   
     2    1   15 1   
     3    1   16 1   
     4    1   26 1   
     5    2    3 ar  
     6    2   14 ar  
     7    3    4 ar  
     8    3   17 1   
     9    4    5 ar  
    10    4   18 1   
    11    5    6 1   
    12    5   13 ar  
    13    6    7 ar  
    14    6   11 ar  
    15    7    8 ar  
    16    7   19 1   
    17    8    9 ar  
    18    8   20 1   
    19    9   10 ar  
    20    9   21 1   
    21   10   11 ar  
    22   10   22 1   
    23   11   12 1   
    24   12   13 1   
    25   12   23 1   
    26   12   24 1   
    27   13   14 ar  
    28   14   25 1   
@<TRIPOS>SUBSTRUCTURE
     1 AF          1 TEMP              0 ****  ****    0 ROOT
