@<TRIPOS>MOLECULE
AF
   25    27     1     0     0
SMALL
bcc


@<TRIPOS>ATOM
      1 N          -0.0090   -0.1470   -0.0350 nv        1 AF      -0.820200
      2 C2          1.3860   -0.0550   -0.0120 ca        1 AF       0.147600
      3 C3          2.0910   -0.1200    1.2110 ca        1 AF      -0.201000
      4 C4          3.4860   -0.1230    1.2420 ca        1 AF      -0.063000
      5 C4A         4.1910   -0.0520    0.0530 cp        1 AF      -0.087000
      6 C4B         5.6240   -0.0320   -0.2240 cp        1 AF      -0.026000
      7 C5          6.7200   -0.0810    0.6220 ca        1 AF      -0.112000
      8 C6          8.0040   -0.0440    0.0600 ca        1 AF      -0.130000
      9 C7          8.1800    0.0390   -1.3170 ca        1 AF      -0.132000
     10 C8          7.0760    0.0890   -2.1820 ca        1 AF      -0.116000
     11 C8A         5.8060    0.0530   -1.6400 ca        1 AF      -0.091300
     12 C9          4.4700    0.0910   -2.3290 c3        1 AF       0.004200
     13 C9A         3.4900    0.0220   -1.1890 ca        1 AF      -0.046300
     14 C1          2.1140    0.0250   -1.2320 ca        1 AF      -0.177000
     15 HN1        -0.4550    0.1250    0.8130 hn        1 AF       0.390300
     16 HN2        -0.4350    0.2400   -0.8470 hn        1 AF       0.390300
     17 H3          1.5380   -0.1800    2.1600 ha        1 AF       0.131000
     18 H4          4.0140   -0.1800    2.2050 ha        1 AF       0.134000
     19 H5          6.5890   -0.1470    1.7110 ha        1 AF       0.134000
     20 H6          8.8810   -0.0830    0.7220 ha        1 AF       0.130000
     21 H7          9.1950    0.0670   -1.7390 ha        1 AF       0.130000
     22 H8          7.2260    0.1540   -3.2690 ha        1 AF       0.132000
     23 H91         4.3460   -0.7800   -3.0220 hc        1 AF       0.072700
     24 H92         4.3420    1.0340   -2.9170 hc        1 AF       0.072700
     25 H1          1.5850    0.0780   -2.1940 ha        1 AF       0.134000
@<TRIPOS>BOND
     1    1    2 1   
     2    1   15 1   
     3    1   16 1   
     4    2    3 ar  
     5    2   14 ar  
     6    3    4 ar  
     7    3   17 1   
     8    4    5 ar  
     9    4   18 1   
    10    5    6 1   
    11    5   13 ar  
    12    6    7 ar  
    13    6   11 ar  
    14    7    8 ar  
    15    7   19 1   
    16    8    9 ar  
    17    8   20 1   
    18    9   10 ar  
    19    9   21 1   
    20   10   11 ar  
    21   10   22 1   
    22   11   12 1   
    23   12   13 1   
    24   12   23 1   
    25   12   24 1   
    26   13   14 ar  
    27   14   25 1   
@<TRIPOS>SUBSTRUCTURE
     1 AF          1 TEMP              0 ****  ****    0 ROOT
