@<TRIPOS>MOLECULE
AF
   25    27     1     0     0
SMALL
bcc


@<TRIPOS>ATOM
      1 N          -0.2480   -0.1490    4.4410 nh        1 AF      -0.820200
      2 C2         -0.0040   -0.0460    3.0680 ca        1 AF       0.147600
      3 C3          1.3180   -0.0330    2.5710 ca        1 AF      -0.201000
      4 C4          1.5750   -0.0230    1.1990 ca        1 AF      -0.063000
      5 C4A         0.5150   -0.0180    0.3100 cp        1 AF      -0.087000
      6 C4B         0.4730   -0.0040   -1.1480 cp        1 AF      -0.026000
      7 C5          1.4870    0.0060   -2.0920 ca        1 AF      -0.112000
      8 C6          1.1410    0.0190   -3.4500 ca        1 AF      -0.130000
      9 C7         -0.1930    0.0210   -3.8480 ca        1 AF      -0.132000
     10 C8         -1.2270    0.0100   -2.9000 ca        1 AF      -0.116000
     11 C8A        -0.8960   -0.0020   -1.5580 ca        1 AF      -0.091300
     12 C9         -1.7950   -0.0160   -0.3520 c3        1 AF       0.004200
     13 C9A        -0.8270   -0.0240    0.8000 ca        1 AF      -0.046300
     14 C1         -1.0930   -0.0340    2.1510 ca        1 AF      -0.177000
     15 HN1        -1.1410    0.1850    4.7280 hn        1 AF       0.390300
     16 HN2         0.4980    0.1700    5.0180 hn        1 AF       0.390300
     17 H3          2.1670   -0.0400    3.2710 ha        1 AF       0.131000
     18 H4          2.6130   -0.0180    0.8360 ha        1 AF       0.134000
     19 H5          2.5420    0.0040   -1.7860 ha        1 AF       0.134000
     20 H6          1.9370    0.0270   -4.2090 ha        1 AF       0.130000
     21 H7         -0.4450    0.0310   -4.9190 ha        1 AF       0.130000
     22 H8         -2.2760    0.0110   -3.2250 ha        1 AF       0.132000
     23 H91        -2.4450   -0.9280   -0.3400 hc        1 AF       0.072700
     24 H92        -2.4520    0.8900   -0.3240 hc        1 AF       0.072700
     25 H1         -2.1300   -0.0420    2.5170 ha        1 AF       0.134000
@<TRIPOS>BOND
     1    1    2 1   
     2    1   15 1   
     3    1   16 1   
     4    2    3 ar  
     5    2   14 ar  
     6    3    4 ar  
     7    3   17 1   
     8    4    5 ar  
     9    4   18 1   
    10    5    6 1   
    11    5   13 ar  
    12    6    7 ar  
    13    6   11 ar  
    14    7    8 ar  
    15    7   19 1   
    16    8    9 ar  
    17    8   20 1   
    18    9   10 ar  
    19    9   21 1   
    20   10   11 ar  
    21   10   22 1   
    22   11   12 1   
    23   12   13 1   
    24   12   23 1   
    25   12   24 1   
    26   13   14 ar  
    27   14   25 1   
@<TRIPOS>SUBSTRUCTURE
     1 AF          1 TEMP              0 ****  ****    0 ROOT
