@<TRIPOS>MOLECULE
AF
   25    27     1     0     0
SMALL
bcc


@<TRIPOS>ATOM
      1 N          -0.0110   -0.1510   -0.0540 nh        1 AF      -0.820200
      2 C2          1.3840   -0.0570   -0.0250 ca        1 AF       0.147600
      3 C3          2.0830   -0.1140    1.2010 ca        1 AF      -0.201000
      4 C4          3.4780   -0.1140    1.2380 ca        1 AF      -0.063000
      5 C4A         4.1890   -0.0480    0.0520 cp        1 AF      -0.087000
      6 C4B         5.6220   -0.0280   -0.2180 cp        1 AF      -0.026000
      7 C5          6.7140   -0.0690    0.6330 ca        1 AF      -0.112000
      8 C6          8.0010   -0.0340    0.0770 ca        1 AF      -0.130000
      9 C7          8.1830    0.0410   -1.3010 ca        1 AF      -0.132000
     10 C8          7.0830    0.0830   -2.1710 ca        1 AF      -0.116000
     11 C8A         5.8110    0.0490   -1.6330 ca        1 AF      -0.091300
     12 C9          4.4780    0.0790   -2.3290 c3        1 AF       0.004200
     13 C9A         3.4930    0.0160   -1.1930 ca        1 AF      -0.046300
     14 C1          2.1170    0.0160   -1.2430 ca        1 AF      -0.177000
     15 HN1        -0.4610    0.1250    0.7900 hn        1 AF       0.390300
     16 HN2        -0.4340    0.2300   -0.8700 hn        1 AF       0.390300
     17 H3          1.5260   -0.1680    2.1490 ha        1 AF       0.131000
     18 H4          4.0020   -0.1640    2.2050 ha        1 AF       0.134000
     19 H5          6.5790   -0.1290    1.7210 ha        1 AF       0.134000
     20 H6          8.8760   -0.0660    0.7430 ha        1 AF       0.130000
     21 H7          9.2000    0.0680   -1.7180 ha        1 AF       0.130000
     22 H8          7.2390    0.1410   -3.2570 ha        1 AF       0.132000
     23 H91         4.3590   -0.7960   -3.0170 hc        1 AF       0.072700
     24 H92         4.3510    1.0190   -2.9240 hc        1 AF       0.072700
     25 H1          1.5920    0.0620   -2.2070 ha        1 AF       0.134000
@<TRIPOS>BOND
     1    1    2 1   
     2    1   15 1   
     3    1   16 1   
     4    2    3 ar  
     5    2   14 ar  
     6    3    4 ar  
     7    3   17 1   
     8    4    5 ar  
     9    4   18 1   
    10    5    6 1   
    11    5   13 ar  
    12    6    7 ar  
    13    6   11 ar  
    14    7    8 ar  
    15    7   19 1   
    16    8    9 ar  
    17    8   20 1   
    18    9   10 ar  
    19    9   21 1   
    20   10   11 ar  
    21   10   22 1   
    22   11   12 1   
    23   12   13 1   
    24   12   23 1   
    25   12   24 1   
    26   13   14 ar  
    27   14   25 1   
@<TRIPOS>SUBSTRUCTURE
     1 AF          1 TEMP              0 ****  ****    0 ROOT
