@<TRIPOS>MOLECULE
AF1
   45    46     1     0     0
SMALL
bcc


@<TRIPOS>ATOM
      1 C1          4.2450    0.4340   -0.2650 c3        1 AF1      0.310900
      2 C2          3.5460   -0.5430    0.6960 c3        1 AF1      0.045100
      3 C3          2.2330   -1.0620    0.0850 c3        1 AF1      0.153100
      4 C4          1.3500    0.1340   -0.3630 c3        1 AF1      0.155500
      5 C5          2.1910    1.0480   -1.2960 c3        1 AF1      0.143100
      6 C6          1.4420    2.3120   -1.6790 c3        1 AF1     -0.103100
      7 O1          5.3130    1.0970    0.3570 oh        1 AF1     -0.598800
      8 O2          4.3590   -1.6820    0.9230 oh        1 AF1     -0.601800
      9 O3          1.5170   -1.7750    1.0790 oh        1 AF1     -0.594800
     10 O5          3.3710    1.4920   -0.6210 os        1 AF1     -0.448600
     11 N4          0.1410   -0.3340   -1.0260 n3        1 AF1     -0.810200
     12 C1H        -0.9940   -0.5610   -0.1430 c3        1 AF1      0.206700
     13 C2H        -2.0820   -1.3850   -0.8770 c3        1 AF1      0.151100
     14 C3H        -3.3060   -1.5930    0.0330 c3        1 AF1      0.081100
     15 C4H        -3.9140   -0.2560    0.4990 c3        1 AF1      0.161300
     16 C5H        -2.8820    0.7920    0.7980 c2        1 AF1     -0.169400
     17 C6H        -1.5880    0.6670    0.4850 c2        1 AF1     -0.139200
     18 C7H        -3.4500    2.0030    1.4640 c3        1 AF1      0.171600
     19 O2H        -2.4970   -0.6770   -2.0400 oh        1 AF1     -0.605800
     20 O3H        -2.8790   -2.3980    1.1170 oh        1 AF1     -0.584800
     21 O4H        -4.8340    0.2010   -0.4820 oh        1 AF1     -0.601800
     22 O7H        -2.4740    3.0350    1.4940 oh        1 AF1     -0.603800
     23 H1          4.6650   -0.0940   -1.1650 h2        1 AF1      0.084700
     24 H2          3.3350   -0.0290    1.6750 h1        1 AF1      0.060700
     25 H3          2.4630   -1.7370   -0.7840 h1        1 AF1      0.061700
     26 H4          1.1150    0.7260    0.5740 h1        1 AF1      0.057700
     27 H5          2.4980    0.4740   -2.2150 h1        1 AF1      0.053700
     28 H6          0.8290    2.6840   -0.8230 hc        1 AF1      0.054367
     29 H6A         2.1700    3.1100   -1.9650 hc        1 AF1      0.054367
     30 H6B         0.7730    2.1100   -2.5490 hc        1 AF1      0.054367
     31 HO2         5.2200   -1.3520    1.2140 ho        1 AF1      0.420000
     32 HO3         2.0760   -2.5220    1.3330 ho        1 AF1      0.419000
     33 HN4        -0.1250    0.2810   -1.7730 hn        1 AF1      0.375800
     34 H1H        -0.6340   -1.2260    0.7100 h1        1 AF1      0.121700
     35 H2H        -1.6560   -2.3880   -1.1570 h1        1 AF1      0.068700
     36 H3H        -4.1000   -2.1430   -0.5520 h1        1 AF1      0.044700
     37 H4H        -4.5520   -0.4340    1.4130 h1        1 AF1      0.069700
     38 H6H        -0.8860    1.4870    0.7220 ha        1 AF1      0.146000
     39 H7H        -4.3580    2.3470    0.8940 h1        1 AF1      0.036200
     40 H7HA       -3.7560    1.7450    2.5170 h1        1 AF1      0.036200
     41 HO2H       -2.9120   -1.3240   -2.6230 ho        1 AF1      0.406000
     42 HO3H       -3.6330   -2.4870    1.7120 ho        1 AF1      0.406000
     43 HO4H       -4.3170    0.4380   -1.2650 ho        1 AF1      0.421000
     44 HO7H       -2.9110    3.8050    1.8760 ho        1 AF1      0.403000
     45 H23         4.9520    1.8340    0.8700 ho        1 AF1      0.427000
@<TRIPOS>BOND
     1    1    2 1   
     2    1    7 1   
     3    1   10 1   
     4    1   23 1   
     5    2    3 1   
     6    2    8 1   
     7    2   24 1   
     8    3    4 1   
     9    3    9 1   
    10    3   25 1   
    11    4    5 1   
    12    4   11 1   
    13    4   26 1   
    14    5    6 1   
    15    5   10 1   
    16    5   27 1   
    17    6   28 1   
    18    6   29 1   
    19    6   30 1   
    20    7   45 1   
    21    8   31 1   
    22    9   32 1   
    23   11   12 1   
    24   11   33 1   
    25   12   13 1   
    26   12   17 1   
    27   12   34 1   
    28   13   14 1   
    29   13   19 1   
    30   13   35 1   
    31   14   15 1   
    32   14   20 1   
    33   14   36 1   
    34   15   16 1   
    35   15   21 1   
    36   15   37 1   
    37   16   17 2   
    38   16   18 1   
    39   17   38 1   
    40   18   22 1   
    41   18   39 1   
    42   18   40 1   
    43   19   41 1   
    44   20   42 1   
    45   21   43 1   
    46   22   44 1   
@<TRIPOS>SUBSTRUCTURE
     1 AF1         1 TEMP              0 ****  ****    0 ROOT
