@<TRIPOS>MOLECULE
AF1
   45    46     1     0     0
SMALL
bcc


@<TRIPOS>ATOM
      1 C1         -2.2170    2.4710   -2.5010 c3        1 AF1      0.306900
      2 C2         -0.7050    2.4710   -2.5010 c3        1 AF1      0.085100
      3 C3         -0.1400    2.4710   -1.1260 c3        1 AF1      0.151100
      4 C4         -0.7180    1.3840   -0.2770 c3        1 AF1      0.157500
      5 C5         -2.2360    1.3870   -0.2880 c3        1 AF1      0.122100
      6 C6         -2.7280    2.6100    0.4420 c3        1 AF1     -0.132100
      7 O1         -2.6640    3.6930   -2.0360 oh        1 AF1     -0.635800
      8 O2         -0.2390    1.2970   -3.1970 oh        1 AF1     -0.601800
      9 O3         -0.4200    3.7520   -0.5040 oh        1 AF1     -0.604800
     10 O5         -2.7880    1.3910   -1.6460 os        1 AF1     -0.449600
     11 N4         -0.2430    0.0910   -0.7740 n3        1 AF1     -0.830200
     12 C1H         0.5280   -0.5820    0.2750 c3        1 AF1      0.186700
     13 C2H         1.9600   -1.1550   -0.3270 c3        1 AF1      0.153100
     14 C3H         2.6770   -1.8530    0.4990 c3        1 AF1      0.155100
     15 C4H         1.9380   -3.1720    1.1440 c3        1 AF1      0.162300
     16 C5H         0.6270   -2.8480    1.7180 c2        1 AF1     -0.129400
     17 C6H        -0.2610   -1.6190    0.9060 c2        1 AF1     -0.180200
     18 C7H         0.3350   -3.1610    3.1940 c3        1 AF1      0.164600
     19 O2H         1.6520   -2.0170   -1.5200 oh        1 AF1     -0.599800
     20 O3H         3.0970   -0.9510    1.6310 oh        1 AF1     -0.604800
     21 O4H         2.7910   -3.8440    2.1070 oh        1 AF1     -0.620800
     22 O7H        -0.0610   -4.5170    3.3210 oh        1 AF1     -0.612800
     23 H1         -2.5320    2.3480   -3.4160 h2        1 AF1      0.073700
     24 H2         -0.3890    3.2650   -2.9720 h1        1 AF1      0.072700
     25 H3          0.8270    2.3500   -1.1810 h1        1 AF1      0.081700
     26 H4         -0.4090    1.5030    0.6410 h1        1 AF1      0.089700
     27 H5         -2.5560    0.5910    0.1790 h1        1 AF1      0.075700
     28 H6         -3.6520    2.7920    0.1860 hc        1 AF1      0.055033
     29 H6A        -2.1690    3.3750    0.2080 hc        1 AF1      0.055033
     30 H6B        -2.6800    2.4550    1.4050 hc        1 AF1      0.055033
     31 HO2        -0.0620    1.5040   -4.0420 ho        1 AF1      0.420000
     32 HO3         0.3230    4.2360   -0.4760 ho        1 AF1      0.415000
     33 HN4        -0.9570   -0.4260   -1.0060 hn        1 AF1      0.377800
     34 H1H         0.6850    0.1570    0.8930 h1        1 AF1      0.093700
     35 H2H         2.4920   -0.3940   -0.6270 h1        1 AF1      0.062700
     36 H3H         3.4800   -2.1520    0.0290 h1        1 AF1      0.057700
     37 H4H         1.8440   -3.8680    0.4670 h1        1 AF1      0.077700
     38 H6H        -1.1890   -1.4420    1.1540 ha        1 AF1      0.119000
     39 H7H        -0.3830   -2.5820    3.5130 h1        1 AF1      0.036200
     40 H7HA        1.1390   -3.0060    3.7260 h1        1 AF1      0.036200
     41 HO2H        2.3300   -1.9840   -2.0920 ho        1 AF1      0.412000
     42 HO3H        3.9830   -0.9090    1.6630 ho        1 AF1      0.429000
     43 HO4H        3.2080   -4.5200    1.7120 ho        1 AF1      0.428000
     44 HO7H       -0.3440   -4.6670    4.1490 ho        1 AF1      0.409000
     45 H23        -3.1770    4.0740   -2.6510 ho        1 AF1      0.428000
@<TRIPOS>BOND
     1    1    2 1   
     2    1    7 1   
     3    1   10 1   
     4    1   23 1   
     5    2    3 1   
     6    2    8 1   
     7    2   24 1   
     8    3    4 1   
     9    3    9 1   
    10    3   25 1   
    11    4    5 1   
    12    4   11 1   
    13    4   26 1   
    14    5    6 1   
    15    5   10 1   
    16    5   27 1   
    17    6   28 1   
    18    6   29 1   
    19    6   30 1   
    20    7   45 1   
    21    8   31 1   
    22    9   32 1   
    23   11   12 1   
    24   11   33 1   
    25   12   13 1   
    26   12   17 1   
    27   12   34 1   
    28   13   14 1   
    29   13   19 1   
    30   13   35 1   
    31   14   15 1   
    32   14   20 1   
    33   14   36 1   
    34   15   16 1   
    35   15   21 1   
    36   15   37 1   
    37   16   17 2   
    38   16   18 1   
    39   17   38 1   
    40   18   22 1   
    41   18   39 1   
    42   18   40 1   
    43   19   41 1   
    44   20   42 1   
    45   21   43 1   
    46   22   44 1   
@<TRIPOS>SUBSTRUCTURE
     1 AF1         1 TEMP              0 ****  ****    0 ROOT
