@<TRIPOS>MOLECULE
AF2
   34    36     1     0     0
SMALL
bcc


@<TRIPOS>ATOM
      1 F           1.1450    3.5170   -0.2980 f         1 AF2     -0.251300
      2 P          -3.7020   -1.5820   -0.3040 p5        1 AF2      1.307900
      3 N1          5.5560   -0.6890    0.0120 nb        1 AF2     -0.802000
      4 C2          5.1120    0.5710    0.2830 ca        1 AF2      0.632900
      5 N3          3.8530    1.0490    0.3960 nb        1 AF2     -0.714000
      6 C4          2.9010    0.0860    0.2060 ca        1 AF2      0.417800
      7 C5          3.2250   -1.3110   -0.0940 ca        1 AF2     -0.190200
      8 C6          4.6060   -1.6530   -0.2050 ca        1 AF2      0.686200
      9 N6          4.9720   -2.9440   -0.5930 nh        1 AF2     -0.928500
     10 N7          2.0450   -2.0600   -0.1980 nc        1 AF2     -0.602100
     11 C8          1.0430   -1.1890    0.0190 cd        1 AF2      0.486700
     12 N9          1.5020    0.1360    0.2500 na        1 AF2     -0.279000
     13 C1'         0.7220    1.2980    0.6380 c3        1 AF2      0.238800
     14 OP2        -4.2560   -0.3810    0.4120 o         1 AF2     -0.920167
     15 C2'         0.4850    2.3260   -0.5350 c3        1 AF2      0.087600
     16 OP1        -3.9530   -1.6050   -1.7850 o         1 AF2     -0.920167
     17 C3'        -1.0630    2.5050   -0.5620 c3        1 AF2      0.086100
     18 O3'        -1.4670    3.6610    0.1450 oh        1 AF2     -0.580800
     19 C4'        -1.5830    1.2480    0.1600 c3        1 AF2      0.084100
     20 O4'        -0.5510    0.9140    1.1190 os        1 AF2     -0.374600
     21 C5'        -1.8220    0.1250   -0.8790 c3        1 AF2      0.224400
     22 O5'        -1.9910   -1.0930   -0.2960 os        1 AF2     -0.549200
     23 H2          5.9160    1.3170    0.4400 h5        1 AF2      0.025100
     24 H8         -0.0620   -1.4250    0.0300 h5        1 AF2      0.193800
     25 H5'        -2.7250    0.4200   -1.4870 h1        1 AF2     -0.005800
     26 H5'A       -0.9070    0.1090   -1.5530 h1        1 AF2     -0.005800
     27 H1'         1.2620    1.8030    1.4930 h2        1 AF2      0.082700
     28 H2'         0.8370    1.9130   -1.5200 h1        1 AF2      0.073700
     29 H3'        -1.4360    2.5560   -1.6180 h1        1 AF2      0.059700
     30 H4'        -2.5060    1.4020    0.7850 h1        1 AF2      0.162700
     31 HN6         4.2530   -3.6230   -0.4720 hn        1 AF2      0.407300
     32 HN6A        5.8810   -3.2420   -0.3250 hn        1 AF2      0.407300
     33 HO3'       -0.9910    4.4030   -0.2460 ho        1 AF2      0.380000
     34 OP3        -3.6700   -2.8910    0.4210 o         1 AF2     -0.920167
@<TRIPOS>BOND
     1    1   15 1   
     2    2   14 1   
     3    2   16 1   
     4    2   22 1   
     5    2   34 1   
     6    3    4 ar  
     7    3    8 ar  
     8    4    5 ar  
     9    4   23 1   
    10    5    6 ar  
    11    6    7 ar  
    12    6   12 1   
    13    7    8 ar  
    14    7   10 1   
    15    8    9 1   
    16    9   31 1   
    17    9   32 1   
    18   10   11 2   
    19   11   12 1   
    20   11   24 1   
    21   12   13 1   
    22   13   15 1   
    23   13   20 1   
    24   13   27 1   
    25   15   17 1   
    26   15   28 1   
    27   17   18 1   
    28   17   19 1   
    29   17   29 1   
    30   18   33 1   
    31   19   20 1   
    32   19   21 1   
    33   19   30 1   
    34   21   22 1   
    35   21   25 1   
    36   21   26 1   
@<TRIPOS>SUBSTRUCTURE
     1 AF2         1 TEMP              0 ****  ****    0 ROOT
