@<TRIPOS>MOLECULE
AF2
   34    28     1     0     0
SMALL
bcc


@<TRIPOS>ATOM
      1 F          -3.3810   -1.0350    0.4470 f         1 AF2     -0.175000
      2 P           1.1750    2.0880    4.2170 p3        1 AF2      2.517000
      3 N1          1.7110   -1.9050   -3.7340 n1        1 AF2     -0.277000
      4 C2          1.1590   -2.6150   -2.6960 c1        1 AF2     -0.029000
      5 N3          0.4960   -1.9610   -1.6960 n1        1 AF2     -0.190000
      6 C4          0.3810   -0.6070   -1.7270 c1        1 AF2     -0.084500
      7 C5          0.9250    0.0960   -2.7520 c1        1 AF2     -0.084500
      8 C6          1.5990   -0.5710   -3.7690 c1        1 AF2      0.164000
      9 N6          2.5060   -0.1220   -4.7790 n3        1 AF2     -0.324000
     10 N7          0.6690    1.4090   -2.5400 n1        1 AF2     -0.179000
     11 C8         -0.0330    1.5180   -1.3850 c1        1 AF2      0.022000
     12 N9         -0.2100    0.2720   -0.8840 n1        1 AF2     -0.179000
     13 C1'        -1.5450    0.4010   -0.3420 c2        1 AF2      0.133000
     14 OP2         1.7260    3.0070    3.1640 os        1 AF2     -1.264000
     15 C2'        -1.9990   -0.9820    0.3500 c3        1 AF2      0.019000
     16 OP1         0.7910    2.8910    5.4300 o         1 AF2     -1.228500
     17 C3'        -1.4710   -0.9810    1.5280 c3        1 AF2     -0.009000
     18 O3'        -2.3850   -1.6600    2.5090 oh        1 AF2     -0.371000
     19 C4'        -1.3150    0.5050    1.8860 c3        1 AF2     -0.047000
     20 O4'        -1.5620    1.2840    0.5750 os        1 AF2     -0.286000
     21 C5'        -0.0190    0.7600    2.3670 c3        1 AF2      0.053000
     22 O5'        -0.0980    1.3450    3.6520 os        1 AF2     -0.741000
     23 H2          1.2390   -3.5700   -2.6730 ha        1 AF2      0.161000
     24 H8         -0.4220    2.3360   -1.0300 DU        1 AF2      0.313000
     25 H5'         0.4800   -0.0780    2.4220 h1        1 AF2      0.057000
     26 H5'A        0.4420    1.3760    1.7550 h1        1 AF2      0.057000
     27 H1'        -2.1730    0.6410   -1.0500 h4        1 AF2      0.125000
     28 H2'        -1.6690   -1.7400   -0.1650 h1        1 AF2      0.102000
     29 H3'        -0.6080   -1.4170    1.5120 h1        1 AF2      0.204000
     30 H4'        -1.9700    0.7560    2.5490 h1        1 AF2      0.086000
     31 HN6         2.4930    0.7530   -5.0500 hn        1 AF2      0.201000
     32 HN6A        3.1340   -0.7050   -5.1270 hn        1 AF2      0.201000
     33 HO3'       -2.2870   -2.5640    2.4390 ho        1 AF2      0.283000
     34 OP3         2.2210    1.0730    4.5970 o         1 AF2     -1.228500
@<TRIPOS>BOND
     1    1   15 1   
     2    2   16 1   
     3    2   22 1   
     4    2   34 1   
     5    3    8 1   
     6    4    5 1   
     7    4   23 1   
     8    6    7 1   
     9    8    9 1   
    10    9   31 1   
    11    9   32 1   
    12   10   11 1   
    13   11   12 1   
    14   13   15 1   
    15   13   20 1   
    16   13   27 1   
    17   15   17 1   
    18   15   28 1   
    19   17   18 1   
    20   17   19 1   
    21   17   29 1   
    22   18   33 1   
    23   19   20 1   
    24   19   21 1   
    25   19   30 1   
    26   21   22 1   
    27   21   25 1   
    28   21   26 1   
@<TRIPOS>SUBSTRUCTURE
     1 AF2         1 TEMP              0 ****  ****    0 ROOT
