@<TRIPOS>MOLECULE
AF4
   65    67     1     0     0
SMALL
bcc


@<TRIPOS>ATOM
      1 C1         -0.2340    0.2900   -1.1230 c3        1 AF4     -0.150100
      2 C2          1.2520    0.5750   -0.9620 c3        1 AF4      0.144500
      3 C3          1.4970    1.4630    0.2460 c3        1 AF4     -0.150100
      4 N4          2.0170   -0.7470   -0.8400 ny        1 AF4     -0.813000
      5 C5          3.5020   -0.6600   -1.1220 c3        1 AF4      0.414000
      6 N6          3.8420   -0.4620   -2.5930 nz        1 AF4     -0.868600
      7 C7          4.2180   -1.8760   -0.6100 ca        1 AF4     -0.287300
      8 C10         5.2150   -1.7070    0.3630 ca        1 AF4     -0.072500
      9 C11         5.9040   -2.8110    0.8520 ca        1 AF4     -0.115000
     10 C8          3.9200   -3.1670   -1.0780 ca        1 AF4     -0.072500
     11 C9          4.6120   -4.2660   -0.5870 ca        1 AF4     -0.115000
     12 C12         5.6240   -4.1110    0.3850 ca        1 AF4      0.109000
     13 C13         6.3650   -5.2370    0.8900 cc        1 AF4     -0.249300
     14 C15         7.5270   -5.1740    1.6680 cd        1 AF4      0.377600
     15 O16         7.9730   -6.4370    1.9720 os        1 AF4     -0.327800
     16 C14         6.0830   -6.6480    0.7090 cc        1 AF4     -0.144300
     17 C17         7.0730   -7.3540    1.3790 cd        1 AF4      0.246200
     18 C18         7.3710   -8.7470    1.5930 ca        1 AF4     -0.018500
     19 C21         8.5080   -9.1240    2.3430 ca        1 AF4     -0.098500
     20 C22         8.8020  -10.4630    2.5550 ca        1 AF4     -0.080000
     21 C19         6.5430   -9.7520    1.0660 ca        1 AF4     -0.098500
     22 C20         6.8380  -11.0980    1.2780 ca        1 AF4     -0.080000
     23 C23         7.9690  -11.4610    2.0220 ca        1 AF4     -0.278300
     24 C24         8.2690  -12.9180    2.2340 c3        1 AF4      0.416000
     25 N25         9.5620  -13.2710    1.5110 nz        1 AF4     -0.871600
     26 N26         8.2850  -13.2550    3.7120 ny        1 AF4     -0.810000
     27 C27         7.8830  -14.6920    4.0520 c3        1 AF4      0.136500
     28 C29         8.8450  -15.7130    3.4770 c3        1 AF4     -0.156100
     29 C28         7.7870  -14.8350    5.5660 c3        1 AF4     -0.156100
     30 H30        -0.7590    1.2730   -1.2760 hc        1 AF4      0.100533
     31 H32        -0.4500   -0.3500   -2.0130 hc        1 AF4      0.100533
     32 H31        -0.6690   -0.1840   -0.2080 hc        1 AF4      0.100533
     33 H33         1.6370    1.0810   -1.8950 hx        1 AF4      0.081700
     34 H34         0.9340    2.4240    0.0890 hc        1 AF4      0.100533
     35 H35         1.1070    1.0020    1.1890 hc        1 AF4      0.100533
     36 H36         2.5750    1.7200    0.3770 hc        1 AF4      0.100533
     37 H37         1.9380   -1.0690    0.1420 hn        1 AF4      0.477300
     38 H5          3.8700    0.2840   -0.5870 hx        1 AF4      0.169700
     39 H38         3.3920    0.3710   -2.9940 hn        1 AF4      0.488133
     40 H39         4.8690   -0.3420   -2.6490 hn        1 AF4      0.488133
     41 H42         5.4630   -0.7050    0.7540 ha        1 AF4      0.150000
     42 H43         6.6800   -2.6570    1.6230 ha        1 AF4      0.175500
     43 H40         3.1380   -3.3280   -1.8370 ha        1 AF4      0.150000
     44 H41         4.3710   -5.2730   -0.9680 ha        1 AF4      0.175500
     45 H45         8.1460   -4.3670    2.0680 h4        1 AF4      0.092100
     46 H44         5.2420   -7.0630    0.1550 ha        1 AF4      0.180000
     47 H48         9.1660   -8.3410    2.7650 ha        1 AF4      0.186500
     48 H49         9.6940  -10.7220    3.1470 ha        1 AF4      0.152000
     49 H46         5.6480   -9.4800    0.4800 ha        1 AF4      0.186500
     50 H47         6.1670  -11.8650    0.8530 ha        1 AF4      0.152000
     51 H24         7.4570  -13.5730    1.7640 hx        1 AF4      0.166700
     52 H50        10.3260  -12.6380    1.7860 hn        1 AF4      0.489467
     53 H51         9.3910  -13.1360    0.5000 hn        1 AF4      0.489467
     54 H52         7.5940  -12.6260    4.1600 hn        1 AF4      0.476800
     55 H53         6.8530  -14.8350    3.5990 hx        1 AF4      0.121700
     56 H57         8.7270  -15.8250    2.3730 hc        1 AF4      0.097700
     57 H59         9.9100  -15.5020    3.7440 hc        1 AF4      0.097700
     58 H58         8.5940  -16.7160    3.9280 hc        1 AF4      0.097700
     59 H54         7.3610  -15.8510    5.7900 hc        1 AF4      0.097700
     60 H55         7.1010  -14.0790    6.0210 hc        1 AF4      0.097700
     61 H56         8.7910  -14.7720    6.0540 hc        1 AF4      0.097700
     62 H421        1.5640   -1.4570   -1.4290 hn        1 AF4      0.477300
     63 H63         3.5930   -1.2890   -3.1510 hn        1 AF4      0.488133
     64 H253        9.8480  -14.2480    1.6730 hn        1 AF4      0.489467
     65 H262        9.1970  -13.0550    4.1420 hn        1 AF4      0.476800
@<TRIPOS>BOND
     1    1    2 1   
     2    1   30 1   
     3    1   31 1   
     4    1   32 1   
     5    2    3 1   
     6    2    4 1   
     7    2   33 1   
     8    3   34 1   
     9    3   35 1   
    10    3   36 1   
    11    4    5 1   
    12    4   37 1   
    13    4   62 1   
    14    5    6 1   
    15    5    7 1   
    16    5   38 1   
    17    6   39 1   
    18    6   40 1   
    19    6   63 1   
    20    7    8 ar  
    21    7   10 ar  
    22    8    9 ar  
    23    8   41 1   
    24    9   12 ar  
    25    9   42 1   
    26   10   11 ar  
    27   10   43 1   
    28   11   12 ar  
    29   11   44 1   
    30   12   13 1   
    31   13   14 2   
    32   13   16 1   
    33   14   15 1   
    34   14   45 1   
    35   15   17 1   
    36   16   17 2   
    37   16   46 1   
    38   17   18 1   
    39   18   19 ar  
    40   18   21 ar  
    41   19   20 ar  
    42   19   47 1   
    43   20   23 ar  
    44   20   48 1   
    45   21   22 ar  
    46   21   49 1   
    47   22   23 ar  
    48   22   50 1   
    49   23   24 1   
    50   24   25 1   
    51   24   26 1   
    52   24   51 1   
    53   25   52 1   
    54   25   53 1   
    55   25   64 1   
    56   26   27 1   
    57   26   54 1   
    58   26   65 1   
    59   27   28 1   
    60   27   29 1   
    61   27   55 1   
    62   28   56 1   
    63   28   57 1   
    64   28   58 1   
    65   29   59 1   
    66   29   60 1   
    67   29   61 1   
@<TRIPOS>SUBSTRUCTURE
     1 AF4         1 TEMP              0 ****  ****    0 ROOT
