@<TRIPOS>MOLECULE
AF4
   61    55     1     0     0
SMALL
bcc


@<TRIPOS>ATOM
      1 C1         -4.3520    8.7060   -0.4210 c3        1 AF4     -0.224500
      2 C2         -3.4920    7.7950   -1.2560 c3        1 AF4     -0.017000
      3 C3         -2.3370    8.6000   -1.8630 c3        1 AF4     -0.224500
      4 N4         -2.9710    6.7470   -0.4270 n3        1 AF4     -0.291000
      5 C5         -3.3850    5.4940   -0.9380 c3        1 AF4      0.086000
      6 N6         -4.5940    5.0740   -0.2680 n3        1 AF4     -0.371000
      7 C7         -2.3070    4.4730   -0.7010 c2        1 AF4     -0.109000
      8 C10        -1.9480    4.1360    0.6100 c2        1 AF4     -0.124000
      9 C11        -1.0700    3.0930    0.8410 c1        1 AF4     -0.123000
     10 C8         -1.7820    3.7610   -1.7670 c1        1 AF4     -0.108000
     11 C9         -0.9000    2.7120   -1.5340 c1        1 AF4     -0.118000
     12 C12        -0.5430    2.3770   -0.2260 c1        1 AF4     -0.000000
     13 C13         0.3860    1.3340    0.0110 c1        1 AF4     -0.107000
     14 C15         1.7460    1.4860    0.1700 c1        1 AF4     -0.069000
     15 O16         2.2860    0.2640    0.3550 os        1 AF4     -0.098000
     16 C14         0.1000    0.0170    0.1000 c1        1 AF4     -0.167000
     17 C17         1.2810   -0.6550    0.3150 c2        1 AF4      0.000000
     18 C18         1.4290   -2.0090    0.4510 c1        1 AF4     -0.016000
     19 C21         1.7460   -2.8010   -0.6750 c1        1 AF4     -0.120000
     20 C22         1.8830   -4.1930   -0.5400 c1        1 AF4     -0.120000
     21 C19         1.2490   -2.6170    1.7100 c1        1 AF4     -0.104000
     22 C20         1.3850   -3.9940    1.8430 c1        1 AF4     -0.112000
     23 C23         1.7040   -4.7910    0.7110 c1        1 AF4     -0.101000
     24 C24         1.8090   -6.3060    0.8610 c3        1 AF4      0.085000
     25 N25         0.7840   -6.8940    0.2190 n3        1 AF4     -0.372000
     26 N26         3.0520   -6.7640    0.2930 n3        1 AF4     -0.291000
     27 C27         3.6330   -7.7930    1.1500 c3        1 AF4     -0.017000
     28 C29         3.5410   -9.1180    0.4670 c3        1 AF4     -0.224500
     29 C28         5.1500   -7.4500    1.4240 c3        1 AF4     -0.224500
     30 H30        -4.6360    9.4510   -0.9480 hc        1 AF4      0.076833
     31 H32        -3.8190    9.0380    0.3740 hc        1 AF4      0.076833
     32 H31        -5.1200    8.2240   -0.1110 hc        1 AF4      0.076833
     33 H33        -4.0390    7.3970   -1.9880 h1        1 AF4      0.097000
     34 H34        -2.7050    9.3710   -2.3750 hc        1 AF4      0.076833
     35 H35        -1.7680    8.9260   -1.1600 hc        1 AF4      0.076833
     36 H36        -1.8170    8.0250   -2.4660 hc        1 AF4      0.076833
     37 H37        -3.2850    6.8440    0.4010 hn        1 AF4      0.154000
     38 H5         -3.5580    5.5760   -1.9170 h2        1 AF4      0.113000
     39 H38        -5.1680    5.7870   -0.1980 hn        1 AF4      0.147000
     40 H39        -4.9960    4.4000   -0.7490 hn        1 AF4      0.147000
     41 H42        -2.3160    4.6350    1.3560 ha        1 AF4      0.128000
     42 H43        -0.8120    2.8520    1.7890 ha        1 AF4      0.131000
     43 H40        -2.0240    3.9870   -2.6540 ha        1 AF4      0.137000
     44 H41        -0.5190    2.1950   -2.3070 ha        1 AF4      0.135000
     45 H45         2.2400    2.3420    0.1510 DU        1 AF4      0.178000
     46 H44        -0.7640   -0.3760    0.0260 DU        1 AF4      0.178000
     47 H48         1.8720   -2.3790   -1.5480 ha        1 AF4      0.133000
     48 H49         2.0980   -4.7300   -1.3010 ha        1 AF4      0.133000
     49 H46         1.0270   -2.0610    2.5030 ha        1 AF4      0.149000
     50 H47         1.2650   -4.3990    2.6850 ha        1 AF4      0.139000
     51 H24         1.7760   -6.5390    1.8070 h2        1 AF4      0.114000
     52 H50         0.0910   -6.3000    0.1400 hn        1 AF4      0.147000
     53 H51         0.5160   -7.6010    0.6810 hn        1 AF4      0.147000
     54 H52         2.8960   -7.1140   -0.5400 hn        1 AF4      0.154000
     55 H53         3.1290   -7.8290    2.0280 h1        1 AF4      0.097000
     56 H57         2.6200   -9.4910    0.5870 hc        1 AF4      0.077167
     57 H59         4.2190   -9.7540    0.8710 hc        1 AF4      0.077167
     58 H58         3.7210   -9.0090   -0.4600 hc        1 AF4      0.077167
     59 H54         5.4250   -7.8450    2.2540 hc        1 AF4      0.077167
     60 H55         5.2590   -6.4930    1.4720 hc        1 AF4      0.077167
     61 H56         5.7090   -7.8090    0.6850 hc        1 AF4      0.077167
@<TRIPOS>BOND
     1    1    2 1   
     2    1   30 1   
     3    1   31 1   
     4    1   32 1   
     5    2    3 1   
     6    2    4 1   
     7    2   33 1   
     8    3   34 1   
     9    3   35 1   
    10    3   36 1   
    11    4    5 1   
    12    4   37 1   
    13    5    6 1   
    14    5    7 1   
    15    5   38 1   
    16    6   39 1   
    17    6   40 1   
    18    7    8 1   
    19    7   10 1   
    20    8    9 1   
    21    8   41 1   
    22    9   42 1   
    23   10   43 1   
    24   11   12 1   
    25   11   44 1   
    26   13   14 1   
    27   13   16 1   
    28   14   15 1   
    29   15   17 1   
    30   16   17 1   
    31   17   18 1   
    32   18   21 1   
    33   19   20 1   
    34   19   47 1   
    35   20   48 1   
    36   21   49 1   
    37   22   23 1   
    38   22   50 1   
    39   23   24 1   
    40   24   25 1   
    41   24   26 1   
    42   24   51 1   
    43   25   52 1   
    44   25   53 1   
    45   26   27 1   
    46   26   54 1   
    47   27   28 1   
    48   27   29 1   
    49   27   55 1   
    50   28   56 1   
    51   28   57 1   
    52   28   58 1   
    53   29   59 1   
    54   29   60 1   
    55   29   61 1   
@<TRIPOS>SUBSTRUCTURE
     1 AF4         1 TEMP              0 ****  ****    0 ROOT
