@<TRIPOS>MOLECULE
AF4
   65    67     1     0     0
SMALL
bcc


@<TRIPOS>ATOM
      1 C1         -0.2250    0.3500   -1.0380 c3        1 AF4     -0.150100
      2 C2          1.2710    0.6150   -0.9470 c3        1 AF4      0.144500
      3 C3          1.5800    1.5290    0.2280 c3        1 AF4     -0.150100
      4 N4          2.0220   -0.7150   -0.8250 n4        1 AF4     -0.813000
      5 C5          3.4940   -0.6570   -1.1720 c3        1 AF4      0.414000
      6 N6          3.7740   -0.4990   -2.6610 n4        1 AF4     -0.868600
      7 C7          4.2140   -1.8710   -0.6600 ca        1 AF4     -0.287300
      8 C10         5.2530   -1.6940    0.2660 ca        1 AF4     -0.072500
      9 C11         5.9470   -2.7960    0.7520 ca        1 AF4     -0.115000
     10 C8          3.8790   -3.1680   -1.0830 ca        1 AF4     -0.072500
     11 C9          4.5760   -4.2650   -0.5950 ca        1 AF4     -0.115000
     12 C12         5.6290   -4.1020    0.3300 ca        1 AF4      0.109000
     13 C13         6.3760   -5.2260    0.8310 cc        1 AF4     -0.249300
     14 C15         7.5680   -5.1630    1.5600 cd        1 AF4      0.377600
     15 O16         8.0100   -6.4240    1.8770 os        1 AF4     -0.327800
     16 C14         6.0680   -6.6380    0.6940 cc        1 AF4     -0.144300
     17 C17         7.0750   -7.3410    1.3410 cd        1 AF4      0.246200
     18 C18         7.3630   -8.7330    1.5750 ca        1 AF4     -0.018500
     19 C21         8.5220   -9.1090    2.2900 ca        1 AF4     -0.098500
     20 C22         8.8080  -10.4470    2.5200 ca        1 AF4     -0.080000
     21 C19         6.5020   -9.7390    1.1030 ca        1 AF4     -0.098500
     22 C20         6.7880  -11.0830    1.3330 ca        1 AF4     -0.080000
     23 C23         7.9420  -11.4460    2.0420 ca        1 AF4     -0.278300
     24 C24         8.2320  -12.9010    2.2760 c3        1 AF4      0.416000
     25 N25         9.4920  -13.2870    1.5120 n4        1 AF4     -0.871600
     26 N26         8.3000  -13.2060    3.7590 n4        1 AF4     -0.810000
     27 C27         7.8920  -14.6290    4.1460 c3        1 AF4      0.136500
     28 C29         8.8200  -15.6750    3.5590 c3        1 AF4     -0.156100
     29 C28         7.8530  -14.7380    5.6650 c3        1 AF4     -0.156100
     30 H30        -0.6270   -0.0950   -0.0940 hc        1 AF4      0.100533
     31 H32        -0.4870   -0.3080   -1.9020 hc        1 AF4      0.100533
     32 H31        -0.7420    1.3360   -1.1930 hc        1 AF4      0.100533
     33 H33         1.6230    1.0930   -1.9080 hx        1 AF4      0.081700
     34 H34         2.6660    1.7720    0.3060 hc        1 AF4      0.100533
     35 H35         1.0240    2.4940    0.0700 hc        1 AF4      0.100533
     36 H36         1.2240    1.0960    1.1970 hc        1 AF4      0.100533
     37 H37         1.9800   -1.0110    0.1670 hn        1 AF4      0.477300
     38 H5          3.8980    0.2940   -0.6760 hx        1 AF4      0.169700
     39 H38         3.3190    0.3310   -3.0620 hn        1 AF4      0.488133
     40 H39         3.4900   -1.3360   -3.1870 hn        1 AF4      0.488133
     41 H42         5.5320   -0.6860    0.6210 ha        1 AF4      0.150000
     42 H43         6.7570   -2.6350    1.4860 ha        1 AF4      0.175500
     43 H40         3.0640   -3.3350   -1.8050 ha        1 AF4      0.150000
     44 H41         4.3050   -5.2770   -0.9410 ha        1 AF4      0.175500
     45 H45         8.2130   -4.3550    1.9180 h4        1 AF4      0.092100
     46 H44         5.2000   -7.0530    0.1830 ha        1 AF4      0.180000
     47 H48         9.2070   -8.3260    2.6680 ha        1 AF4      0.186500
     48 H49         9.7190  -10.7050    3.0840 ha        1 AF4      0.152000
     49 H46         5.5890   -9.4680    0.5450 ha        1 AF4      0.186500
     50 H47         6.0920  -11.8510    0.9520 ha        1 AF4      0.152000
     51 H24         7.3940  -13.5550    1.8510 hx        1 AF4      0.166700
     52 H50         9.7710  -14.2640    1.6850 hn        1 AF4      0.489467
     53 H51        10.2730  -12.6590    1.7440 hn        1 AF4      0.489467
     54 H52         7.6340  -12.5580    4.2180 hn        1 AF4      0.476800
     55 H53         6.8450  -14.7690    3.7350 hx        1 AF4      0.121700
     56 H57         9.8960  -15.4730    3.7810 hc        1 AF4      0.097700
     57 H59         8.5740  -16.6650    4.0410 hc        1 AF4      0.097700
     58 H58         8.6580  -15.8110    2.4630 hc        1 AF4      0.097700
     59 H54         8.8750  -14.6770    6.1140 hc        1 AF4      0.097700
     60 H55         7.1930  -13.9630    6.1290 hc        1 AF4      0.097700
     61 H56         7.4220  -15.7430    5.9280 hc        1 AF4      0.097700
     62 H421        1.5340   -1.4310   -1.3770 hn        1 AF4      0.477300
     63 H63         4.7990   -0.3960   -2.7620 hn        1 AF4      0.488133
     64 H253        9.2840  -13.1730    0.5060 hn        1 AF4      0.489467
     65 H262        9.2300  -13.0090    4.1500 hn        1 AF4      0.476800
@<TRIPOS>BOND
     1    1    2 1   
     2    1   30 1   
     3    1   31 1   
     4    1   32 1   
     5    2    3 1   
     6    2    4 1   
     7    2   33 1   
     8    3   34 1   
     9    3   35 1   
    10    3   36 1   
    11    4    5 1   
    12    4   37 1   
    13    4   62 1   
    14    5    6 1   
    15    5    7 1   
    16    5   38 1   
    17    6   39 1   
    18    6   40 1   
    19    6   63 1   
    20    7    8 ar  
    21    7   10 ar  
    22    8    9 ar  
    23    8   41 1   
    24    9   12 ar  
    25    9   42 1   
    26   10   11 ar  
    27   10   43 1   
    28   11   12 ar  
    29   11   44 1   
    30   12   13 1   
    31   13   14 2   
    32   13   16 1   
    33   14   15 1   
    34   14   45 1   
    35   15   17 1   
    36   16   17 2   
    37   16   46 1   
    38   17   18 1   
    39   18   19 ar  
    40   18   21 ar  
    41   19   20 ar  
    42   19   47 1   
    43   20   23 ar  
    44   20   48 1   
    45   21   22 ar  
    46   21   49 1   
    47   22   23 ar  
    48   22   50 1   
    49   23   24 1   
    50   24   25 1   
    51   24   26 1   
    52   24   51 1   
    53   25   52 1   
    54   25   53 1   
    55   25   64 1   
    56   26   27 1   
    57   26   54 1   
    58   26   65 1   
    59   27   28 1   
    60   27   29 1   
    61   27   55 1   
    62   28   56 1   
    63   28   57 1   
    64   28   58 1   
    65   29   59 1   
    66   29   60 1   
    67   29   61 1   
@<TRIPOS>SUBSTRUCTURE
     1 AF4         1 TEMP              0 ****  ****    0 ROOT
