@<TRIPOS>MOLECULE
AF4
   61    63     1     0     0
SMALL
bcc


@<TRIPOS>ATOM
      1 C1         -8.5140    3.1920    0.7940 c3        1 AF4     -0.094100
      2 C2         -8.2340    1.8720    0.0740 c3        1 AF4      0.171500
      3 C3         -8.6390    2.0240   -1.3950 c3        1 AF4     -0.094100
      4 N4         -6.8320    1.4670    0.1990 n3        1 AF4     -0.809200
      5 C5         -6.6070    0.0190    0.1390 c3        1 AF4      0.443000
      6 N6         -7.1700   -0.7620    1.2490 n3        1 AF4     -0.939800
      7 C7         -5.1140   -0.2400   -0.0420 ca        1 AF4     -0.111300
      8 C10        -4.2100    0.0630    0.9790 ca        1 AF4     -0.116500
      9 C11        -2.8510   -0.1910    0.8140 ca        1 AF4     -0.120500
     10 C8         -4.6440   -0.7900   -1.2360 ca        1 AF4     -0.116500
     11 C9         -3.2860   -1.0470   -1.4040 ca        1 AF4     -0.120500
     12 C12        -2.3720   -0.7520   -0.3800 ca        1 AF4     -0.001000
     13 C13        -0.9660   -1.0220   -0.5540 cc        1 AF4     -0.171300
     14 C15        -0.3810   -1.8970   -1.4580 cd        1 AF4      0.260600
     15 O16         1.0020   -1.8830   -1.3230 os        1 AF4     -0.357800
     16 C14         0.1220   -0.4220    0.1920 cc        1 AF4     -0.232300
     17 C17         1.2980   -0.9640   -0.2990 cd        1 AF4      0.302200
     18 C18         2.6890   -0.7690    0.0280 ca        1 AF4     -0.123500
     19 C21         3.6930   -1.5080   -0.6170 ca        1 AF4     -0.107500
     20 C22         5.0300   -1.3070   -0.2880 ca        1 AF4     -0.121000
     21 C19         3.0480    0.1690    1.0080 ca        1 AF4     -0.107500
     22 C20         4.3880    0.3650    1.3320 ca        1 AF4     -0.121000
     23 C23         5.3850   -0.3680    0.6850 ca        1 AF4     -0.097300
     24 C24         6.8490   -0.1340    1.0400 c3        1 AF4      0.442000
     25 N25         7.4110   -1.3380    1.6510 n3        1 AF4     -0.892800
     26 N26         7.6250    0.3890   -0.1020 n3        1 AF4     -0.862200
     27 C27         7.4820    1.8280   -0.3090 c3        1 AF4      0.181500
     28 C29         8.4590    2.6230    0.5600 c3        1 AF4     -0.095600
     29 C28         7.6960    2.2260   -1.7700 c3        1 AF4     -0.095600
     30 H30        -8.3040    3.1040    1.8870 hc        1 AF4      0.037200
     31 H32        -9.5900    3.4580    0.6620 hc        1 AF4      0.037200
     32 H31        -7.8900    4.0170    0.3750 hc        1 AF4      0.037200
     33 H33        -8.9210    1.0940    0.5300 h1        1 AF4      0.045700
     34 H34        -8.0290    2.8120   -1.8970 hc        1 AF4      0.037200
     35 H35        -8.5020    1.0640   -1.9470 hc        1 AF4      0.037200
     36 H36        -9.7150    2.3140   -1.4460 hc        1 AF4      0.037200
     37 H37        -6.4280    1.8570    1.0300 hn        1 AF4      0.358800
     38 H5         -7.1460   -0.3410   -0.7960 h2        1 AF4      0.073700
     39 H38        -7.1210   -1.7370    1.0330 hn        1 AF4      0.352300
     40 H39        -6.6790   -0.5920    2.1040 hn        1 AF4      0.352300
     41 H42        -4.5670    0.5110    1.9180 ha        1 AF4      0.131500
     42 H43        -2.1470    0.0470    1.6260 ha        1 AF4      0.132500
     43 H40        -5.3470   -1.0160   -2.0530 ha        1 AF4      0.131500
     44 H41        -2.9230   -1.4760   -2.3500 ha        1 AF4      0.132500
     45 H45        -0.7530   -2.5750   -2.2200 h4        1 AF4      0.056100
     46 H44         0.0170    0.3190    0.9800 ha        1 AF4      0.164000
     47 H48         3.4140   -2.2490   -1.3830 ha        1 AF4      0.142000
     48 H49         5.8080   -1.8960   -0.7980 ha        1 AF4      0.134500
     49 H46         2.2680    0.7500    1.5210 ha        1 AF4      0.142000
     50 H47         4.6590    1.0990    2.1070 ha        1 AF4      0.134500
     51 H24         6.8940    0.6600    1.8550 h2        1 AF4      0.074700
     52 H50         8.3800   -1.2020    1.8690 hn        1 AF4      0.352800
     53 H51         7.3240   -2.1290    1.0430 hn        1 AF4      0.352800
     54 H52         7.4000   -0.1080   -0.9430 hn        1 AF4      0.360800
     55 H53         6.4330    2.1590   -0.0230 h1        1 AF4      0.024700
     56 H57         9.5150    2.3800    0.2940 hc        1 AF4      0.039367
     57 H59         8.3060    2.3990    1.6430 hc        1 AF4      0.039367
     58 H58         8.2880    3.7130    0.3950 hc        1 AF4      0.039367
     59 H54         8.7210    1.9490   -2.1130 hc        1 AF4      0.039367
     60 H55         6.9490    1.7280   -2.4340 hc        1 AF4      0.039367
     61 H56         7.5740    3.3310   -1.8680 hc        1 AF4      0.039367
@<TRIPOS>BOND
     1    1    2 1   
     2    1   30 1   
     3    1   31 1   
     4    1   32 1   
     5    2    3 1   
     6    2    4 1   
     7    2   33 1   
     8    3   34 1   
     9    3   35 1   
    10    3   36 1   
    11    4    5 1   
    12    4   37 1   
    13    5    6 1   
    14    5    7 1   
    15    5   38 1   
    16    6   39 1   
    17    6   40 1   
    18    7    8 ar  
    19    7   10 ar  
    20    8    9 ar  
    21    8   41 1   
    22    9   12 ar  
    23    9   42 1   
    24   10   11 ar  
    25   10   43 1   
    26   11   12 ar  
    27   11   44 1   
    28   12   13 1   
    29   13   14 2   
    30   13   16 1   
    31   14   15 1   
    32   14   45 1   
    33   15   17 1   
    34   16   17 2   
    35   16   46 1   
    36   17   18 1   
    37   18   19 ar  
    38   18   21 ar  
    39   19   20 ar  
    40   19   47 1   
    41   20   23 ar  
    42   20   48 1   
    43   21   22 ar  
    44   21   49 1   
    45   22   23 ar  
    46   22   50 1   
    47   23   24 1   
    48   24   25 1   
    49   24   26 1   
    50   24   51 1   
    51   25   52 1   
    52   25   53 1   
    53   26   27 1   
    54   26   54 1   
    55   27   28 1   
    56   27   29 1   
    57   27   55 1   
    58   28   56 1   
    59   28   57 1   
    60   28   58 1   
    61   29   59 1   
    62   29   60 1   
    63   29   61 1   
@<TRIPOS>SUBSTRUCTURE
     1 AF4         1 TEMP              0 ****  ****    0 ROOT
