@<TRIPOS>MOLECULE
AF5
   47    51     1     0     0
SMALL
bcc


@<TRIPOS>ATOM
      1 N01         0.0340    0.1700   -0.0740 na        1 AF5     -0.505800
      2 C02        -0.6100   -0.2710   -1.2720 cx        1 AF5      0.158500
      3 C03         0.0300   -1.2470   -2.2420 cx        1 AF5     -0.140900
      4 C04        -0.1590    0.1840   -2.6480 cx        1 AF5     -0.140900
      5 C05         1.4020   -0.1100    0.1090 cc        1 AF5      0.041000
      6 C06         1.9940   -0.2600    1.3160 cd        1 AF5     -0.244400
      7 C07         3.5240   -0.4230    1.3540 c         1 AF5      0.933800
      8 O08         4.1470    0.1840    2.2550 o         1 AF5     -0.797800
      9 O09         4.0200   -1.1200    0.4290 o         1 AF5     -0.797800
     10 C10         1.1810   -0.2390    2.5260 c         1 AF5      0.597900
     11 O11         1.4840   -0.7000    3.6310 o         1 AF5     -0.518100
     12 C12        -0.1700    0.3790    2.3310 ca        1 AF5     -0.196600
     13 C13        -0.7020    0.6050    1.0240 ca        1 AF5      0.234600
     14 C14        -1.9420    1.3090    0.8990 ca        1 AF5     -0.143800
     15 C15        -2.3610    1.7690   -0.4150 ce        1 AF5     -0.026200
     16 C16        -3.5790    1.9370   -0.9460 c2        1 AF5     -0.226200
     17 C17        -4.9240    1.7800   -0.3470 c3        1 AF5     -0.023200
     18 C18        -4.8880    1.4420    1.1440 c3        1 AF5      0.167500
     19 N19        -3.9290    2.3130    1.8500 nh        1 AF5     -0.604000
     20 C20        -4.6170    2.9920    2.9350 c3        1 AF5      0.166800
     21 C21        -5.9100    2.2170    3.2400 c3        1 AF5     -0.138400
     22 C22        -6.2620    1.5410    1.9010 c3        1 AF5      0.093500
     23 N23        -7.2890    2.3350    1.1510 nz        1 AF5     -0.835600
     24 C24        -2.6910    1.6320    2.0620 ca        1 AF5      0.106600
     25 C25        -2.1900    1.2710    3.3360 ca        1 AF5      0.007900
     26 F26        -2.9220    1.4460    4.4700 f         1 AF5     -0.162900
     27 C27        -0.9090    0.7100    3.4540 ca        1 AF5     -0.046000
     28 H021       -1.7070   -0.4000   -1.1140 h1        1 AF5      0.081700
     29 H031       -0.6220   -2.0240   -2.6800 hc        1 AF5      0.083450
     30 H032        1.0530   -1.6280   -2.0600 hc        1 AF5      0.083450
     31 H041        0.7350    0.8280   -2.7410 hc        1 AF5      0.083450
     32 H042       -0.9350    0.4430   -3.3890 hc        1 AF5      0.083450
     33 H051        1.9960   -0.1920   -0.8230 h4        1 AF5      0.184000
     34 H151       -1.5060    2.0290   -1.0800 ha        1 AF5      0.152000
     35 H161       -3.6380    2.2850   -1.9950 ha        1 AF5      0.126000
     36 H172       -5.4570    2.7530   -0.5360 hc        1 AF5      0.026700
     37 H171       -5.4840    0.9660   -0.8830 hc        1 AF5      0.026700
     38 H181       -4.5760    0.3540    1.2280 h1        1 AF5      0.097700
     39 H201       -4.8780    4.0210    2.5540 h1        1 AF5      0.082700
     40 H202       -3.9850    3.1250    3.8530 h1        1 AF5      0.082700
     41 H211       -6.7090    2.8840    3.6400 hc        1 AF5      0.089200
     42 H212       -5.7090    1.4190    4.0030 hc        1 AF5      0.089200
     43 H221       -6.6960    0.5130    2.0500 hx        1 AF5      0.110700
     44 H231       -7.4500    1.9110    0.2330 hn        1 AF5      0.456800
     45 H232       -6.9410    3.2920    1.0180 hn        1 AF5      0.456800
     46 H271       -0.4930    0.4940    4.4550 ha        1 AF5      0.185000
     47 H233       -8.1630    2.3630    1.6800 hn        1 AF5      0.456800
@<TRIPOS>BOND
     1    1    2 1   
     2    1    5 1   
     3    1   13 1   
     4    2    3 1   
     5    2    4 1   
     6    2   28 1   
     7    3    4 1   
     8    3   29 1   
     9    3   30 1   
    10    4   31 1   
    11    4   32 1   
    12    5    6 2   
    13    5   33 1   
    14    6    7 1   
    15    6   10 1   
    16    7    8 1   
    17    7    9 1   
    18   10   11 2   
    19   10   12 1   
    20   12   13 ar  
    21   12   27 ar  
    22   13   14 ar  
    23   14   15 1   
    24   14   24 ar  
    25   15   16 2   
    26   15   34 1   
    27   16   17 1   
    28   16   35 1   
    29   17   18 1   
    30   17   36 1   
    31   17   37 1   
    32   18   19 1   
    33   18   22 1   
    34   18   38 1   
    35   19   20 1   
    36   19   24 1   
    37   20   21 1   
    38   20   39 1   
    39   20   40 1   
    40   21   22 1   
    41   21   41 1   
    42   21   42 1   
    43   22   23 1   
    44   22   43 1   
    45   23   44 1   
    46   23   45 1   
    47   23   47 1   
    48   24   25 ar  
    49   25   26 1   
    50   25   27 ar  
    51   27   46 1   
@<TRIPOS>SUBSTRUCTURE
     1 AF5         1 TEMP              0 ****  ****    0 ROOT
