@<TRIPOS>MOLECULE
AF5
   47    51     1     0     0
SMALL
bcc


@<TRIPOS>ATOM
      1 N01         0.0370    0.1720   -0.0670 na        1 AF5     -0.505800
      2 C02        -0.6030   -0.2790   -1.2620 cx        1 AF5      0.158500
      3 C03         0.0410   -1.2580   -2.2260 cx        1 AF5     -0.140900
      4 C04        -0.1520    0.1700   -2.6410 cx        1 AF5     -0.140900
      5 C05         1.4070   -0.1030    0.1190 cc        1 AF5      0.041000
      6 C06         1.9970   -0.2440    1.3280 cd        1 AF5     -0.244400
      7 C07         3.5270   -0.4030    1.3690 c         1 AF5      0.933800
      8 O08         4.1480    0.2120    2.2680 o         1 AF5     -0.797800
      9 O09         4.0270   -1.1030    0.4480 o         1 AF5     -0.797800
     10 C10         1.1830   -0.2200    2.5370 c         1 AF5      0.597900
     11 O11         1.4850   -0.6740    3.6450 o         1 AF5     -0.518100
     12 C12        -0.1700    0.3930    2.3370 ca        1 AF5     -0.196600
     13 C13        -0.7010    0.6110    1.0280 ca        1 AF5      0.234600
     14 C14        -1.9430    1.3100    0.8980 ca        1 AF5     -0.143800
     15 C15        -2.3610    1.7610   -0.4200 ce        1 AF5     -0.026200
     16 C16        -3.5800    1.9230   -0.9530 c2        1 AF5     -0.226200
     17 C17        -4.9250    1.7660   -0.3550 c3        1 AF5     -0.023200
     18 C18        -4.8900    1.4370    1.1380 c3        1 AF5      0.167500
     19 N19        -3.9340    2.3140    1.8410 nh        1 AF5     -0.604000
     20 C20        -4.6250    2.9970    2.9210 c3        1 AF5      0.166800
     21 C21        -5.9170    2.2200    3.2290 c3        1 AF5     -0.138400
     22 C22        -6.2650    1.5360    1.8930 c3        1 AF5      0.093500
     23 N23        -7.2930    2.3230    1.1380 n4        1 AF5     -0.835600
     24 C24        -2.6950    1.6380    2.0570 ca        1 AF5      0.106600
     25 C25        -2.1940    1.2840    3.3340 ca        1 AF5      0.007900
     26 F26        -2.9280    1.4640    4.4660 f         1 AF5     -0.162900
     27 C27        -0.9120    0.7280    3.4570 ca        1 AF5     -0.046000
     28 H021       -1.7000   -0.4100   -1.1060 h1        1 AF5      0.081700
     29 H031        1.0640   -1.6350   -2.0400 hc        1 AF5      0.083450
     30 H032       -0.6080   -2.0400   -2.6600 hc        1 AF5      0.083450
     31 H041       -0.9270    0.4210   -3.3850 hc        1 AF5      0.083450
     32 H042        0.7400    0.8150   -2.7370 hc        1 AF5      0.083450
     33 H051        2.0020   -0.1880   -0.8110 h4        1 AF5      0.184000
     34 H151       -1.5070    2.0200   -1.0850 ha        1 AF5      0.152000
     35 H161       -3.6380    2.2650   -2.0040 ha        1 AF5      0.126000
     36 H172       -5.4600    2.7360   -0.5500 hc        1 AF5      0.026700
     37 H171       -5.4820    0.9470   -0.8870 hc        1 AF5      0.026700
     38 H181       -4.5750    0.3500    1.2290 h1        1 AF5      0.097700
     39 H201       -4.8890    4.0230    2.5340 h1        1 AF5      0.082700
     40 H202       -3.9950    3.1370    3.8390 h1        1 AF5      0.082700
     41 H211       -6.7180    2.8880    3.6240 hc        1 AF5      0.089200
     42 H212       -5.7140    1.4270    3.9970 hc        1 AF5      0.089200
     43 H221       -6.6970    0.5080    2.0470 hx        1 AF5      0.110700
     44 H231       -6.9480    3.2800    1.0000 hn        1 AF5      0.456800
     45 H232       -7.4520    1.8930    0.2220 hn        1 AF5      0.456800
     46 H271       -0.4960    0.5190    4.4600 ha        1 AF5      0.185000
     47 H233       -8.1680    2.3530    1.6650 hn        1 AF5      0.456800
@<TRIPOS>BOND
     1    1    2 1   
     2    1    5 1   
     3    1   13 1   
     4    2    3 1   
     5    2    4 1   
     6    2   28 1   
     7    3    4 1   
     8    3   29 1   
     9    3   30 1   
    10    4   31 1   
    11    4   32 1   
    12    5    6 2   
    13    5   33 1   
    14    6    7 1   
    15    6   10 1   
    16    7    8 1   
    17    7    9 1   
    18   10   11 2   
    19   10   12 1   
    20   12   13 ar  
    21   12   27 ar  
    22   13   14 ar  
    23   14   15 1   
    24   14   24 ar  
    25   15   16 2   
    26   15   34 1   
    27   16   17 1   
    28   16   35 1   
    29   17   18 1   
    30   17   36 1   
    31   17   37 1   
    32   18   19 1   
    33   18   22 1   
    34   18   38 1   
    35   19   20 1   
    36   19   24 1   
    37   20   21 1   
    38   20   39 1   
    39   20   40 1   
    40   21   22 1   
    41   21   41 1   
    42   21   42 1   
    43   22   23 1   
    44   22   43 1   
    45   23   44 1   
    46   23   45 1   
    47   23   47 1   
    48   24   25 ar  
    49   25   26 1   
    50   25   27 ar  
    51   27   46 1   
@<TRIPOS>SUBSTRUCTURE
     1 AF5         1 TEMP              0 ****  ****    0 ROOT
