@<TRIPOS>MOLECULE
AF8
   70    73     1     0     0
SMALL
bcc


@<TRIPOS>ATOM
      1 C21        -2.3340   -1.0960    0.2360 c         1 AF8      0.677700
      2 O22        -1.4880   -1.2000   -0.6780 o         1 AF8     -0.627100
      3 C22        -3.0460   -2.2870    0.7840 ca        1 AF8     -0.099600
      4 C27        -3.4400   -3.2820   -0.1150 ca        1 AF8     -0.164000
      5 C26        -4.0990   -4.4170    0.3720 ca        1 AF8      0.120100
      6 C25        -4.3610   -4.5670    1.7460 ca        1 AF8     -0.136000
      7 C24        -3.9490   -3.5700    2.6220 ca        1 AF8     -0.104000
      8 C23        -3.2940   -2.4290    2.1510 ca        1 AF8     -0.142000
      9 O27        -4.5270   -5.4350   -0.4470 oh        1 AF8     -0.494100
     10 N11         1.6050    2.4060    0.1020 n3        1 AF8     -0.797500
     11 C12         2.3420    2.5160    1.3360 c3        1 AF8      0.220800
     12 C13         3.0530    3.8620    1.5660 c3        1 AF8     -0.096700
     13 C14         2.0660    4.9960    1.7310 c3        1 AF8     -0.087100
     14 C15         3.9270    3.7370    2.7970 c3        1 AF8     -0.087100
     15 C16         0.1850    2.6060    0.1740 c3        1 AF8      0.190800
     16 C17        -0.5920    1.4910    0.9110 c3        1 AF8      0.086100
     17 O18        -0.6300    1.7170    2.3060 oh        1 AF8     -0.591800
     18 C19        -2.0180    1.3450    0.3050 c3        1 AF8      0.080700
     19 N20        -2.6760    0.1390    0.7480 n         1 AF8     -0.550900
     20 C32        -2.8550    2.6010    0.6020 c3        1 AF8     -0.049100
     21 C33        -5.3570    2.4710    0.5450 ca        1 AF8     -0.124000
     22 C34        -6.5640    2.4960   -0.1530 ca        1 AF8     -0.125000
     23 C35        -6.5690    2.6580   -1.5380 ca        1 AF8     -0.126000
     24 C36        -5.3630    2.7970   -2.2250 ca        1 AF8     -0.125000
     25 C37        -4.1550    2.7730   -1.5300 ca        1 AF8     -0.124000
     26 C38        -4.1440    2.6090   -0.1400 ca        1 AF8     -0.085300
     27 C1          5.8240   -4.7410   -0.6910 cc        1 AF8      0.306200
     28 N1          4.5890   -5.2670   -0.7230 nd        1 AF8     -0.349300
     29 O1          3.7040   -4.2990   -0.8300 os        1 AF8     -0.105100
     30 S1          4.1580   -0.3320   -0.9940 ss        1 AF8      0.283200
     31 C2          3.5620   -1.8770   -0.9910 cd        1 AF8     -0.185600
     32 C3          4.3690   -3.0420   -0.8740 cd        1 AF8      0.338200
     33 C4          5.7300   -3.2910   -0.7870 cc        1 AF8     -0.353600
     34 C5          2.6880    0.4010   -1.1560 cd        1 AF8     -0.484600
     35 C6          1.6680   -0.5620   -1.2190 cc        1 AF8     -0.028000
     36 C7          2.1680   -1.8770   -1.1230 cc        1 AF8     -0.134000
     37 S8          2.3530    2.0290   -1.3030 sy        1 AF8      1.539200
     38 O9          3.5870    2.7110   -1.3920 o         1 AF8     -0.654300
     39 O10         1.4550    2.2340   -2.3720 o         1 AF8     -0.654300
     40 H27        -3.2170   -3.1710   -1.1880 ha        1 AF8      0.157000
     41 H25        -4.8800   -5.4680    2.1030 ha        1 AF8      0.155000
     42 H24        -4.1390   -3.6820    3.7010 ha        1 AF8      0.140000
     43 H23        -2.9610   -1.6630    2.8670 ha        1 AF8      0.138000
     44 HO27       -4.2500   -5.2280   -1.3520 ho        1 AF8      0.425000
     45 H12         1.6480    2.3200    2.2040 h1        1 AF8      0.055200
     46 H12A        3.1290    1.7050    1.3420 h1        1 AF8      0.055200
     47 H13         3.7120    4.0810    0.6760 hc        1 AF8      0.080700
     48 H14         1.3140    4.7540    2.5200 hc        1 AF8      0.034367
     49 H14A        2.6010    5.9300    2.0280 hc        1 AF8      0.034367
     50 H14B        1.5270    5.1930    0.7730 hc        1 AF8      0.034367
     51 H15         4.6800    2.9240    2.6630 hc        1 AF8      0.034367
     52 H15A        4.4710    4.6960    2.9780 hc        1 AF8      0.034367
     53 H15B        3.3090    3.5050    3.6980 hc        1 AF8      0.034367
     54 H16        -0.0170    3.5840    0.7050 h1        1 AF8      0.068200
     55 H16A       -0.2160    2.6950   -0.8790 h1        1 AF8      0.068200
     56 H17        -0.0570    0.5000    0.8120 h1        1 AF8      0.101700
     57 HO18       -0.9980    2.5970    2.4520 ho        1 AF8      0.396000
     58 H19        -1.8850    1.2560   -0.8180 h1        1 AF8      0.089700
     59 HN20       -3.2770    0.2000    1.5340 hn        1 AF8      0.319500
     60 H32        -3.0440    2.6840    1.7060 hc        1 AF8      0.055200
     61 H32A       -2.2470    3.4950    0.2940 hc        1 AF8      0.055200
     62 H33        -5.3600    2.3450    1.6370 ha        1 AF8      0.132000
     63 H34        -7.5130    2.3870    0.3920 ha        1 AF8      0.134500
     64 H35        -7.5210    2.6770   -2.0870 ha        1 AF8      0.134000
     65 H36        -5.3630    2.9240   -3.3180 ha        1 AF8      0.134500
     66 H37        -3.2050    2.8820   -2.0750 ha        1 AF8      0.132000
     67 H4          6.5590   -2.5910   -0.7900 ha        1 AF8      0.178000
     68 H6          0.5980   -0.3390   -1.3370 ha        1 AF8      0.194000
     69 H7          1.5470   -2.7780   -1.1470 ha        1 AF8      0.184000
     70 H1          6.7320   -5.3400   -0.6060 h4        1 AF8      0.055100
@<TRIPOS>BOND
     1    1    2 2   
     2    1    3 1   
     3    1   19 1   
     4    3    4 ar  
     5    3    8 ar  
     6    4    5 ar  
     7    4   40 1   
     8    5    6 ar  
     9    5    9 1   
    10    6    7 ar  
    11    6   41 1   
    12    7    8 ar  
    13    7   42 1   
    14    8   43 1   
    15    9   44 1   
    16   10   11 1   
    17   10   15 1   
    18   10   37 1   
    19   11   12 1   
    20   11   45 1   
    21   11   46 1   
    22   12   13 1   
    23   12   14 1   
    24   12   47 1   
    25   13   48 1   
    26   13   49 1   
    27   13   50 1   
    28   14   51 1   
    29   14   52 1   
    30   14   53 1   
    31   15   16 1   
    32   15   54 1   
    33   15   55 1   
    34   16   17 1   
    35   16   18 1   
    36   16   56 1   
    37   17   57 1   
    38   18   19 1   
    39   18   20 1   
    40   18   58 1   
    41   19   59 1   
    42   20   26 1   
    43   20   60 1   
    44   20   61 1   
    45   21   22 ar  
    46   21   26 ar  
    47   21   62 1   
    48   22   23 ar  
    49   22   63 1   
    50   23   24 ar  
    51   23   64 1   
    52   24   25 ar  
    53   24   65 1   
    54   25   26 ar  
    55   25   66 1   
    56   27   28 2   
    57   27   33 1   
    58   27   70 1   
    59   28   29 1   
    60   29   32 1   
    61   30   31 1   
    62   30   34 1   
    63   31   32 1   
    64   31   36 2   
    65   32   33 2   
    66   33   67 1   
    67   34   35 2   
    68   34   37 1   
    69   35   36 1   
    70   35   68 1   
    71   36   69 1   
    72   37   38 2   
    73   37   39 2   
@<TRIPOS>SUBSTRUCTURE
     1 AF8         1 TEMP              0 ****  ****    0 ROOT
