@<TRIPOS>MOLECULE
AF8
   72    74     1     0     0
SMALL
bcc


@<TRIPOS>ATOM
      1 C21        -0.4910   -0.6180    0.8500 c         1 AF8      0.584700
      2 O22        -0.7220    0.5790    0.7320 o         1 AF8     -0.448100
      3 C22        -0.4540   -1.4180    2.0750 ca        1 AF8     -0.172600
      4 C27        -0.2920   -0.7090    3.2730 ca        1 AF8     -0.078000
      5 C26        -0.2580   -1.4210    4.4870 ca        1 AF8      0.145100
      6 C25        -0.3950   -2.8170    4.5010 ca        1 AF8     -0.140000
      7 C24        -0.5670   -3.5000    3.2980 ca        1 AF8     -0.075000
      8 C23        -0.5960   -2.8150    2.0860 ca        1 AF8     -0.139000
      9 O27        -0.0870   -0.6630    5.6120 oh        1 AF8     -0.468100
     10 N11        -1.8730    1.9320   -3.8250 n7        1 AF8     -0.891200
     11 C12        -3.1150    1.3510   -4.3410 c3        1 AF8      0.114800
     12 C13        -3.1620    1.1230   -5.8590 c3        1 AF8     -0.057700
     13 C14        -2.2100    0.0440   -6.3230 c3        1 AF8     -0.105600
     14 C15        -4.5880    0.7680   -6.2360 c3        1 AF8     -0.105600
     15 C16        -0.8440    0.9730   -3.4480 c3        1 AF8      0.099800
     16 C17        -1.1680    0.0560   -2.2550 c3        1 AF8      0.097100
     17 O18        -2.0070   -1.0270   -2.5970 oh        1 AF8     -0.597800
     18 C19         0.1410   -0.4740   -1.6070 c3        1 AF8      0.098500
     19 N20        -0.1860   -1.3630   -0.4380 ny        1 AF8     -0.678800
     20 C32         1.0190   -1.2180   -2.6240 c3        1 AF8     -0.052100
     21 C33         2.2660   -3.2080   -1.7560 ca        1 AF8     -0.131500
     22 C34         3.4060   -3.7850   -1.1990 ca        1 AF8     -0.111500
     23 C35         4.5050   -2.9880   -0.8720 ca        1 AF8     -0.091000
     24 C36         4.4630   -1.6130   -1.1050 ca        1 AF8     -0.111500
     25 C37         3.3250   -1.0330   -1.6640 ca        1 AF8     -0.131500
     26 C38         2.2180   -1.8270   -1.9890 ca        1 AF8     -0.169300
     27 C1         -5.9710    7.3570   -9.1000 cc        1 AF8      0.307200
     28 N1         -5.9930    8.1240   -7.9940 nd        1 AF8     -0.264300
     29 O1         -5.1290    7.6730   -7.1240 os        1 AF8     -0.085100
     30 S1         -2.6730    4.5480   -7.1430 ss        1 AF8      0.419200
     31 C2         -3.4870    5.9200   -6.8280 cd        1 AF8     -0.054600
     32 C3         -4.4660    6.5210   -7.6530 cd        1 AF8      0.218200
     33 C4         -4.9890    6.2970   -8.9230 cc        1 AF8     -0.236600
     34 C5         -1.7460    4.5480   -5.7440 cd        1 AF8     -0.784600
     35 C6         -2.1190    5.7180   -4.9670 cc        1 AF8      0.000000
     36 C7         -3.0910    6.4820   -5.5720 cc        1 AF8     -0.142000
     37 S8         -0.6510    3.6310   -5.2470 s4        1 AF8      1.741300
     38 O9         -0.1960    2.6420   -6.0570 o         1 AF8     -0.445900
     39 O10         0.0080    3.9580   -4.1050 o         1 AF8     -0.445900
     40 H27        -0.1940    0.3900    3.2840 ha        1 AF8      0.185000
     41 H25        -0.3710   -3.3690    5.4550 ha        1 AF8      0.173000
     42 H24        -0.6850   -4.5970    3.3080 ha        1 AF8      0.170000
     43 H23        -0.7570   -3.3920    1.1640 ha        1 AF8      0.128000
     44 HO27       -0.0970   -1.2460    6.3890 ho        1 AF8      0.450000
     45 H12        -3.3420    0.3680   -3.8320 h1        1 AF8      0.075200
     46 H12A       -3.9530    2.0610   -4.0760 h1        1 AF8      0.075200
     47 H13        -2.8880    2.0890   -6.3800 hc        1 AF8      0.008700
     48 H14        -1.1600    0.4250   -6.3590 hc        1 AF8      0.052867
     49 H14A       -2.4850   -0.2940   -7.3540 hc        1 AF8      0.052867
     50 H14B       -2.2590   -0.8430   -5.6460 hc        1 AF8      0.052867
     51 H15        -4.6710    0.6400   -7.3430 hc        1 AF8      0.052867
     52 H15A       -5.2970    1.5700   -5.9170 hc        1 AF8      0.052867
     53 H15B       -4.8950   -0.1900   -5.7500 hc        1 AF8      0.052867
     54 H16        -0.6090    0.3340   -4.3480 h1        1 AF8      0.091200
     55 H16A        0.0770    1.5750   -3.1870 h1        1 AF8      0.091200
     56 H17        -1.7540    0.6220   -1.4670 h1        1 AF8      0.112700
     57 HO18       -1.7180   -1.3930   -3.4450 ho        1 AF8      0.428000
     58 H19         0.7200    0.4090   -1.1980 hx        1 AF8      0.124700
     59 HN20        0.6130   -1.9960   -0.2690 hn        1 AF8      0.474300
     60 H32         0.4120   -2.0030   -3.1490 hc        1 AF8      0.079700
     61 H32A        1.3440   -0.4670   -3.3960 hc        1 AF8      0.079700
     62 H33         1.4210   -3.8490   -2.0490 ha        1 AF8      0.134000
     63 H34         3.4460   -4.8730   -1.0320 ha        1 AF8      0.160000
     64 H35         5.4100   -3.4470   -0.4410 ha        1 AF8      0.165000
     65 H36         5.3350   -0.9850   -0.8600 ha        1 AF8      0.160000
     66 H37         3.3050    0.0490   -1.8650 ha        1 AF8      0.134000
     67 H4         -4.7450    5.5250   -9.6510 ha        1 AF8      0.194000
     68 H6         -1.6460    5.9560   -4.0030 ha        1 AF8      0.201000
     69 H7         -3.5210    7.4110   -5.1730 ha        1 AF8      0.221000
     70 H111       -2.1040    2.4820   -3.0090 hn        1 AF8      0.388800
     71 H202       -1.0080   -1.9320   -0.6850 hn        1 AF8      0.474300
     72 H1         -6.6070    7.5390   -9.9740 h4        1 AF8      0.091100
@<TRIPOS>BOND
     1    1    2 2   
     2    1    3 1   
     3    1   19 1   
     4    3    4 ar  
     5    3    8 ar  
     6    4    5 ar  
     7    4   40 1   
     8    5    6 ar  
     9    5    9 1   
    10    6    7 ar  
    11    6   41 1   
    12    7    8 ar  
    13    7   42 1   
    14    8   43 1   
    15    9   44 1   
    16   10   11 1   
    17   10   15 1   
    18   10   70 1   
    19   11   12 1   
    20   11   45 1   
    21   11   46 1   
    22   12   13 1   
    23   12   14 1   
    24   12   47 1   
    25   13   48 1   
    26   13   49 1   
    27   13   50 1   
    28   14   51 1   
    29   14   52 1   
    30   14   53 1   
    31   15   16 1   
    32   15   54 1   
    33   15   55 1   
    34   16   17 1   
    35   16   18 1   
    36   16   56 1   
    37   17   57 1   
    38   18   19 1   
    39   18   20 1   
    40   18   58 1   
    41   19   59 1   
    42   19   71 1   
    43   20   26 1   
    44   20   60 1   
    45   20   61 1   
    46   21   22 ar  
    47   21   26 ar  
    48   21   62 1   
    49   22   23 ar  
    50   22   63 1   
    51   23   24 ar  
    52   23   64 1   
    53   24   25 ar  
    54   24   65 1   
    55   25   26 ar  
    56   25   66 1   
    57   27   28 2   
    58   27   33 1   
    59   27   72 1   
    60   28   29 1   
    61   29   32 1   
    62   30   31 1   
    63   30   34 1   
    64   31   32 1   
    65   31   36 2   
    66   32   33 2   
    67   33   67 1   
    68   34   35 2   
    69   34   37 1   
    70   35   36 1   
    71   35   68 1   
    72   36   69 1   
    73   37   38 1   
    74   37   39 1   
@<TRIPOS>SUBSTRUCTURE
     1 AF8         1 TEMP              0 ****  ****    0 ROOT
