@<TRIPOS>MOLECULE
AF8
   70    62     1     0     0
SMALL
bcc


@<TRIPOS>ATOM
      1 C21         0.7410   -0.6040    3.4920 c1        1 AF8      0.350000
      2 O22         1.9260   -0.3700    3.3790 o         1 AF8     -0.388000
      3 C22         0.0320   -0.3500    4.8340 c2        1 AF8     -0.085000
      4 C27         0.7380    0.2000    5.8980 c2        1 AF8     -0.105000
      5 C26         0.1110    0.3910    7.1230 c1        1 AF8      0.074000
      6 C25        -1.2190    0.0320    7.2860 c1        1 AF8     -0.132167
      7 C24        -1.9250   -0.5180    6.2240 c1        1 AF8     -0.132167
      8 C23        -1.2980   -0.7090    4.9960 c1        1 AF8     -0.144000
      9 O27         0.8120    1.0110    8.1880 oh        1 AF8     -0.245000
     10 N11         0.4430    0.2450   -2.2030 n3        1 AF8     -0.825000
     11 C12        -0.7000   -0.2100   -2.9690 c3        1 AF8     -0.006000
     12 C13        -0.2960   -0.3730   -4.4550 c3        1 AF8     -0.137000
     13 C14        -0.4200   -1.8300   -4.8560 c3        1 AF8     -0.206500
     14 C15        -1.2180    0.4750   -5.3270 c3        1 AF8     -0.206500
     15 C16         1.0160   -0.6210   -1.1460 c3        1 AF8     -0.055000
     16 C17         0.0250   -0.7340    0.0200 c3        1 AF8     -0.020000
     17 O18        -1.0990   -1.4190   -0.3960 oh        1 AF8     -0.329000
     18 C19         0.6830   -1.4880    1.1800 c3        1 AF8      0.047000
     19 N20         0.0110   -1.1730    2.3900 n2        1 AF8     -0.365000
     20 C32         0.5960   -2.9750    0.9300 c3        1 AF8     -0.134000
     21 C33         1.2420   -4.8020    2.3650 c1        1 AF8     -0.133000
     22 C34         2.1070   -5.8190    2.7570 c1        1 AF8     -0.132167
     23 C35         3.4620   -5.7250    2.4720 c1        1 AF8     -0.132167
     24 C36         3.9540   -4.6180    1.7970 c1        1 AF8     -0.132167
     25 C37         3.0890   -3.6010    1.4040 c1        1 AF8     -0.132167
     26 C38         1.7340   -3.6930    1.6890 c1        1 AF8     -0.078000
     27 C1         -3.6030    7.1790   -4.8030 c1        1 AF8     -0.159000
     28 N1         -4.5160    6.4830   -4.0980 n2        1 AF8     -0.014000
     29 O1         -3.8400    5.5350   -3.3360 os        1 AF8     -0.047000
     30 S1         -0.8740    3.5990   -3.5180 ss        1 AF8      0.811000
     31 C2         -1.4850    4.9210   -2.9790 c2        1 AF8     -0.345000
     32 C3         -2.5190    5.6620   -3.5860 c2        1 AF8      0.035000
     33 C4         -2.3550    6.6790   -4.4950 c1        1 AF8     -0.223000
     34 C5          0.1140    3.0670   -2.4450 c1        1 AF8     -1.198000
     35 C6          0.1050    3.9980   -1.3330 c1        1 AF8     -0.026000
     36 C7         -0.9110    5.1760   -1.6730 c1        1 AF8     -0.135000
     37 S8          1.2230    1.6590   -2.6360 s4        1 AF8      2.094800
     38 O9          1.7410    1.5800   -3.9740 o         1 AF8     -0.539400
     39 O10         2.4320    1.8410   -1.8790 o         1 AF8     -0.539400
     40 H27         1.6740    0.4530    5.7850 ha        1 AF8      0.172000
     41 H25        -1.6600    0.1670    8.1480 ha        1 AF8      0.134833
     42 H24        -2.8610   -0.7700    6.3390 ha        1 AF8      0.134833
     43 H23        -1.7930   -1.0950    4.2510 ha        1 AF8      0.139000
     44 HO27        1.1450    0.3860    8.7300 ho        1 AF8      0.220000
     45 H12        -1.4240    0.4480   -2.8980 h1        1 AF8      0.082000
     46 H12A       -1.0060   -1.0700   -2.6190 h1        1 AF8      0.082000
     47 H13         0.6250   -0.0790   -4.5760 hc        1 AF8      0.124000
     48 H14        -1.3060   -2.1630   -4.6050 hc        1 AF8      0.075000
     49 H14A        0.2660   -2.3530   -4.3990 hc        1 AF8      0.075000
     50 H14B       -0.3020   -1.9130   -5.8290 hc        1 AF8      0.075000
     51 H15        -2.0950    0.0360   -5.4000 hc        1 AF8      0.075000
     52 H15A       -0.8240    0.5730   -6.2250 hc        1 AF8      0.075000
     53 H15B       -1.3280    1.3560   -4.9220 hc        1 AF8      0.075000
     54 H16         1.1910   -1.5110   -1.5130 h1        1 AF8      0.115500
     55 H16A        1.8540   -0.2300   -0.8250 h1        1 AF8      0.115500
     56 H17        -0.2310    0.1610    0.3170 h1        1 AF8      0.103000
     57 HO18       -1.8240   -0.9480   -0.1940 ho        1 AF8      0.203000
     58 H19         1.6210   -1.2240    1.2490 h1        1 AF8      0.118000
     59 HN20       -0.8790   -1.3540    2.4770 hn        1 AF8      0.238000
     60 H32        -0.2700   -3.3080    1.2470 hc        1 AF8      0.106500
     61 H32A        0.6820   -3.1510   -0.0280 hc        1 AF8      0.106500
     62 H33         0.2950   -4.8680    2.5640 ha        1 AF8      0.128000
     63 H34         1.7630   -6.5950    3.2310 ha        1 AF8      0.134833
     64 H35         4.0690   -6.4380    2.7470 ha        1 AF8      0.134833
     65 H36         4.9050   -4.5530    1.5960 ha        1 AF8      0.134833
     66 H37         3.4330   -2.8280    0.9330 ha        1 AF8      0.134833
     67 H1         -3.7920    7.9120   -5.4270 DU        1 AF8      0.189250
     68 H4         -1.5030    6.9930   -4.8600 DU        1 AF8      0.189250
     69 H6          0.6340    3.9170   -0.5140 DU        1 AF8      0.189250
     70 H7         -1.1140    5.9440   -1.0960 DU        1 AF8      0.189250
@<TRIPOS>BOND
     1    1    2 1   
     2    1    3 1   
     3    3    4 1   
     4    3    8 1   
     5    4    5 1   
     6    4   40 1   
     7    5    9 1   
     8    6    7 1   
     9    6   41 1   
    10    7   42 1   
    11    8   43 1   
    12    9   44 1   
    13   10   11 1   
    14   10   15 1   
    15   10   37 1   
    16   11   12 1   
    17   11   45 1   
    18   11   46 1   
    19   12   13 1   
    20   12   14 1   
    21   12   47 1   
    22   13   48 1   
    23   13   49 1   
    24   13   50 1   
    25   14   51 1   
    26   14   52 1   
    27   14   53 1   
    28   15   16 1   
    29   15   54 1   
    30   15   55 1   
    31   16   17 1   
    32   16   18 1   
    33   16   56 1   
    34   17   57 1   
    35   18   19 1   
    36   18   20 1   
    37   18   58 1   
    38   19   59 1   
    39   20   26 1   
    40   20   60 1   
    41   20   61 1   
    42   21   26 1   
    43   21   62 1   
    44   22   23 1   
    45   22   63 1   
    46   23   64 1   
    47   24   25 1   
    48   24   65 1   
    49   25   66 1   
    50   27   28 1   
    51   27   33 1   
    52   28   29 1   
    53   29   32 1   
    54   30   31 1   
    55   30   34 1   
    56   31   32 1   
    57   31   36 1   
    58   32   33 1   
    59   34   35 1   
    60   35   36 1   
    61   37   38 1   
    62   37   39 1   
@<TRIPOS>SUBSTRUCTURE
     1 AF8         1 TEMP              0 ****  ****    0 ROOT
