@<TRIPOS>MOLECULE
AF8
   72    74     1     0     0
SMALL
bcc


@<TRIPOS>ATOM
      1 C21        -0.5020   -0.6620    0.8360 c         1 AF8      0.584700
      2 O22        -0.7200    0.5390    0.7300 o         1 AF8     -0.448100
      3 C22        -0.4720   -1.4740    2.0520 ca        1 AF8     -0.172600
      4 C27        -0.3010   -0.7790    3.2570 ca        1 AF8     -0.078000
      5 C26        -0.2740   -1.5040    4.4640 ca        1 AF8      0.145100
      6 C25        -0.4260   -2.8990    4.4640 ca        1 AF8     -0.140000
      7 C24        -0.6070   -3.5680    3.2540 ca        1 AF8     -0.075000
      8 C23        -0.6290   -2.8700    2.0490 ca        1 AF8     -0.139000
      9 O27        -0.0940   -0.7590    5.5960 oh        1 AF8     -0.468100
     10 N11        -1.8620    1.9510   -3.8120 n3        1 AF8     -0.891200
     11 C12        -3.1100    1.3890   -4.3320 c3        1 AF8      0.114800
     12 C13        -3.1620    1.1780   -5.8520 c3        1 AF8     -0.057700
     13 C14        -2.2220    0.0920   -6.3280 c3        1 AF8     -0.105600
     14 C15        -4.5920    0.8430   -6.2310 c3        1 AF8     -0.105600
     15 C16        -0.8420    0.9770   -3.4460 c3        1 AF8      0.099800
     16 C17        -1.1750    0.0520   -2.2620 c3        1 AF8      0.097100
     17 O18        -2.0270   -1.0180   -2.6130 oh        1 AF8     -0.597800
     18 C19         0.1280   -0.4990   -1.6210 c3        1 AF8      0.098500
     19 N20        -0.2070   -1.3970   -0.4600 n4        1 AF8     -0.678800
     20 C32         0.9980   -1.2420   -2.6460 c3        1 AF8     -0.052100
     21 C33         2.2230   -3.2550   -1.8000 ca        1 AF8     -0.131500
     22 C34         3.3580   -3.8500   -1.2510 ca        1 AF8     -0.111500
     23 C35         4.4660   -3.0690   -0.9170 ca        1 AF8     -0.091000
     24 C36         4.4380   -1.6900   -1.1370 ca        1 AF8     -0.111500
     25 C37         3.3060   -1.0930   -1.6880 ca        1 AF8     -0.131500
     26 C38         2.1910   -1.8710   -2.0200 ca        1 AF8     -0.169300
     27 C1         -5.9030    7.4770   -9.0260 cc        1 AF8      0.307200
     28 N1         -5.9140    8.2320   -7.9120 nd        1 AF8     -0.264300
     29 O1         -5.0550    7.7630   -7.0480 os        1 AF8     -0.085100
     30 S1         -2.6350    4.6110   -7.1020 ss        1 AF8      0.419200
     31 C2         -3.4330    5.9880   -6.7710 cd        1 AF8     -0.054600
     32 C3         -4.4060    6.6090   -7.5900 cd        1 AF8      0.218200
     33 C4         -4.9330    6.4030   -8.8610 cc        1 AF8     -0.236600
     34 C5         -1.7070    4.5850   -5.7040 cd        1 AF8     -0.784600
     35 C6         -2.0660    5.7520   -4.9150 cc        1 AF8      0.000000
     36 C7         -3.0290    6.5320   -5.5110 cc        1 AF8     -0.142000
     37 S8         -0.6220    3.6500   -5.2180 s4        1 AF8      1.741300
     38 O9         -0.1780    2.6650   -6.0380 o         1 AF8     -0.445900
     39 O10         0.0430    3.9580   -4.0730 o         1 AF8     -0.445900
     40 H27        -0.1920    0.3180    3.2790 ha        1 AF8      0.185000
     41 H25        -0.4070   -3.4610    5.4120 ha        1 AF8      0.173000
     42 H24        -0.7370   -4.6630    3.2530 ha        1 AF8      0.170000
     43 H23        -0.7980   -3.4360    1.1210 ha        1 AF8      0.128000
     44 HO27       -0.1090   -1.3510    6.3680 ho        1 AF8      0.450000
     45 H12        -3.9400    2.1060   -4.0590 h1        1 AF8      0.075200
     46 H12A       -3.3480    0.4040   -3.8330 h1        1 AF8      0.075200
     47 H13        -2.8770    2.1450   -6.3640 hc        1 AF8      0.008700
     48 H14        -2.2800   -0.8010   -5.6600 hc        1 AF8      0.052867
     49 H14A       -1.1670    0.4620   -6.3610 hc        1 AF8      0.052867
     50 H14B       -2.5020   -0.2320   -7.3620 hc        1 AF8      0.052867
     51 H15        -4.9090   -0.1170   -5.7540 hc        1 AF8      0.052867
     52 H15A       -4.6770    0.7270   -7.3390 hc        1 AF8      0.052867
     53 H15B       -5.2910    1.6490   -5.9030 hc        1 AF8      0.052867
     54 H16        -0.6160    0.3440   -4.3520 h1        1 AF8      0.091200
     55 H16A        0.0860    1.5660   -3.1790 h1        1 AF8      0.091200
     56 H17        -1.7540    0.6160   -1.4670 h1        1 AF8      0.112700
     57 HO18       -1.7430   -1.3790   -3.4660 ho        1 AF8      0.428000
     58 H19         0.7180    0.3730   -1.2040 hx        1 AF8      0.124700
     59 HN20       -1.0360   -1.9540   -0.7120 hn        1 AF8      0.474300
     60 H32         1.3290   -0.4880   -3.4110 hc        1 AF8      0.079700
     61 H32A        0.3810   -2.0160   -3.1780 hc        1 AF8      0.079700
     62 H33         1.3710   -3.8840   -2.0990 ha        1 AF8      0.134000
     63 H34         3.3860   -4.9400   -1.0950 ha        1 AF8      0.160000
     64 H35         5.3670   -3.5420   -0.4920 ha        1 AF8      0.165000
     65 H36         5.3170   -1.0750   -0.8860 ha        1 AF8      0.160000
     66 H37         3.2980   -0.0090   -1.8780 ha        1 AF8      0.134000
     67 H4         -4.6990    5.6370   -9.5970 ha        1 AF8      0.194000
     68 H6         -1.5890    5.9740   -3.9490 ha        1 AF8      0.201000
     69 H7         -3.4480    7.4620   -5.1010 ha        1 AF8      0.221000
     70 H111       -2.0850    2.4950   -2.9890 hn        1 AF8      0.388800
     71 H202        0.5860   -2.0410   -0.2990 hn        1 AF8      0.474300
     72 H1         -6.5380    7.6750   -9.8970 h4        1 AF8      0.091100
@<TRIPOS>BOND
     1    1    2 2   
     2    1    3 1   
     3    1   19 1   
     4    3    4 ar  
     5    3    8 ar  
     6    4    5 ar  
     7    4   40 1   
     8    5    6 ar  
     9    5    9 1   
    10    6    7 ar  
    11    6   41 1   
    12    7    8 ar  
    13    7   42 1   
    14    8   43 1   
    15    9   44 1   
    16   10   11 1   
    17   10   15 1   
    18   10   70 1   
    19   11   12 1   
    20   11   45 1   
    21   11   46 1   
    22   12   13 1   
    23   12   14 1   
    24   12   47 1   
    25   13   48 1   
    26   13   49 1   
    27   13   50 1   
    28   14   51 1   
    29   14   52 1   
    30   14   53 1   
    31   15   16 1   
    32   15   54 1   
    33   15   55 1   
    34   16   17 1   
    35   16   18 1   
    36   16   56 1   
    37   17   57 1   
    38   18   19 1   
    39   18   20 1   
    40   18   58 1   
    41   19   59 1   
    42   19   71 1   
    43   20   26 1   
    44   20   60 1   
    45   20   61 1   
    46   21   22 ar  
    47   21   26 ar  
    48   21   62 1   
    49   22   23 ar  
    50   22   63 1   
    51   23   24 ar  
    52   23   64 1   
    53   24   25 ar  
    54   24   65 1   
    55   25   26 ar  
    56   25   66 1   
    57   27   28 2   
    58   27   33 1   
    59   27   72 1   
    60   28   29 1   
    61   29   32 1   
    62   30   31 1   
    63   30   34 1   
    64   31   32 1   
    65   31   36 2   
    66   32   33 2   
    67   33   67 1   
    68   34   35 2   
    69   34   37 1   
    70   35   36 1   
    71   35   68 1   
    72   36   69 1   
    73   37   38 1   
    74   37   39 1   
@<TRIPOS>SUBSTRUCTURE
     1 AF8         1 TEMP              0 ****  ****    0 ROOT
