@<TRIPOS>MOLECULE
AFA
   38    37     1     0     0
SMALL
bcc


@<TRIPOS>ATOM
      1 N           0.0140   -0.7640    2.0280 n         1 AFA     -0.503900
      2 CA          0.7010    0.2950    2.7410 c3        1 AFA     -0.070300
      3 CB          0.2100    0.4610    4.1800 c3        1 AFA     -0.139400
      4 CG         -1.2620    0.7520    4.3540 c         1 AFA      0.651100
      5 OD1        -1.8910    0.3440    5.3600 o         1 AFA     -0.670100
      6 ND2        -1.9120    1.5470    3.4360 n         1 AFA     -0.656000
      7 C           2.2590    0.0280    2.8360 c         1 AFA      0.913600
      8 O           2.9570    1.0090    3.1970 o         1 AFA     -0.820300
      9 OXT         2.6830   -1.1240    2.5500 o         1 AFA     -0.820300
     10 C1         -0.7890   -0.5230    0.9400 c         1 AFA      0.643300
     11 O1         -1.2820    0.6090    0.7010 o         1 AFA     -0.670100
     12 C2         -1.1410   -1.7070    0.1010 ce        1 AFA     -0.201200
     13 C3         -1.2180   -1.6970   -1.2360 cf        1 AFA     -0.092000
     14 C4         -0.9730   -0.5450   -2.0790 cf        1 AFA     -0.130000
     15 C5         -0.9780   -0.6120   -3.4180 c2        1 AFA     -0.171200
     16 C6         -0.7570    0.5660   -4.2890 c3        1 AFA     -0.044200
     17 C7          0.0630    0.2270   -5.5280 c3        1 AFA     -0.064700
     18 C8          0.0670    1.3990   -6.4860 c3        1 AFA     -0.090100
     19 C9          1.4790   -0.1550   -5.1520 c3        1 AFA     -0.090100
     20 H           0.5310   -1.6250    2.0350 hn        1 AFA      0.326500
     21 HA          0.5740    1.2660    2.1820 h1        1 AFA      0.066700
     22 HB2         0.4430   -0.4630    4.7710 hc        1 AFA      0.085700
     23 HB3         0.7950    1.3110    4.6270 hc        1 AFA      0.085700
     24 HD21       -2.8990    1.6070    3.4960 hn        1 AFA      0.304500
     25 HD22       -1.5110    1.6770    2.5350 hn        1 AFA      0.304500
     26 H2         -1.3430   -2.6350    0.6620 ha        1 AFA      0.133000
     27 H3         -1.4790   -2.6330   -1.7640 ha        1 AFA      0.110000
     28 H4         -0.7860    0.4090   -1.5510 ha        1 AFA      0.163000
     29 H5         -1.1640   -1.5630   -3.9440 ha        1 AFA      0.110000
     30 H61        -0.2450    1.3880   -3.7190 hc        1 AFA      0.049200
     31 H62        -1.7580    0.9630   -4.6140 hc        1 AFA      0.049200
     32 H7         -0.4190   -0.6520   -6.0430 hc        1 AFA      0.038700
     33 H81         0.6680    1.1550   -7.3950 hc        1 AFA      0.033033
     34 H82        -0.9740    1.6480   -6.8050 hc        1 AFA      0.033033
     35 H83         0.5120    2.3010   -6.0000 hc        1 AFA      0.033033
     36 H91         2.0030    0.7050   -4.6690 hc        1 AFA      0.033033
     37 H92         1.4680   -1.0090   -4.4320 hc        1 AFA      0.033033
     38 H93         2.0540   -0.4570   -6.0600 hc        1 AFA      0.033033
@<TRIPOS>BOND
     1    1    2 1   
     2    1   10 1   
     3    1   20 1   
     4    2    3 1   
     5    2    7 1   
     6    2   21 1   
     7    3    4 1   
     8    3   22 1   
     9    3   23 1   
    10    4    5 2   
    11    4    6 1   
    12    6   24 1   
    13    6   25 1   
    14    7    8 1   
    15    7    9 1   
    16   10   11 2   
    17   10   12 1   
    18   12   13 2   
    19   12   26 1   
    20   13   14 1   
    21   13   27 1   
    22   14   15 2   
    23   14   28 1   
    24   15   16 1   
    25   15   29 1   
    26   16   17 1   
    27   16   30 1   
    28   16   31 1   
    29   17   18 1   
    30   17   19 1   
    31   17   32 1   
    32   18   33 1   
    33   18   34 1   
    34   18   35 1   
    35   19   36 1   
    36   19   37 1   
    37   19   38 1   
@<TRIPOS>SUBSTRUCTURE
     1 AFA         1 TEMP              0 ****  ****    0 ROOT
