@<TRIPOS>MOLECULE
AFB
   44    43     1     0     0
SMALL
bcc


@<TRIPOS>ATOM
      1 OC7        -3.6050    2.9120   -1.0550 oh        1 AFB     -0.324000
      2 C7         -2.2980    2.9120   -1.0550 c3        1 AFB      0.027000
      3 C8         -1.7480    2.9120    0.4390 c3        1 AFB     -0.190000
      4 C6         -1.7530    1.5910   -1.7230 c3        1 AFB     -0.157000
      5 C5         -0.8430    1.1290   -0.8920 c3        1 AFB     -0.128000
      6 C9         -1.2740    1.6770    0.6490 c3        1 AFB     -0.067000
      7 C10        -0.0350    1.8290    1.1140 c2        1 AFB     -0.138000
      8 C11         0.6240    0.7120    1.8810 c1        1 AFB     -0.170000
      9 C12        -0.1030   -0.5970    2.0820 c2        1 AFB     -0.131000
     10 C13         0.9030   -1.7210    2.1880 c3        1 AFB     -0.155000
     11 C14         0.3500   -2.9580    1.5080 c3        1 AFB     -0.179000
     12 C15         1.0520   -3.1610    0.1830 c3        1 AFB      0.032000
     13 C16         2.2470   -4.0680    0.3800 c3        1 AFB     -0.217000
     14 O16         1.4820   -1.9190   -0.3140 os        1 AFB     -0.286000
     15 C1          0.4660   -1.3540   -1.1080 c2        1 AFB      0.336000
     16 OC1        -0.6070   -1.9170   -1.2140 o         1 AFB     -0.347000
     17 C2          1.0830   -0.6720   -2.3090 c2        1 AFB     -0.175000
     18 C3          1.0990    0.8410   -2.3970 c1        1 AFB     -0.121000
     19 C4          0.5300    1.6670   -1.2720 c2        1 AFB      0.058000
     20 OC4         1.3850    1.5960   -0.1590 oh        1 AFB     -0.316000
     21 HO7        -3.9010    3.6400   -1.4680 ho        1 AFB      0.198000
     22 HC7        -1.9630    3.6930   -1.5350 h1        1 AFB      0.072000
     23 H81        -2.4710    3.1060    1.0650 hc        1 AFB      0.090500
     24 H82        -1.0320    3.5690    0.5350 hc        1 AFB      0.090500
     25 H61        -2.4750    0.9430   -1.8280 hc        1 AFB      0.104000
     26 H62        -1.3500    1.7920   -2.5890 hc        1 AFB      0.104000
     27 H5         -0.8370    0.1530   -0.9110 hc        1 AFB      0.099000
     28 H9         -1.7190    1.0810    1.2810 hc        1 AFB      0.101000
     29 H101        0.4350    2.6750    0.9840 ha        1 AFB      0.126000
     30 H111        1.5020    0.8490    2.2850 ha        1 AFB      0.120000
     31 H121       -0.6300   -0.5530    2.9030 ha        1 AFB      0.085000
     32 H122       -0.6950   -0.7600    1.3240 ha        1 AFB      0.085000
     33 H131        1.0750   -1.9160    3.1290 hc        1 AFB      0.085500
     34 H132        1.7350   -1.4550    1.7530 hc        1 AFB      0.085500
     35 H141       -0.6070   -2.8450    1.3560 hc        1 AFB      0.095000
     36 H142        0.4990   -3.7360    2.0780 hc        1 AFB      0.095000
     37 H15         0.4340   -3.5700   -0.4520 h1        1 AFB      0.116000
     38 H161        3.0590   -3.5290    0.4340 hc        1 AFB      0.088333
     39 H162        2.1380   -4.5760    1.2060 hc        1 AFB      0.088333
     40 H163        2.3160   -4.6840   -0.3750 hc        1 AFB      0.088333
     41 H21         1.4520   -1.2060   -3.0380 ha        1 AFB      0.158000
     42 H31         1.4980    1.2810   -3.1710 ha        1 AFB      0.136000
     43 HC4         0.4470    2.5960   -1.5590 h4        1 AFB      0.118000
     44 HO4         2.1340    2.0400   -0.3330 ho        1 AFB      0.218000
@<TRIPOS>BOND
     1    1    2 1   
     2    1   21 1   
     3    2    3 1   
     4    2    4 1   
     5    2   22 1   
     6    3    6 1   
     7    3   23 1   
     8    3   24 1   
     9    4    5 1   
    10    4   25 1   
    11    4   26 1   
    12    5    6 1   
    13    5   19 1   
    14    5   27 1   
    15    6    7 1   
    16    6   28 1   
    17    7    8 1   
    18    7   29 1   
    19    8   30 1   
    20    9   10 1   
    21    9   31 1   
    22    9   32 1   
    23   10   11 1   
    24   10   33 1   
    25   10   34 1   
    26   11   12 1   
    27   11   35 1   
    28   11   36 1   
    29   12   13 1   
    30   12   14 1   
    31   12   37 1   
    32   13   38 1   
    33   13   39 1   
    34   13   40 1   
    35   14   15 1   
    36   15   16 1   
    37   15   17 1   
    38   17   18 1   
    39   17   41 1   
    40   18   42 1   
    41   19   20 1   
    42   19   43 1   
    43   20   44 1   
@<TRIPOS>SUBSTRUCTURE
     1 AFB         1 TEMP              0 ****  ****    0 ROOT
