@<TRIPOS>MOLECULE
AFB
   44    45     1     0     0
SMALL
bcc


@<TRIPOS>ATOM
      1 OC7         1.2910   -1.8230   -5.9100 oh        1 AFB     -0.596800
      2 C7          0.9890   -2.3620   -4.6320 c3        1 AFB      0.140100
      3 C8          2.2180   -2.4020   -3.7210 c3        1 AFB     -0.112400
      4 C6         -0.0320   -1.4320   -3.9720 c3        1 AFB     -0.079400
      5 C5          0.4450   -1.1540   -2.5470 c3        1 AFB     -0.089700
      6 C9          1.7700   -1.9130   -2.3430 c3        1 AFB     -0.020500
      7 C10         2.8130   -1.0580   -1.7140 c2        1 AFB     -0.178200
      8 C11         3.3570   -1.3240   -0.5230 c2        1 AFB     -0.164200
      9 C12         4.3960   -0.4890    0.1270 c3        1 AFB     -0.047200
     10 C13         4.0740   -0.2120    1.5860 c3        1 AFB     -0.080400
     11 C14         4.2460   -1.4250    2.4800 c3        1 AFB     -0.099400
     12 C15         2.9910   -1.7490    3.2880 c3        1 AFB      0.144100
     13 C16         3.2610   -2.8220    4.3260 c3        1 AFB     -0.101100
     14 O16         2.0170   -2.3030    2.3790 os        1 AFB     -0.446900
     15 C1          0.9930   -1.4960    1.9560 c         1 AFB      0.640300
     16 OC1         0.7170   -0.4830    2.6030 o         1 AFB     -0.541000
     17 C2          0.3920   -1.9940    0.7100 ce        1 AFB     -0.202200
     18 C3         -0.1990   -1.1570   -0.1490 c2        1 AFB     -0.113200
     19 C4         -0.6250   -1.5740   -1.5230 c3        1 AFB      0.164300
     20 OC4        -1.8880   -1.0160   -1.8490 oh        1 AFB     -0.584800
     21 HO7         1.9650   -2.3910   -6.2990 ho        1 AFB      0.400000
     22 HC7         0.5610   -3.3940   -4.7620 h1        1 AFB      0.036700
     23 H81         3.0160   -1.7350   -4.1380 hc        1 AFB      0.054200
     24 H82         2.6360   -3.4350   -3.6550 hc        1 AFB      0.054200
     25 H61        -1.0470   -1.9030   -3.9720 hc        1 AFB      0.068700
     26 H62        -0.1020   -0.4780   -4.5540 hc        1 AFB      0.068700
     27 H5          0.6240   -0.0510   -2.4280 hc        1 AFB      0.059700
     28 H9          1.5740   -2.8100   -1.6880 hc        1 AFB      0.052700
     29 H101        3.1170   -0.1770   -2.3040 ha        1 AFB      0.125000
     30 H111        3.0340   -2.2010    0.0700 ha        1 AFB      0.133000
     31 H121        5.3840   -1.0210    0.0550 hc        1 AFB      0.047700
     32 H122        4.5070    0.4900   -0.4120 hc        1 AFB      0.047700
     33 H131        4.7460    0.6110    1.9460 hc        1 AFB      0.048700
     34 H132        3.0190    0.1700    1.6600 hc        1 AFB      0.048700
     35 H141        4.5190   -2.3260    1.8690 hc        1 AFB      0.053700
     36 H142        5.0830   -1.2460    3.2050 hc        1 AFB      0.053700
     37 H15         2.5820   -0.8220    3.7790 h1        1 AFB      0.082700
     38 H161        4.0100   -2.4440    5.0620 hc        1 AFB      0.047367
     39 H162        2.3180   -3.0820    4.8630 hc        1 AFB      0.047367
     40 H163        3.6580   -3.7440    3.8400 hc        1 AFB      0.047367
     41 H21         0.5430   -3.0660    0.5060 ha        1 AFB      0.155000
     42 H31        -0.3650   -0.0960    0.1040 ha        1 AFB      0.146000
     43 HC4        -0.8030   -2.6860   -1.5780 h1        1 AFB      0.087700
     44 HO4        -1.7820   -0.0580   -1.8960 ho        1 AFB      0.402000
@<TRIPOS>BOND
     1    1    2 1   
     2    1   21 1   
     3    2    3 1   
     4    2    4 1   
     5    2   22 1   
     6    3    6 1   
     7    3   23 1   
     8    3   24 1   
     9    4    5 1   
    10    4   25 1   
    11    4   26 1   
    12    5    6 1   
    13    5   19 1   
    14    5   27 1   
    15    6    7 1   
    16    6   28 1   
    17    7    8 2   
    18    7   29 1   
    19    8    9 1   
    20    8   30 1   
    21    9   10 1   
    22    9   31 1   
    23    9   32 1   
    24   10   11 1   
    25   10   33 1   
    26   10   34 1   
    27   11   12 1   
    28   11   35 1   
    29   11   36 1   
    30   12   13 1   
    31   12   14 1   
    32   12   37 1   
    33   13   38 1   
    34   13   39 1   
    35   13   40 1   
    36   14   15 1   
    37   15   16 2   
    38   15   17 1   
    39   17   18 2   
    40   17   41 1   
    41   18   19 1   
    42   18   42 1   
    43   19   20 1   
    44   19   43 1   
    45   20   44 1   
@<TRIPOS>SUBSTRUCTURE
     1 AFB         1 TEMP              0 ****  ****    0 ROOT
