@<TRIPOS>MOLECULE
AFB
   44    45     1     0     0
SMALL
bcc


@<TRIPOS>ATOM
      1 OC7        -0.0290   -0.6200   -0.8820 oh        1 AFB     -0.599800
      2 C7          1.2810   -0.6520   -0.3340 c3        1 AFB      0.140100
      3 C8          1.1720   -0.1960    1.1270 c3        1 AFB     -0.070400
      4 C6          1.8730   -2.0700   -0.3300 c3        1 AFB     -0.110400
      5 C5          1.9660   -2.5020    1.1290 c3        1 AFB     -0.049700
      6 C9          1.9800   -1.1960    1.9490 c3        1 AFB     -0.035500
      7 C10         1.4270   -1.4370    3.3050 c2        1 AFB     -0.164200
      8 C11         2.2020   -1.5660    4.3860 c2        1 AFB     -0.170200
      9 C12         1.6960   -1.9890    5.7160 c3        1 AFB     -0.046200
     10 C13         1.7440   -3.5020    5.8510 c3        1 AFB     -0.081400
     11 C14         3.1630   -4.0350    5.8650 c3        1 AFB     -0.096400
     12 C15         3.2370   -5.4730    5.3610 c3        1 AFB      0.142100
     13 C16         4.4790   -6.1800    5.8710 c3        1 AFB     -0.102100
     14 O16         3.3690   -5.4350    3.9200 os        1 AFB     -0.443900
     15 C1          2.3000   -5.8010    3.1510 c         1 AFB      0.638300
     16 OC1         1.2420   -6.1140    3.7010 o         1 AFB     -0.538000
     17 C2          2.5870   -5.8200    1.7070 ce        1 AFB     -0.192200
     18 C3          2.9640   -4.7780    0.9660 c2        1 AFB     -0.135200
     19 C4          3.1720   -3.3810    1.4670 c3        1 AFB      0.160300
     20 OC4         4.3270   -2.8100    0.8600 oh        1 AFB     -0.593800
     21 HO7         0.0410   -0.9360   -1.7900 ho        1 AFB      0.398000
     22 HC7         1.9410    0.0420   -0.9230 h1        1 AFB      0.036700
     23 H81         0.0960   -0.1900    1.4390 hc        1 AFB      0.060700
     24 H82         1.5730    0.8390    1.2470 hc        1 AFB      0.060700
     25 H61         1.2250   -2.7730   -0.9090 hc        1 AFB      0.057700
     26 H62         2.8890   -2.0610   -0.8000 hc        1 AFB      0.057700
     27 H5          1.0440   -3.0890    1.3980 hc        1 AFB      0.065700
     28 H9          3.0450   -0.8360    2.0180 hc        1 AFB      0.066700
     29 H101        0.3330   -1.5650    3.3600 ha        1 AFB      0.129000
     30 H111        3.2920   -1.4070    4.3240 ha        1 AFB      0.119000
     31 H121        2.3140   -1.5180    6.5260 hc        1 AFB      0.046700
     32 H122        0.6360   -1.6470    5.8600 hc        1 AFB      0.046700
     33 H131        1.1800   -3.9660    4.9970 hc        1 AFB      0.051700
     34 H132        1.2220   -3.8030    6.7970 hc        1 AFB      0.051700
     35 H141        3.5720   -3.9970    6.9080 hc        1 AFB      0.053700
     36 H142        3.8240   -3.3980    5.2200 hc        1 AFB      0.053700
     37 H15         2.3120   -6.0450    5.6490 h1        1 AFB      0.082700
     38 H161        4.4190   -6.2760    6.9810 hc        1 AFB      0.046700
     39 H162        5.3950   -5.6030    5.6020 hc        1 AFB      0.046700
     40 H163        4.5560   -7.1970    5.4190 hc        1 AFB      0.046700
     41 H21         2.4240   -6.8170    1.2610 ha        1 AFB      0.158000
     42 H31         3.1340   -4.8990   -0.1190 ha        1 AFB      0.143000
     43 HC4         3.3070   -3.3870    2.5910 h1        1 AFB      0.065700
     44 HO4         5.0820   -3.3170    1.1800 ho        1 AFB      0.405000
@<TRIPOS>BOND
     1    1    2 1   
     2    1   21 1   
     3    2    3 1   
     4    2    4 1   
     5    2   22 1   
     6    3    6 1   
     7    3   23 1   
     8    3   24 1   
     9    4    5 1   
    10    4   25 1   
    11    4   26 1   
    12    5    6 1   
    13    5   19 1   
    14    5   27 1   
    15    6    7 1   
    16    6   28 1   
    17    7    8 2   
    18    7   29 1   
    19    8    9 1   
    20    8   30 1   
    21    9   10 1   
    22    9   31 1   
    23    9   32 1   
    24   10   11 1   
    25   10   33 1   
    26   10   34 1   
    27   11   12 1   
    28   11   35 1   
    29   11   36 1   
    30   12   13 1   
    31   12   14 1   
    32   12   37 1   
    33   13   38 1   
    34   13   39 1   
    35   13   40 1   
    36   14   15 1   
    37   15   16 2   
    38   15   17 1   
    39   17   18 2   
    40   17   41 1   
    41   18   19 1   
    42   18   42 1   
    43   19   20 1   
    44   19   43 1   
    45   20   44 1   
@<TRIPOS>SUBSTRUCTURE
     1 AFB         1 TEMP              0 ****  ****    0 ROOT
