@<TRIPOS>MOLECULE
AFB
   44    45     1     0     0
SMALL
bcc


@<TRIPOS>ATOM
      1 OC7        -0.1290   -0.3730    2.0330 oh        1 AFB     -0.603800
      2 C7          0.8700   -0.5740    1.0420 c3        1 AFB      0.139100
      3 C8          2.2070   -0.1630    1.6650 c3        1 AFB     -0.074400
      4 C6          0.9870   -2.0420    0.6270 c3        1 AFB     -0.107400
      5 C5          2.2570   -2.6000    1.2660 c3        1 AFB     -0.093700
      6 C9          3.1130   -1.3970    1.6890 c3        1 AFB     -0.019500
      7 C10         3.7840   -1.5860    3.0020 c2        1 AFB     -0.174200
      8 C11         3.2430   -1.8160    4.2020 c2        1 AFB     -0.146200
      9 C12         1.8100   -1.9060    4.5670 c3        1 AFB     -0.061200
     10 C13         1.3050   -3.3150    4.8210 c3        1 AFB     -0.078400
     11 C14         2.1670   -4.1570    5.7410 c3        1 AFB     -0.097400
     12 C15         2.4560   -5.5400    5.1580 c3        1 AFB      0.144100
     13 C16         3.0230   -6.4760    6.2090 c3        1 AFB     -0.101100
     14 O16         3.4930   -5.4030    4.1590 os        1 AFB     -0.432900
     15 C1          3.1340   -5.3590    2.8420 c         1 AFB      0.649300
     16 OC1         1.9730   -5.6420    2.5230 o         1 AFB     -0.567000
     17 C2          4.2620   -4.9860    1.9770 ce        1 AFB     -0.200200
     18 C3          4.1900   -4.1930    0.9050 c2        1 AFB     -0.109200
     19 C4          2.9820   -3.5420    0.2970 c3        1 AFB      0.173300
     20 OC4         2.0920   -4.5090   -0.2340 oh        1 AFB     -0.599800
     21 HO7        -0.9580   -0.7020    1.6670 ho        1 AFB      0.400000
     22 HC7         0.6250    0.0690    0.1510 h1        1 AFB      0.035700
     23 H81         2.0380    0.2360    2.6980 hc        1 AFB      0.062200
     24 H82         2.6760    0.6500    1.0580 hc        1 AFB      0.062200
     25 H61         1.0410   -2.1260   -0.4880 hc        1 AFB      0.058700
     26 H62         0.0960   -2.6270    0.9650 hc        1 AFB      0.058700
     27 H5          1.9740   -3.1920    2.1800 hc        1 AFB      0.072700
     28 H9          3.9170   -1.2510    0.9110 hc        1 AFB      0.045700
     29 H101        4.8870   -1.5200    2.9380 ha        1 AFB      0.113000
     30 H111        3.9310   -1.9310    5.0610 ha        1 AFB      0.114000
     31 H121        1.6540   -1.2920    5.4970 hc        1 AFB      0.059700
     32 H122        1.1700   -1.4510    3.7580 hc        1 AFB      0.059700
     33 H131        0.2740   -3.2320    5.2600 hc        1 AFB      0.047200
     34 H132        1.1860   -3.8460    3.8380 hc        1 AFB      0.047200
     35 H141        3.1430   -3.6500    5.9560 hc        1 AFB      0.053700
     36 H142        1.6440   -4.3010    6.7230 hc        1 AFB      0.053700
     37 H15         1.5310   -5.9810    4.6960 h1        1 AFB      0.080700
     38 H161        3.2950   -7.4550    5.7470 hc        1 AFB      0.047367
     39 H162        2.2580   -6.6460    7.0030 hc        1 AFB      0.047367
     40 H163        3.9390   -6.0370    6.6710 hc        1 AFB      0.047367
     41 H21         5.2310   -5.3950    2.3150 ha        1 AFB      0.156000
     42 H31         5.1260   -3.9750    0.3570 ha        1 AFB      0.134000
     43 HC4         3.3050   -2.9590   -0.6160 h1        1 AFB      0.075700
     44 HO4         1.7220   -5.0130    0.5060 ho        1 AFB      0.428000
@<TRIPOS>BOND
     1    1    2 1   
     2    1   21 1   
     3    2    3 1   
     4    2    4 1   
     5    2   22 1   
     6    3    6 1   
     7    3   23 1   
     8    3   24 1   
     9    4    5 1   
    10    4   25 1   
    11    4   26 1   
    12    5    6 1   
    13    5   19 1   
    14    5   27 1   
    15    6    7 1   
    16    6   28 1   
    17    7    8 2   
    18    7   29 1   
    19    8    9 1   
    20    8   30 1   
    21    9   10 1   
    22    9   31 1   
    23    9   32 1   
    24   10   11 1   
    25   10   33 1   
    26   10   34 1   
    27   11   12 1   
    28   11   35 1   
    29   11   36 1   
    30   12   13 1   
    31   12   14 1   
    32   12   37 1   
    33   13   38 1   
    34   13   39 1   
    35   13   40 1   
    36   14   15 1   
    37   15   16 2   
    38   15   17 1   
    39   17   18 2   
    40   17   41 1   
    41   18   19 1   
    42   18   42 1   
    43   19   20 1   
    44   19   43 1   
    45   20   44 1   
@<TRIPOS>SUBSTRUCTURE
     1 AFB         1 TEMP              0 ****  ****    0 ROOT
