@<TRIPOS>MOLECULE
AFD
   24    24     1     0     0
SMALL
bcc


@<TRIPOS>ATOM
      1 C1         -0.7840    0.3580   -1.3520 c3        1 AFD      0.309900
      2 C2          0.7290    0.3580   -1.3520 c3        1 AFD      0.052100
      3 C3          1.2930    0.3580    0.0200 c3        1 AFD      0.122100
      4 C4          0.7160   -0.7270    0.8670 c3        1 AFD      0.089100
      5 C5         -0.8030   -0.7240    0.8560 c3        1 AFD      0.116100
      6 C6         -1.2890    0.4910    1.5790 c3        1 AFD      0.103400
      7 O1          1.1950   -0.8160   -2.0470 oh        1 AFD     -0.606800
      8 O2          2.7300    0.1750   -0.0630 oh        1 AFD     -0.579800
      9 O3          1.1800   -1.9920    0.3780 oh        1 AFD     -0.588800
     10 O4         -1.3530   -0.7190   -0.5000 os        1 AFD     -0.448600
     11 O5         -2.6570    0.3400    1.8850 oh        1 AFD     -0.594800
     12 O6         -1.2310    0.1870   -2.6470 oh        1 AFD     -0.601800
     13 H1         -1.0990    1.2210   -1.0210 h2        1 AFD      0.074700
     14 H2          1.0460    1.1520   -1.8240 h1        1 AFD      0.068700
     15 H3          1.1060    1.2200    0.4390 h1        1 AFD      0.082700
     16 H4          1.0260   -0.6090    1.7850 h1        1 AFD      0.114700
     17 H5         -1.1230   -1.5190    1.3230 h1        1 AFD      0.110700
     18 H6         -0.7810    0.6030    2.4050 h1        1 AFD      0.033200
     19 H7         -1.1670    1.2780    1.0130 h1        1 AFD      0.033200
     20 H8          1.5720   -0.5760   -2.8140 ho        1 AFD      0.421000
     21 H9          3.1390    0.9000    0.2450 ho        1 AFD      0.428000
     22 H10         1.4430   -2.4950    1.0610 ho        1 AFD      0.420000
     23 H11        -2.8860    0.9210    2.5160 ho        1 AFD      0.409000
     24 H12        -2.0020    0.6140   -2.7530 ho        1 AFD      0.432000
@<TRIPOS>BOND
     1    1    2 1   
     2    1   10 1   
     3    1   12 1   
     4    1   13 1   
     5    2    3 1   
     6    2    7 1   
     7    2   14 1   
     8    3    4 1   
     9    3    8 1   
    10    3   15 1   
    11    4    5 1   
    12    4    9 1   
    13    4   16 1   
    14    5    6 1   
    15    5   10 1   
    16    5   17 1   
    17    6   11 1   
    18    6   18 1   
    19    6   19 1   
    20    7   20 1   
    21    8   21 1   
    22    9   22 1   
    23   11   23 1   
    24   12   24 1   
@<TRIPOS>SUBSTRUCTURE
     1 AFD         1 TEMP              0 ****  ****    0 ROOT
