@<TRIPOS>MOLECULE
AFD
   24    24     1     0     0
SMALL
bcc


@<TRIPOS>ATOM
      1 C1         -0.8760    1.3880   -0.4340 c3        1 AFD      0.294900
      2 C2         -1.6740    0.1970   -1.0020 c3        1 AFD      0.103100
      3 C3         -1.1350   -1.1400   -0.4770 c3        1 AFD      0.076100
      4 C4          0.3930   -1.1950   -0.6370 c3        1 AFD      0.087100
      5 C5          1.0460    0.0320    0.0220 c3        1 AFD      0.103100
      6 C6          2.5540    0.0620   -0.2350 c3        1 AFD      0.134400
      7 O1         -3.0450    0.3480   -0.7190 oh        1 AFD     -0.575800
      8 O2         -1.5120   -1.3720    0.8670 oh        1 AFD     -0.600800
      9 O3          0.9120   -2.3890   -0.0900 oh        1 AFD     -0.584800
     10 O4          0.5230    1.2380   -0.5440 os        1 AFD     -0.438600
     11 O5          3.1480    0.6720    0.9000 oh        1 AFD     -0.602800
     12 O6         -1.1610    1.4860    0.9440 oh        1 AFD     -0.646800
     13 H1         -1.1120    2.3430   -0.9820 h2        1 AFD      0.089700
     14 H2         -1.6000    0.2230   -2.1250 h1        1 AFD      0.095700
     15 H3         -1.6090   -1.9940   -1.0400 h1        1 AFD      0.103700
     16 H4          0.6620   -1.2330   -1.7290 h1        1 AFD      0.089700
     17 H5          0.8470    0.0290    1.1300 h1        1 AFD      0.069700
     18 H6          2.9300   -0.9910   -0.3410 h1        1 AFD      0.049200
     19 H7          2.7780    0.6500   -1.1640 h1        1 AFD      0.049200
     20 H8         -3.1550    0.2360    0.2370 ho        1 AFD      0.424000
     21 H9         -1.2380   -0.6070    1.3930 ho        1 AFD      0.421000
     22 H10         0.5080   -2.5070    0.7820 ho        1 AFD      0.418000
     23 H11         4.0740    0.8220    0.6770 ho        1 AFD      0.405000
     24 H12        -0.6280    2.2060    1.3040 ho        1 AFD      0.433000
@<TRIPOS>BOND
     1    1    2 1   
     2    1   10 1   
     3    1   12 1   
     4    1   13 1   
     5    2    3 1   
     6    2    7 1   
     7    2   14 1   
     8    3    4 1   
     9    3    8 1   
    10    3   15 1   
    11    4    5 1   
    12    4    9 1   
    13    4   16 1   
    14    5    6 1   
    15    5   10 1   
    16    5   17 1   
    17    6   11 1   
    18    6   18 1   
    19    6   19 1   
    20    7   20 1   
    21    8   21 1   
    22    9   22 1   
    23   11   23 1   
    24   12   24 1   
@<TRIPOS>SUBSTRUCTURE
     1 AFD         1 TEMP              0 ****  ****    0 ROOT
