@<TRIPOS>MOLECULE
AFE
   51    54     1     0     0
SMALL
bcc


@<TRIPOS>ATOM
      1 O9         -0.1760    0.2550    0.8370 oh        1 AFE     -0.598800
      2 C23         1.1680    0.1010    0.4270 c3        1 AFE      0.113100
      3 C22         2.1350    0.1070    1.6160 c3        1 AFE      0.094100
      4 O22         1.6260   -0.8150    2.5670 oh        1 AFE     -0.603800
      5 C24         1.3260   -1.1920   -0.3890 c3        1 AFE      0.084100
      6 O61         0.5260   -1.1400   -1.5590 oh        1 AFE     -0.598800
      7 C25         2.7870   -1.3460   -0.8370 c3        1 AFE      0.149100
      8 C51         3.0060   -2.6500   -1.5780 c3        1 AFE     -0.088100
      9 O7          3.6450   -1.3940    0.3100 os        1 AFE     -0.415600
     10 C21         3.5580   -0.3070    1.1920 c3        1 AFE      0.304900
     11 O8          4.1070    0.8100    0.4790 os        1 AFE     -0.349900
     12 C3          5.4390    1.0880    0.7400 cc        1 AFE     -0.080100
     13 C4          5.8220    1.3800    2.1350 c         1 AFE      0.596900
     14 O2          5.0150    1.2890    3.0710 o         1 AFE     -0.545100
     15 C2          6.3120    1.1880   -0.3020 cd        1 AFE      0.183900
     16 C11         6.0410    0.9650   -1.7190 ca        1 AFE     -0.106800
     17 C12         4.7890    1.2890   -2.2590 ca        1 AFE     -0.049000
     18 C13         4.5270    1.0690   -3.6080 ca        1 AFE     -0.197000
     19 C14         5.5300    0.5250   -4.4250 ca        1 AFE      0.149100
     20 O5          5.3450    0.2800   -5.7630 oh        1 AFE     -0.492100
     21 C15         6.7940    0.2050   -3.8980 ca        1 AFE     -0.197000
     22 C16         7.0400    0.4290   -2.5500 ca        1 AFE     -0.049000
     23 O1          7.6360    1.5690   -0.1150 os        1 AFE     -0.214200
     24 C9          8.0660    1.8440    1.1670 ca        1 AFE      0.214100
     25 C8          9.4160    2.2100    1.2560 ca        1 AFE     -0.232000
     26 C7          9.9300    2.5140    2.5220 ca        1 AFE      0.221100
     27 O4         11.2530    2.8680    2.5700 oh        1 AFE     -0.483100
     28 C6          9.1300    2.4560    3.6750 ca        1 AFE     -0.350000
     29 C5          7.7870    2.0860    3.5510 ca        1 AFE      0.251100
     30 C10         7.2220    1.7690    2.2910 ca        1 AFE     -0.280600
     31 O3          6.9590    2.0080    4.6350 oh        1 AFE     -0.450100
     32 HO9        -0.3420   -0.3900    1.5380 ho        1 AFE      0.421000
     33 H23         1.3770    0.9970   -0.2240 h1        1 AFE      0.094700
     34 H22         2.1830    1.1390    2.0650 h1        1 AFE      0.080700
     35 HO22        2.1510   -0.7070    3.3710 ho        1 AFE      0.421000
     36 H24         1.0180   -2.0730    0.2400 h1        1 AFE      0.061700
     37 HO61       -0.3420   -0.8160   -1.2810 ho        1 AFE      0.418000
     38 H25         3.0820   -0.4660   -1.4760 h1        1 AFE      0.060700
     39 H512        4.0560   -2.7080   -1.9500 hc        1 AFE      0.051033
     40 H513        2.8180   -3.5180   -0.9030 hc        1 AFE      0.051033
     41 H511        2.2980   -2.6930   -2.4400 hc        1 AFE      0.051033
     42 H21         4.1760   -0.6090    2.0840 h2        1 AFE      0.106700
     43 H12         4.0060    1.7180   -1.6110 ha        1 AFE      0.153500
     44 H13         3.5420    1.3170   -4.0280 ha        1 AFE      0.149500
     45 HO5         4.4360    0.5250   -5.9920 ho        1 AFE      0.424000
     46 H15         7.5660   -0.2180   -4.5560 ha        1 AFE      0.149500
     47 H16         8.0270    0.1870   -2.1250 ha        1 AFE      0.153500
     48 H8         10.0490    2.2610    0.3600 ha        1 AFE      0.176000
     49 HO4        11.4860    3.0540    3.4920 ho        1 AFE      0.428000
     50 H6          9.5530    2.6980    4.6590 ha        1 AFE      0.144000
     51 HO3         7.4670    2.2550    5.4250 ho        1 AFE      0.424000
@<TRIPOS>BOND
     1    1    2 1   
     2    1   32 1   
     3    2    3 1   
     4    2    5 1   
     5    2   33 1   
     6    3    4 1   
     7    3   10 1   
     8    3   34 1   
     9    4   35 1   
    10    5    6 1   
    11    5    7 1   
    12    5   36 1   
    13    6   37 1   
    14    7    8 1   
    15    7    9 1   
    16    7   38 1   
    17    8   39 1   
    18    8   40 1   
    19    8   41 1   
    20    9   10 1   
    21   10   11 1   
    22   10   42 1   
    23   11   12 1   
    24   12   13 1   
    25   12   15 2   
    26   13   14 2   
    27   13   30 1   
    28   15   16 1   
    29   15   23 1   
    30   16   17 ar  
    31   16   22 ar  
    32   17   18 ar  
    33   17   43 1   
    34   18   19 ar  
    35   18   44 1   
    36   19   20 1   
    37   19   21 ar  
    38   20   45 1   
    39   21   22 ar  
    40   21   46 1   
    41   22   47 1   
    42   23   24 1   
    43   24   25 ar  
    44   24   30 ar  
    45   25   26 ar  
    46   25   48 1   
    47   26   27 1   
    48   26   28 ar  
    49   27   49 1   
    50   28   29 ar  
    51   28   50 1   
    52   29   30 ar  
    53   29   31 1   
    54   31   51 1   
@<TRIPOS>SUBSTRUCTURE
     1 AFE         1 TEMP              0 ****  ****    0 ROOT
