@<TRIPOS>MOLECULE
AFE
   51    48     1     0     0
SMALL
bcc


@<TRIPOS>ATOM
      1 O9         -4.1930    1.5630   -1.5970 oh        1 AFE     -0.325000
      2 C23        -3.1990    0.5020   -1.1940 c3        1 AFE     -0.041000
      3 C22        -2.5020    0.9520    0.0240 c3        1 AFE     -0.035000
      4 O22        -3.4610    1.2740    0.9920 oh        1 AFE     -0.320000
      5 C24        -3.8870   -0.7170   -1.0290 c3        1 AFE     -0.026000
      6 O61        -4.4070   -1.1640   -2.3940 oh        1 AFE     -0.318000
      7 C25        -3.0810   -1.7840   -0.4770 c3        1 AFE      0.032000
      8 C51        -3.9970   -2.9850   -0.1780 c3        1 AFE     -0.206000
      9 O7         -2.3730   -1.4150    0.7610 os        1 AFE     -0.264000
     10 C21        -1.4830   -0.1480    0.6530 c3        1 AFE      0.121000
     11 O8         -0.5330   -0.3430   -0.0970 os        1 AFE     -0.229000
     12 C3          0.6610   -0.0360    0.5710 c2        1 AFE     -0.090000
     13 C4          0.7550   -0.2110    2.0030 c2        1 AFE      0.310000
     14 O2         -0.1810   -0.6800    2.6210 o         1 AFE     -0.273000
     15 C2          1.8510    0.3780   -0.1950 c1        1 AFE      0.103000
     16 C11         1.7950    0.4400   -1.7060 c1        1 AFE     -0.086000
     17 C12         1.1400    1.4900   -2.3320 c1        1 AFE     -0.111000
     18 C13         1.1600    1.5940   -3.7140 c1        1 AFE     -0.111000
     19 C14         1.8340    0.6490   -4.4700 c1        1 AFE      0.101000
     20 O5          1.8200    0.7320   -5.8750 oh        1 AFE     -0.245000
     21 C15         2.4880   -0.4010   -3.8450 c1        1 AFE     -0.223000
     22 C16         2.4680   -0.5050   -2.4630 c1        1 AFE     -0.051000
     23 O1          3.0800    0.6630    0.4890 os        1 AFE     -0.128000
     24 C9          3.1960    0.4050    1.9570 c2        1 AFE      0.174000
     25 C8          4.4100    0.6460    2.6070 c2        1 AFE     -0.294000
     26 C7          4.4900    0.5410    3.9960 c1        1 AFE      0.178000
     27 O4          5.7080    0.7980    4.6500 oh        1 AFE     -0.239000
     28 C6          3.3520    0.1940    4.7410 c1        1 AFE     -0.295000
     29 C5          2.1400   -0.0470    4.0950 c1        1 AFE      0.201000
     30 C10         2.0570    0.0570    2.7030 c2        1 AFE     -0.262000
     31 O3          0.9990   -0.3910    4.8440 o         1 AFE     -0.202000
     32 HO9        -3.7590    2.3040   -1.8280 ho        1 AFE      0.216000
     33 H23        -2.5420    0.3970   -1.9110 h1        1 AFE      0.143000
     34 H22        -1.9930    1.7590   -0.1900 h1        1 AFE      0.136000
     35 HO22       -3.3610    2.1230    1.2380 ho        1 AFE      0.216000
     36 H24        -4.6520   -0.5650   -0.4370 h1        1 AFE      0.079000
     37 HO61       -5.2730   -0.9780   -2.4560 ho        1 AFE      0.218000
     38 H25        -2.4210   -2.0540   -1.1450 h1        1 AFE      0.115000
     39 H512       -4.7220   -2.7020    0.4180 hc        1 AFE      0.091333
     40 H513       -4.3770   -3.3230   -1.0160 hc        1 AFE      0.091333
     41 H511       -3.4760   -3.6940    0.2540 hc        1 AFE      0.091333
     42 H21        -1.1750    0.1330    1.5360 h2        1 AFE      0.167000
     43 H12         0.6650    2.1560   -1.7990 ha        1 AFE      0.153000
     44 H13         0.6990    2.3340   -4.1540 ha        1 AFE      0.153000
     45 HO5         2.5570    1.1430   -6.1540 ho        1 AFE      0.222000
     46 H15         2.9630   -1.0670   -4.3780 ha        1 AFE      0.139000
     47 H16         2.9290   -1.2450   -2.0230 ha        1 AFE      0.146000
     48 H8          5.2040    0.8800    2.0880 ha        1 AFE      0.159000
     49 HO4         6.2580    0.1100    4.5320 ho        1 AFE      0.229000
     50 H6          3.4100    0.1210    5.7130 ha        1 AFE      0.162000
     51 HO3         0.9580    0.1170    5.5720 ho        1 AFE      0.225000
@<TRIPOS>BOND
     1    1    2 1   
     2    1   32 1   
     3    2    3 1   
     4    2    5 1   
     5    2   33 1   
     6    3    4 1   
     7    3   10 1   
     8    3   34 1   
     9    4   35 1   
    10    5    6 1   
    11    5    7 1   
    12    5   36 1   
    13    6   37 1   
    14    7    8 1   
    15    7    9 1   
    16    7   38 1   
    17    8   39 1   
    18    8   40 1   
    19    8   41 1   
    20    9   10 1   
    21   10   11 1   
    22   10   42 1   
    23   11   12 1   
    24   12   13 1   
    25   12   15 1   
    26   13   14 1   
    27   13   30 1   
    28   15   23 1   
    29   16   22 1   
    30   17   18 1   
    31   17   43 1   
    32   18   44 1   
    33   19   20 1   
    34   19   21 1   
    35   20   45 1   
    36   21   46 1   
    37   22   47 1   
    38   23   24 1   
    39   24   25 1   
    40   24   30 1   
    41   25   26 1   
    42   25   48 1   
    43   26   27 1   
    44   27   49 1   
    45   28   29 1   
    46   28   50 1   
    47   29   30 1   
    48   31   51 1   
@<TRIPOS>SUBSTRUCTURE
     1 AFE         1 TEMP              0 ****  ****    0 ROOT
