@<TRIPOS>MOLECULE
AFE
   51    54     1     0     0
SMALL
bcc


@<TRIPOS>ATOM
      1 O9         -0.1730    0.2410    0.8400 oh        1 AFE     -0.598800
      2 C23         1.1700    0.0910    0.4290 c3        1 AFE      0.113100
      3 C22         2.1380    0.0980    1.6180 c3        1 AFE      0.094100
      4 O22         1.6330   -0.8260    2.5680 oh        1 AFE     -0.603800
      5 C24         1.3310   -1.2010   -0.3890 c3        1 AFE      0.084100
      6 O61         0.5300   -1.1500   -1.5580 oh        1 AFE     -0.598800
      7 C25         2.7920   -1.3510   -0.8380 c3        1 AFE      0.149100
      8 C51         3.0140   -2.6540   -1.5800 c3        1 AFE     -0.088100
      9 O7          3.6520   -1.3980    0.3090 os        1 AFE     -0.415600
     10 C21         3.5630   -0.3120    1.1920 c3        1 AFE      0.304900
     11 O8          4.1080    0.8070    0.4790 os        1 AFE     -0.349900
     12 C3          5.4390    1.0890    0.7410 cc        1 AFE     -0.080100
     13 C4          5.8210    1.3810    2.1360 c         1 AFE      0.596900
     14 O2          5.0140    1.2870    3.0720 o         1 AFE     -0.545100
     15 C2          6.3120    1.1910   -0.3010 cd        1 AFE      0.183900
     16 C11         6.0420    0.9690   -1.7180 ca        1 AFE     -0.106800
     17 C12         4.7890    1.2890   -2.2590 ca        1 AFE     -0.049000
     18 C13         4.5280    1.0680   -3.6080 ca        1 AFE     -0.197000
     19 C14         5.5320    0.5280   -4.4240 ca        1 AFE      0.149100
     20 O5          5.3480    0.2840   -5.7630 oh        1 AFE     -0.492100
     21 C15         6.7970    0.2110   -3.8970 ca        1 AFE     -0.197000
     22 C16         7.0420    0.4360   -2.5500 ca        1 AFE     -0.049000
     23 O1          7.6350    1.5770   -0.1140 os        1 AFE     -0.214200
     24 C9          8.0630    1.8520    1.1690 ca        1 AFE      0.214100
     25 C8          9.4130    2.2230    1.2570 ca        1 AFE     -0.232000
     26 C7          9.9260    2.5270    2.5240 ca        1 AFE      0.221100
     27 O4         11.2480    2.8850    2.5720 oh        1 AFE     -0.483100
     28 C6          9.1260    2.4660    3.6760 ca        1 AFE     -0.350000
     29 C5          7.7830    2.0920    3.5520 ca        1 AFE      0.251100
     30 C10         7.2200    1.7740    2.2920 ca        1 AFE     -0.280600
     31 O3          6.9560    2.0110    4.6360 oh        1 AFE     -0.450100
     32 HO9        -0.3370   -0.4050    1.5410 ho        1 AFE      0.421000
     33 H23         1.3770    0.9870   -0.2220 h1        1 AFE      0.094700
     34 H22         2.1850    1.1290    2.0670 h1        1 AFE      0.080700
     35 HO22        2.1570   -0.7180    3.3710 ho        1 AFE      0.421000
     36 H24         1.0260   -2.0830    0.2400 h1        1 AFE      0.061700
     37 HO61       -0.3380   -0.8290   -1.2790 ho        1 AFE      0.418000
     38 H25         3.0840   -0.4700   -1.4760 h1        1 AFE      0.060700
     39 H512        2.3050   -2.6980   -2.4420 hc        1 AFE      0.051033
     40 H513        4.0640   -2.7090   -1.9520 hc        1 AFE      0.051033
     41 H511        2.8280   -3.5230   -0.9050 hc        1 AFE      0.051033
     42 H21         4.1820   -0.6130    2.0830 h2        1 AFE      0.106700
     43 H12         4.0050    1.7160   -1.6100 ha        1 AFE      0.153500
     44 H13         3.5420    1.3140   -4.0270 ha        1 AFE      0.149500
     45 HO5         4.4380    0.5250   -5.9910 ho        1 AFE      0.424000
     46 H15         7.5700   -0.2080   -4.5560 ha        1 AFE      0.149500
     47 H16         8.0300    0.1960   -2.1240 ha        1 AFE      0.153500
     48 H8         10.0460    2.2760    0.3620 ha        1 AFE      0.176000
     49 HO4        11.4800    3.0710    3.4940 ho        1 AFE      0.428000
     50 H6          9.5480    2.7080    4.6600 ha        1 AFE      0.144000
     51 HO3         7.4630    2.2590    5.4260 ho        1 AFE      0.424000
@<TRIPOS>BOND
     1    1    2 1   
     2    1   32 1   
     3    2    3 1   
     4    2    5 1   
     5    2   33 1   
     6    3    4 1   
     7    3   10 1   
     8    3   34 1   
     9    4   35 1   
    10    5    6 1   
    11    5    7 1   
    12    5   36 1   
    13    6   37 1   
    14    7    8 1   
    15    7    9 1   
    16    7   38 1   
    17    8   39 1   
    18    8   40 1   
    19    8   41 1   
    20    9   10 1   
    21   10   11 1   
    22   10   42 1   
    23   11   12 1   
    24   12   13 1   
    25   12   15 2   
    26   13   14 2   
    27   13   30 1   
    28   15   16 1   
    29   15   23 1   
    30   16   17 ar  
    31   16   22 ar  
    32   17   18 ar  
    33   17   43 1   
    34   18   19 ar  
    35   18   44 1   
    36   19   20 1   
    37   19   21 ar  
    38   20   45 1   
    39   21   22 ar  
    40   21   46 1   
    41   22   47 1   
    42   23   24 1   
    43   24   25 ar  
    44   24   30 ar  
    45   25   26 ar  
    46   25   48 1   
    47   26   27 1   
    48   26   28 ar  
    49   27   49 1   
    50   28   29 ar  
    51   28   50 1   
    52   29   30 ar  
    53   29   31 1   
    54   31   51 1   
@<TRIPOS>SUBSTRUCTURE
     1 AFE         1 TEMP              0 ****  ****    0 ROOT
