@<TRIPOS>MOLECULE
AFE
   51    54     1     0     0
SMALL
bcc


@<TRIPOS>ATOM
      1 O9          4.2390    2.9810    1.3250 oh        1 AFE     -0.574800
      2 C23         3.3270    2.0680    0.7620 c3        1 AFE      0.162100
      3 C22         1.9630    2.7410    0.5360 c3        1 AFE      0.089100
      4 O22         2.2130    3.9330   -0.1910 oh        1 AFE     -0.598800
      5 C24         3.8340    1.4830   -0.5670 c3        1 AFE      0.080100
      6 O61         5.0390    0.7950   -0.2760 oh        1 AFE     -0.581800
      7 C25         2.7880    0.5090   -1.1340 c3        1 AFE      0.109100
      8 C51         3.2090   -0.0500   -2.4790 c3        1 AFE     -0.097100
      9 O7          1.5450    1.1810   -1.3650 os        1 AFE     -0.416600
     10 C21         0.9930    1.8450   -0.2590 c3        1 AFE      0.300900
     11 O8          0.5620    0.8260    0.6510 os        1 AFE     -0.347900
     12 C3         -0.6840    0.2760    0.3980 cc        1 AFE     -0.081100
     13 C4         -1.8540    1.1650    0.3970 c         1 AFE      0.604900
     14 O2         -1.7450    2.4010    0.5220 o         1 AFE     -0.606100
     15 C2         -0.7970   -1.0790    0.2760 cd        1 AFE      0.198900
     16 C11         0.2720   -2.0720    0.3200 ca        1 AFE     -0.112800
     17 C12         1.3970   -1.8670    1.1310 ca        1 AFE     -0.048500
     18 C13         2.4160   -2.8140    1.1730 ca        1 AFE     -0.198500
     19 C14         2.3050   -3.9800    0.4010 ca        1 AFE      0.150100
     20 O5          3.2690   -4.9570    0.3890 oh        1 AFE     -0.492100
     21 C15         1.1770   -4.2030   -0.4110 ca        1 AFE     -0.198500
     22 C16         0.1700   -3.2490   -0.4420 ca        1 AFE     -0.048500
     23 O1         -2.0290   -1.6990    0.1220 os        1 AFE     -0.213200
     24 C9         -3.1650   -0.9140    0.0930 ca        1 AFE      0.215100
     25 C8         -4.3500   -1.6370   -0.0810 ca        1 AFE     -0.234000
     26 C7         -5.5550   -0.9180   -0.1100 ca        1 AFE      0.220100
     27 O4         -6.6950   -1.6570   -0.2830 oh        1 AFE     -0.483100
     28 C6         -5.5830    0.4750    0.0310 ca        1 AFE     -0.299000
     29 C5         -4.3770    1.1730    0.2030 ca        1 AFE      0.270100
     30 C10        -3.1350    0.4890    0.2330 ca        1 AFE     -0.334600
     31 O3         -4.5170    2.5210    0.3310 oh        1 AFE     -0.495100
     32 HO9         4.3560    3.7000    0.6890 ho        1 AFE      0.414000
     33 H23         3.2210    1.2500    1.5280 h1        1 AFE      0.097700
     34 H22         1.4980    2.9830    1.5320 h1        1 AFE      0.077700
     35 HO22        1.3900    4.4370   -0.2010 ho        1 AFE      0.417000
     36 H24         4.0200    2.3190   -1.2970 h1        1 AFE      0.059700
     37 HO61        5.4270    0.5520   -1.1260 ho        1 AFE      0.401000
     38 H25         2.6160   -0.3240   -0.3940 h1        1 AFE      0.064700
     39 H512        4.0830   -0.7310   -2.3400 hc        1 AFE      0.048700
     40 H513        2.3670   -0.6260   -2.9320 hc        1 AFE      0.048700
     41 H511        3.4890    0.7740   -3.1780 hc        1 AFE      0.048700
     42 H21         0.1360    2.4420   -0.6830 h2        1 AFE      0.108700
     43 H12         1.4780   -0.9480    1.7370 ha        1 AFE      0.155500
     44 H13         3.2990   -2.6480    1.8060 ha        1 AFE      0.151000
     45 HO5         3.9830   -4.6840    0.9860 ho        1 AFE      0.425000
     46 H15         1.1100   -5.1250   -1.0050 ha        1 AFE      0.151000
     47 H16        -0.7220   -3.4130   -1.0680 ha        1 AFE      0.155500
     48 H8         -4.3400   -2.7290   -0.1860 ha        1 AFE      0.176000
     49 HO4        -7.4530   -1.0520   -0.2830 ho        1 AFE      0.431000
     50 H6         -6.5290    1.0330    0.0090 ha        1 AFE      0.162000
     51 HO3        -3.6510    2.9440    0.4660 ho        1 AFE      0.467000
@<TRIPOS>BOND
     1    1    2 1   
     2    1   32 1   
     3    2    3 1   
     4    2    5 1   
     5    2   33 1   
     6    3    4 1   
     7    3   10 1   
     8    3   34 1   
     9    4   35 1   
    10    5    6 1   
    11    5    7 1   
    12    5   36 1   
    13    6   37 1   
    14    7    8 1   
    15    7    9 1   
    16    7   38 1   
    17    8   39 1   
    18    8   40 1   
    19    8   41 1   
    20    9   10 1   
    21   10   11 1   
    22   10   42 1   
    23   11   12 1   
    24   12   13 1   
    25   12   15 2   
    26   13   14 2   
    27   13   30 1   
    28   15   16 1   
    29   15   23 1   
    30   16   17 ar  
    31   16   22 ar  
    32   17   18 ar  
    33   17   43 1   
    34   18   19 ar  
    35   18   44 1   
    36   19   20 1   
    37   19   21 ar  
    38   20   45 1   
    39   21   22 ar  
    40   21   46 1   
    41   22   47 1   
    42   23   24 1   
    43   24   25 ar  
    44   24   30 ar  
    45   25   26 ar  
    46   25   48 1   
    47   26   27 1   
    48   26   28 ar  
    49   27   49 1   
    50   28   29 ar  
    51   28   50 1   
    52   29   30 ar  
    53   29   31 1   
    54   31   51 1   
@<TRIPOS>SUBSTRUCTURE
     1 AFE         1 TEMP              0 ****  ****    0 ROOT
