@<TRIPOS>MOLECULE
AFF
   30    32     1     0     0
SMALL
bcc


@<TRIPOS>ATOM
      1 C1          0.9840   -1.2290    0.0050 ca        1 AFF     -0.173000
      2 C2          1.9510   -0.1840   -0.0730 ca        1 AFF      0.075600
      3 N2          3.3060   -0.5530   -0.0780 n         1 AFF     -0.474100
      4 C3          1.5180    1.1550   -0.1400 ca        1 AFF     -0.163000
      5 C4          0.1560    1.4720   -0.1310 ca        1 AFF     -0.076000
      6 C5         -3.1370    1.5380   -0.0710 ca        1 AFF     -0.107000
      7 C6         -4.5090    1.2550   -0.0290 ca        1 AFF     -0.130000
      8 C7         -4.9660   -0.0570    0.0540 ca        1 AFF     -0.129000
      9 C8         -4.0660   -1.1320    0.0970 ca        1 AFF     -0.117000
     10 C9         -1.5470   -1.8160    0.0870 c3        1 AFF      0.005200
     11 C10        -0.3530   -0.9030    0.0130 ca        1 AFF     -0.058300
     12 C11        -0.7810    0.4580   -0.0560 cp        1 AFF     -0.070000
     13 C12        -2.2410    0.4830   -0.0290 cp        1 AFF     -0.031000
     14 C13        -2.7120   -0.8640    0.0560 ca        1 AFF     -0.090300
     15 C40         4.4180    0.2760   -0.1460 c         1 AFF      0.665100
     16 O40         4.3440    1.5160   -0.2140 o         1 AFF     -0.586100
     17 C31         5.7610   -0.4220   -0.1330 c3        1 AFF     -0.179100
     18 H1          1.2950   -2.2830    0.0580 ha        1 AFF      0.130000
     19 HN2         3.4800   -1.5320   -0.0270 hn        1 AFF      0.313500
     20 H3          2.2490    1.9780   -0.2010 ha        1 AFF      0.174000
     21 H4         -0.1570    2.5250   -0.1850 ha        1 AFF      0.139000
     22 H5         -2.7830    2.5770   -0.1370 ha        1 AFF      0.136000
     23 H6         -5.2310    2.0850   -0.0610 ha        1 AFF      0.131000
     24 H7         -6.0470   -0.2580    0.0870 ha        1 AFF      0.130000
     25 H8         -4.4380   -2.1630    0.1630 ha        1 AFF      0.133000
     26 HD         -1.5750   -2.5190   -0.7830 hc        1 AFF      0.071700
     27 HU         -1.5400   -2.4170    1.0310 hc        1 AFF      0.071700
     28 H33         6.5630    0.3540   -0.1910 hc        1 AFF      0.068700
     29 H31         5.8910   -1.0070    0.8090 hc        1 AFF      0.068700
     30 H32         5.8560   -1.1080   -1.0080 hc        1 AFF      0.068700
@<TRIPOS>BOND
     1    1    2 ar  
     2    1   11 ar  
     3    1   18 1   
     4    2    3 1   
     5    2    4 ar  
     6    3   15 1   
     7    3   19 1   
     8    4    5 ar  
     9    4   20 1   
    10    5   12 ar  
    11    5   21 1   
    12    6    7 ar  
    13    6   13 ar  
    14    6   22 1   
    15    7    8 ar  
    16    7   23 1   
    17    8    9 ar  
    18    8   24 1   
    19    9   14 ar  
    20    9   25 1   
    21   10   11 1   
    22   10   14 1   
    23   10   26 1   
    24   10   27 1   
    25   11   12 ar  
    26   12   13 1   
    27   13   14 ar  
    28   15   16 2   
    29   15   17 1   
    30   17   28 1   
    31   17   29 1   
    32   17   30 1   
@<TRIPOS>SUBSTRUCTURE
     1 AFF         1 TEMP              0 ****  ****    0 ROOT
