@<TRIPOS>MOLECULE
AFF
   30    25     1     0     0
SMALL
bcc


@<TRIPOS>ATOM
      1 C1         -0.1190    0.2350   -1.4550 c1        1 AFF     -0.173000
      2 C2          1.2730    0.1870   -1.4580 c1        1 AFF      0.083000
      3 N2          2.0020    0.2830   -2.6700 n2        1 AFF     -0.328000
      4 C3          1.9740    0.1330   -0.2480 c2        1 AFF     -0.163000
      5 C4          1.2810    0.1270    0.9600 c1        1 AFF     -0.076000
      6 C5         -0.9610    0.1320    3.4700 c1        1 AFF     -0.107000
      7 C6         -2.0830    0.1410    4.2950 c1        1 AFF     -0.129500
      8 C7         -3.3640    0.1980    3.7350 c1        1 AFF     -0.129500
      9 C8         -3.5180    0.2470    2.3520 c1        1 AFF     -0.117000
     10 C9         -2.2460    0.2670    0.0660 c3        1 AFF     -0.088000
     11 C10        -0.8150    0.2290   -0.2440 c1        1 AFF     -0.051000
     12 C11        -0.1140    0.1750    0.9650 c1        1 AFF     -0.070000
     13 C12        -1.1130    0.1810    2.0840 c1        1 AFF     -0.031000
     14 C13        -2.3930    0.2390    1.5230 c1        1 AFF     -0.083000
     15 C40         2.7250   -0.8370   -3.1540 c2        1 AFF      0.309000
     16 O40         2.7210   -1.8790   -2.5290 o         1 AFF     -0.347000
     17 C31         3.5160   -0.7300   -4.4380 c3        1 AFF     -0.247000
     18 H1         -0.6080    0.2720   -2.2990 ha        1 AFF      0.130000
     19 HN2         1.9980    1.0620   -3.1440 hn        1 AFF      0.227000
     20 H3          2.9490    0.0990   -0.2510 ha        1 AFF      0.174000
     21 H4          1.7710    0.0890    1.8040 ha        1 AFF      0.139000
     22 H5         -0.0680    0.0920    3.8620 ha        1 AFF      0.136000
     23 H6         -1.9760    0.1060    5.2650 ha        1 AFF      0.130500
     24 H7         -4.1500    0.2040    4.3130 ha        1 AFF      0.130500
     25 H8         -4.4110    0.2870    1.9610 ha        1 AFF      0.133000
     26 HD         -2.6910   -0.5110   -0.3260 hc        1 AFF      0.111000
     27 HU         -2.6400    1.0890   -0.2900 hc        1 AFF      0.111000
     28 H33         4.3040   -0.1650   -4.2910 hc        1 AFF      0.108000
     29 H31         3.8020   -1.6230   -4.7210 hc        1 AFF      0.108000
     30 H32         2.9540   -0.3300   -5.1350 hc        1 AFF      0.108000
@<TRIPOS>BOND
     1    1    2 1   
     2    1   18 1   
     3    2    4 1   
     4    3   15 1   
     5    3   19 1   
     6    4    5 1   
     7    4   20 1   
     8    5   21 1   
     9    6   13 1   
    10    6   22 1   
    11    7    8 1   
    12    7   23 1   
    13    8   24 1   
    14    9   14 1   
    15    9   25 1   
    16   10   11 1   
    17   10   14 1   
    18   10   26 1   
    19   10   27 1   
    20   11   12 1   
    21   15   16 1   
    22   15   17 1   
    23   17   28 1   
    24   17   29 1   
    25   17   30 1   
@<TRIPOS>SUBSTRUCTURE
     1 AFF         1 TEMP              0 ****  ****    0 ROOT
