@<TRIPOS>MOLECULE
AFG
   58    51     1     0     0
SMALL
bcc


@<TRIPOS>ATOM
      1 OP3         4.2670   -2.8210   -7.8750 o         1 AFG     -0.929500
      2 P           3.0380   -2.0440   -7.5270 p5        1 AFG      1.587500
      3 OP1         3.1510   -0.6510   -8.0880 o         1 AFG     -0.929500
      4 OP2         1.8410   -2.7200   -8.1090 o         1 AFG     -0.929500
      5 O5'         2.8830   -1.9670   -5.9380 os        1 AFG     -0.728000
      6 N9         -0.2010    0.1910   -1.5810 n2        1 AFG     -0.168000
      7 C4         -0.4140    1.5120   -1.8780 c1        1 AFG      0.063000
      8 N3         -0.5440    2.1730   -3.0680 n1        1 AFG     -0.177000
      9 C2         -0.6920    3.5370   -3.0830 c1        1 AFG      0.370000
     10 N2         -0.8000    4.1040   -4.3710 n3        1 AFG     -0.285000
     11 N1         -0.7090    4.2360   -1.9130 n2        1 AFG     -0.304000
     12 C6         -0.5810    3.5880   -0.7380 c1        1 AFG      0.401000
     13 O6         -0.5950    4.2250    0.3280 o         1 AFG     -0.397000
     14 C5         -0.4300    2.2010   -0.7200 c1        1 AFG     -0.319000
     15 N7         -0.2290    1.3170    0.2970 n1        1 AFG     -0.177000
     16 C8         -0.0880    0.0760   -0.2460 c1        1 AFG      0.063000
     17 C31         1.2390   -0.5960    2.7540 c1        1 AFG     -0.143750
     18 C32        -0.0110   -0.6530    2.1120 c1        1 AFG      0.137000
     19 C33        -1.1900   -0.6480    2.8690 c1        1 AFG     -0.148000
     20 C34        -1.1240   -0.5860    4.2760 c1        1 AFG     -0.042000
     21 C35         0.1210   -0.5280    4.9160 c1        1 AFG     -0.132000
     22 C36         1.3060   -0.5340    4.1520 c1        1 AFG     -0.143750
     23 C37        -2.1660   -0.4700    5.3070 c3        1 AFG     -0.088000
     24 C38        -1.5040   -0.2360    6.5950 c2        1 AFG     -0.085000
     25 C39        -0.1190   -0.3070    6.3860 c1        1 AFG      0.005000
     26 C40        -2.0060   -0.0450    7.8860 c1        1 AFG     -0.120000
     27 C41        -1.1350    0.0740    8.9580 c1        1 AFG     -0.143750
     28 C42         0.2510    0.0030    8.7490 c1        1 AFG     -0.143750
     29 C43         0.7540   -0.1870    7.4650 c1        1 AFG     -0.132000
     30 N29         0.0030   -0.9690    0.7230 n2        1 AFG     -0.213000
     31 C2'        -0.9900   -0.9240   -3.3450 c3        1 AFG     -0.180000
     32 C5'         2.0430   -0.9690   -5.3990 c3        1 AFG      0.057000
     33 C4'         1.2000   -1.5720   -4.2110 c3        1 AFG     -0.044000
     34 O4'         1.3350   -0.8740   -3.1870 os        1 AFG     -0.320000
     35 C1'        -0.0600   -0.9350   -2.4200 c2        1 AFG      0.146000
     36 C3'        -0.3420   -1.5180   -4.5470 c3        1 AFG      0.001000
     37 O3'        -0.8190   -2.7690   -4.7710 oh        1 AFG     -0.380000
     38 HN21       -0.0460    4.2800   -4.8580 hn        1 AFG      0.208500
     39 HN22       -1.6280    4.3420   -4.7010 hn        1 AFG      0.208500
     40 HN1        -0.8080    5.1560   -1.9250 hn        1 AFG      0.260000
     41 H31         2.0810   -0.6040    2.2130 ha        1 AFG      0.118750
     42 H33        -2.0690   -0.6880    2.4160 ha        1 AFG      0.167000
     43 H36         2.1910   -0.4390    4.6040 ha        1 AFG      0.118750
     44 H371       -2.7640    0.2890    5.0950 hc        1 AFG      0.111000
     45 H372       -2.6870   -1.3010    5.3480 hc        1 AFG      0.111000
     46 H40        -2.9520   -0.0180    8.1290 ha        1 AFG      0.124000
     47 H41        -1.2130    0.0600    9.9200 ha        1 AFG      0.118750
     48 H42         0.8110    0.0190    9.5570 ha        1 AFG      0.118750
     49 H43         1.6370   -0.5680    7.5510 ha        1 AFG      0.128000
     50 H29         0.0230   -1.8400    0.4540 hn        1 AFG      0.234000
     51 H2'        -1.2860    0.0210   -3.5350 hc        1 AFG      0.097000
     52 H2''       -1.7510   -1.4690   -3.0670 hc        1 AFG      0.097000
     53 H5'         1.4460   -0.6500   -6.0870 h1        1 AFG      0.046500
     54 H5''        2.5950   -0.2150   -5.0650 h1        1 AFG      0.046500
     55 H4'         1.4860   -2.5300   -4.0240 h1        1 AFG      0.099000
     56 H1'        -0.1200   -1.7870   -1.8740 h4        1 AFG      0.099000
     57 H3'        -0.4950   -0.9550   -5.3270 h1        1 AFG      0.192000
     58 HO3'       -1.1340   -2.8190   -5.5840 ho        1 AFG      0.267000
@<TRIPOS>BOND
     1    1    2 1   
     2    2    3 1   
     3    2    4 1   
     4    2    5 1   
     5    5   32 1   
     6    6    7 1   
     7    6   16 1   
     8    7    8 1   
     9    9   10 1   
    10    9   11 1   
    11   10   38 1   
    12   10   39 1   
    13   11   40 1   
    14   12   13 1   
    15   12   14 1   
    16   15   16 1   
    17   17   22 1   
    18   17   41 1   
    19   18   19 1   
    20   18   30 1   
    21   19   42 1   
    22   20   21 1   
    23   20   23 1   
    24   22   43 1   
    25   23   24 1   
    26   23   44 1   
    27   23   45 1   
    28   24   25 1   
    29   24   26 1   
    30   25   29 1   
    31   26   46 1   
    32   27   28 1   
    33   27   47 1   
    34   28   48 1   
    35   29   49 1   
    36   30   50 1   
    37   31   35 1   
    38   31   36 1   
    39   31   51 1   
    40   31   52 1   
    41   32   33 1   
    42   32   53 1   
    43   32   54 1   
    44   33   34 1   
    45   33   36 1   
    46   33   55 1   
    47   34   35 1   
    48   35   56 1   
    49   36   37 1   
    50   36   57 1   
    51   37   58 1   
@<TRIPOS>SUBSTRUCTURE
     1 AFG         1 TEMP              0 ****  ****    0 ROOT
