@<TRIPOS>MOLECULE
AFG
   58    63     1     0     0
SMALL
bcc


@<TRIPOS>ATOM
      1 OP3         1.8750    4.7180   -1.9010 o         1 AFG     -0.923167
      2 P           2.3960    3.3250   -1.8040 p5        1 AFG      1.349900
      3 OP1         1.3530    2.2150   -1.7690 o         1 AFG     -0.923167
      4 OP2         3.6280    2.9100   -2.5640 o         1 AFG     -0.923167
      5 O5'         3.0670    3.1790   -0.2160 os        1 AFG     -0.570200
      6 N9          1.5660   -2.0020    0.0700 na        1 AFG     -0.197900
      7 C4          1.4360   -3.3970   -0.0100 cc        1 AFG      0.020800
      8 N3          2.3510   -4.3770    0.3440 nc        1 AFG     -0.609100
      9 C2          1.9410   -5.6380    0.1500 cd        1 AFG      0.562800
     10 N2          2.8350   -6.7400    0.4260 nh        1 AFG     -0.861800
     11 N1          0.6670   -6.0000   -0.3360 n         1 AFG     -0.487400
     12 C6         -0.3000   -5.0390   -0.7170 c         1 AFG      0.634000
     13 O6         -1.3880   -5.4680   -1.1420 o         1 AFG     -0.646500
     14 C5          0.1250   -3.6620   -0.5380 cd        1 AFG      0.245800
     15 N7         -0.5400   -2.4850   -0.8230 nd        1 AFG     -0.681000
     16 C8          0.3370   -1.4720   -0.4550 cc        1 AFG      0.711400
     17 C31        -1.4980    1.6130   -1.1650 ca        1 AFG     -0.156000
     18 C32        -1.2410    0.3780   -0.5120 ca        1 AFG      0.202600
     19 C33        -2.2940   -0.2720    0.1870 ca        1 AFG     -0.157000
     20 C34        -3.5470    0.3040    0.1900 ca        1 AFG     -0.081300
     21 C35        -3.7990    1.5390   -0.4720 cp        1 AFG     -0.125000
     22 C36        -2.7650    2.1860   -1.1390 ca        1 AFG     -0.077000
     23 C37        -4.8080   -0.2010    0.8390 c3        1 AFG      0.012200
     24 C38        -5.8210    0.8560    0.4950 ca        1 AFG     -0.098300
     25 C39        -5.2010    1.8850   -0.2860 cp        1 AFG      0.017000
     26 C40        -7.1600    0.9340    0.8220 ca        1 AFG     -0.126000
     27 C41        -7.9030    2.0380    0.3760 ca        1 AFG     -0.166000
     28 C42        -7.3030    3.0390   -0.3810 ca        1 AFG     -0.135000
     29 C43        -5.9450    2.9710   -0.7200 ca        1 AFG     -0.133000
     30 N29         0.0740   -0.1100   -0.5080 nh        1 AFG     -0.721300
     31 C2'         3.7570   -1.0790   -0.7800 c3        1 AFG     -0.126400
     32 C5'         2.5710    2.2100    0.6120 c3        1 AFG      0.233400
     33 C4'         3.4100    0.9120    0.5620 c3        1 AFG      0.066100
     34 O4'         2.6300   -0.1610    1.1490 os        1 AFG     -0.428600
     35 C1'         2.8370   -1.3730    0.4260 c3        1 AFG      0.255800
     36 C3'         3.8050    0.4460   -0.8540 c3        1 AFG      0.117100
     37 O3'         5.0950    0.8820   -1.2040 oh        1 AFG     -0.657800
     38 HN21        3.7890   -6.4330    0.3940 hn        1 AFG      0.374800
     39 HN22        2.6320   -7.1130    1.3350 hn        1 AFG      0.374800
     40 HN1         0.4590   -6.9580   -0.4980 hn        1 AFG      0.323500
     41 H33        -2.1270   -1.2160    0.7230 ha        1 AFG      0.138000
     42 H36        -2.9370    3.1460   -1.6460 ha        1 AFG      0.131000
     43 H371       -5.1040   -1.1970    0.4240 hc        1 AFG      0.058700
     44 H372       -4.6850   -0.2990    1.9460 hc        1 AFG      0.058700
     45 H40        -7.6430    0.1500    1.4200 ha        1 AFG      0.115000
     46 H41        -8.9690    2.1090    0.6320 ha        1 AFG      0.107000
     47 H42        -7.8990    3.8980   -0.7210 ha        1 AFG      0.110000
     48 H43        -5.4760    3.7660   -1.3170 ha        1 AFG      0.136000
     49 H29         0.7990    0.5320   -0.8650 hn        1 AFG      0.556800
     50 H2'         4.7730   -1.4980   -0.5790 hc        1 AFG      0.055200
     51 H2''        3.3810   -1.5140   -1.7350 hc        1 AFG      0.055200
     52 H5'         2.6250    2.5800    1.6790 h1        1 AFG      0.001700
     53 H5''        1.4980    1.9760    0.3740 h1        1 AFG      0.001700
     54 H4'         4.3270    1.0200    1.2000 h1        1 AFG      0.032700
     55 H1'         3.3300   -2.0850    1.1550 h2        1 AFG      0.061700
     56 H3'         3.0450    0.8590   -1.5950 h1        1 AFG      0.140700
     57 HO3'        4.9490    1.7400   -1.6730 ho        1 AFG      0.493000
     58 H31        -0.6520    2.1370   -1.6800 ha        1 AFG      0.258000
@<TRIPOS>BOND
     1    1    2 1   
     2    2    3 1   
     3    2    4 1   
     4    2    5 1   
     5    5   32 1   
     6    6    7 1   
     7    6   16 1   
     8    6   35 1   
     9    7    8 1   
    10    7   14 2   
    11    8    9 2   
    12    9   10 1   
    13    9   11 1   
    14   10   38 1   
    15   10   39 1   
    16   11   12 1   
    17   11   40 1   
    18   12   13 2   
    19   12   14 1   
    20   14   15 1   
    21   15   16 2   
    22   16   30 1   
    23   17   18 ar  
    24   17   22 ar  
    25   17   58 1   
    26   18   19 ar  
    27   18   30 1   
    28   19   20 ar  
    29   19   41 1   
    30   20   21 ar  
    31   20   23 1   
    32   21   22 ar  
    33   21   25 1   
    34   22   42 1   
    35   23   24 1   
    36   23   43 1   
    37   23   44 1   
    38   24   25 ar  
    39   24   26 ar  
    40   25   29 ar  
    41   26   27 ar  
    42   26   45 1   
    43   27   28 ar  
    44   27   46 1   
    45   28   29 ar  
    46   28   47 1   
    47   29   48 1   
    48   30   49 1   
    49   31   35 1   
    50   31   36 1   
    51   31   50 1   
    52   31   51 1   
    53   32   33 1   
    54   32   52 1   
    55   32   53 1   
    56   33   34 1   
    57   33   36 1   
    58   33   54 1   
    59   34   35 1   
    60   35   55 1   
    61   36   37 1   
    62   36   56 1   
    63   37   57 1   
@<TRIPOS>SUBSTRUCTURE
     1 AFG         1 TEMP              0 ****  ****    0 ROOT
