@<TRIPOS>MOLECULE
AFI
   45    48     1     0     0
SMALL
bcc


@<TRIPOS>ATOM
      1 O1         -0.9990   -2.1710    2.4280 o         1 AFI     -0.550100
      2 O2          1.8980    1.7490    4.7930 oh        1 AFI     -0.515100
      3 C1         -0.5280   -1.0970    2.8380 c         1 AFI      0.590900
      4 C2          0.4660   -0.3200    2.0560 cc        1 AFI     -0.210200
      5 C3          1.3580    0.5010    2.8680 cc        1 AFI      0.156100
      6 C4          1.0260    0.8960    4.1360 cd        1 AFI     -0.037100
      7 C5         -0.6390    1.0010    5.9900 ca        1 AFI     -0.146000
      8 C6         -1.8160    0.5390    6.5710 ca        1 AFI     -0.095000
      9 C7         -2.5650   -0.4610    5.9460 ca        1 AFI     -0.151000
     10 C8         -2.1390   -0.9950    4.7330 ca        1 AFI     -0.066000
     11 C9         -0.9630   -0.5300    4.1310 ca        1 AFI     -0.167600
     12 C10        -0.2020    0.4690    4.7690 ca        1 AFI      0.001200
     13 O6          2.5490    0.8690    2.2930 oh        1 AFI     -0.498100
     14 C11         1.4910    0.4410   -0.0710 c3        1 AFI     -0.070200
     15 C12         1.2020    0.6620   -1.5390 c3        1 AFI     -0.071400
     16 C13         0.6870   -0.6020   -2.2080 c3        1 AFI     -0.024400
     17 C14        -0.6080   -1.0070   -1.5210 c3        1 AFI     -0.071400
     18 C15        -0.3980   -1.2960   -0.0520 c3        1 AFI     -0.070200
     19 C16         0.5010   -0.3690    0.6910 c2        1 AFI      0.057600
     20 CL         -0.0790    0.1670   -8.1010 cl        1 AFI     -0.095400
     21 C17         0.4880   -0.4030   -3.6760 ca        1 AFI     -0.073300
     22 C18         1.2010   -1.1890   -4.5890 ca        1 AFI     -0.118000
     23 C19         1.0290   -1.0170   -5.9610 ca        1 AFI     -0.123000
     24 C20         0.1350   -0.0490   -6.4280 ca        1 AFI      0.015400
     25 C21        -0.5840    0.7440   -5.5280 ca        1 AFI     -0.123000
     26 C22        -0.4040    0.5630   -4.1590 ca        1 AFI     -0.118000
     27 H2          2.0420    1.3690    5.6730 ho        1 AFI      0.417000
     28 H5         -0.0540    1.7960    6.4760 ha        1 AFI      0.139000
     29 HA         -2.1580    0.9640    7.5270 ha        1 AFI      0.135000
     30 H7         -3.4920   -0.8260    6.4120 ha        1 AFI      0.138000
     31 H8         -2.7170   -1.7900    4.2330 ha        1 AFI      0.154000
     32 H6          3.0650    1.3610    2.9550 ho        1 AFI      0.440000
     33 H111        1.5990    1.4540    0.4110 hc        1 AFI      0.080450
     34 H112        2.4890   -0.0730    0.0420 hc        1 AFI      0.080450
     35 H121        0.4430    1.4800   -1.6580 hc        1 AFI      0.049950
     36 H122        2.1430    1.0040   -2.0450 hc        1 AFI      0.049950
     37 H13         1.4450   -1.4230   -2.0500 hc        1 AFI      0.058700
     38 H141       -1.3640   -0.1860   -1.6430 hc        1 AFI      0.049950
     39 H142       -1.0290   -1.9230   -2.0120 hc        1 AFI      0.049950
     40 H151        0.0330   -2.3310    0.0720 hc        1 AFI      0.080450
     41 H152       -1.4130   -1.3230    0.4390 hc        1 AFI      0.080450
     42 H18         1.9050   -1.9520   -4.2250 ha        1 AFI      0.137500
     43 H19         1.5940   -1.6410   -6.6700 ha        1 AFI      0.147000
     44 H21        -1.2870    1.5050   -5.8960 ha        1 AFI      0.147000
     45 H22        -0.9700    1.1870   -3.4510 ha        1 AFI      0.137500
@<TRIPOS>BOND
     1    1    3 2   
     2    2    6 1   
     3    2   27 1   
     4    3    4 1   
     5    3   11 1   
     6    4    5 1   
     7    4   19 2   
     8    5    6 2   
     9    5   13 1   
    10    6   12 1   
    11    7    8 ar  
    12    7   12 ar  
    13    7   28 1   
    14    8    9 ar  
    15    8   29 1   
    16    9   10 ar  
    17    9   30 1   
    18   10   11 ar  
    19   10   31 1   
    20   11   12 ar  
    21   13   32 1   
    22   14   15 1   
    23   14   19 1   
    24   14   33 1   
    25   14   34 1   
    26   15   16 1   
    27   15   35 1   
    28   15   36 1   
    29   16   17 1   
    30   16   21 1   
    31   16   37 1   
    32   17   18 1   
    33   17   38 1   
    34   17   39 1   
    35   18   19 1   
    36   18   40 1   
    37   18   41 1   
    38   20   24 1   
    39   21   22 ar  
    40   21   26 ar  
    41   22   23 ar  
    42   22   42 1   
    43   23   24 ar  
    44   23   43 1   
    45   24   25 ar  
    46   25   26 ar  
    47   25   44 1   
    48   26   45 1   
@<TRIPOS>SUBSTRUCTURE
     1 AFI         1 TEMP              0 ****  ****    0 ROOT
