@<TRIPOS>MOLECULE
AFI
   45    48     1     0     0
SMALL
bcc


@<TRIPOS>ATOM
      1 O1          0.2020   -0.5810   -0.2310 o         1 AFI     -0.552100
      2 O2          4.9020    2.0750    0.1220 oh        1 AFI     -0.517100
      3 C1          1.3950   -0.2370   -0.2130 c         1 AFI      0.590900
      4 C2          2.2350   -0.3680    1.0030 cc        1 AFI     -0.212200
      5 C3          3.3660    0.5530    1.0600 cc        1 AFI      0.162100
      6 C4          3.8530    1.1840   -0.0530 cd        1 AFI     -0.042100
      7 C5          3.8100    1.5520   -2.5210 ca        1 AFI     -0.145000
      8 C6          3.1840    1.3650   -3.7490 ca        1 AFI     -0.094000
      9 C7          1.9840    0.6530   -3.8280 ca        1 AFI     -0.152000
     10 C8          1.4070    0.1340   -2.6730 ca        1 AFI     -0.065000
     11 C9          2.0330    0.3060   -1.4310 ca        1 AFI     -0.168600
     12 C10         3.2450    1.0180   -1.3530 ca        1 AFI      0.008200
     13 O6          3.9100    0.7820    2.3000 oh        1 AFI     -0.500100
     14 C11         2.8310   -1.4290    3.1650 c3        1 AFI     -0.070200
     15 C12         2.6990   -2.6990    3.9760 c3        1 AFI     -0.071400
     16 C13         1.2480   -3.1310    4.1130 c3        1 AFI     -0.024400
     17 C14         0.7030   -3.3970    2.7200 c3        1 AFI     -0.071400
     18 C15         0.7500   -2.1590    1.8520 c3        1 AFI     -0.070200
     19 C16         1.9630   -1.3040    1.9620 c2        1 AFI      0.059600
     20 CL          0.6950   -7.9270    7.6630 cl        1 AFI     -0.095400
     21 C17         1.1170   -4.3330    4.9920 ca        1 AFI     -0.073300
     22 C18         0.3540   -4.2610    6.1630 ca        1 AFI     -0.118000
     23 C19         0.2190   -5.3700    6.9950 ca        1 AFI     -0.123000
     24 C20         0.8540   -6.5680    6.6530 ca        1 AFI      0.015400
     25 C21         1.6190   -6.6560    5.4860 ca        1 AFI     -0.123000
     26 C22         1.7460   -5.5400    4.6630 ca        1 AFI     -0.118000
     27 H2          5.6080    1.7800   -0.4730 ho        1 AFI      0.415000
     28 H5          4.7430    2.1310   -2.4600 ha        1 AFI      0.134000
     29 HA          3.6340    1.7830   -4.6620 ha        1 AFI      0.135000
     30 H7          1.4920    0.5100   -4.8010 ha        1 AFI      0.138000
     31 H8          0.4500   -0.4120   -2.7170 ha        1 AFI      0.154000
     32 H6          4.6190    1.4420    2.2040 ho        1 AFI      0.441000
     33 H111        3.9110   -1.3330    2.8590 hc        1 AFI      0.081200
     34 H112        2.6060   -0.5410    3.8240 hc        1 AFI      0.081200
     35 H121        3.1440   -2.5280    4.9910 hc        1 AFI      0.049700
     36 H122        3.2870   -3.5230    3.4900 hc        1 AFI      0.049700
     37 H13         0.6650   -2.2800    4.5690 hc        1 AFI      0.059700
     38 H141       -0.3600   -3.7490    2.7880 hc        1 AFI      0.049700
     39 H142        1.2960   -4.2200    2.2400 hc        1 AFI      0.049700
     40 H151       -0.1340   -1.4990    2.0890 hc        1 AFI      0.081200
     41 H152        0.6100   -2.4880    0.7820 hc        1 AFI      0.081200
     42 H18        -0.1480   -3.3190    6.4350 ha        1 AFI      0.137500
     43 H19        -0.3830   -5.3020    7.9130 ha        1 AFI      0.147000
     44 H21         2.1170   -7.6000    5.2180 ha        1 AFI      0.147000
     45 H22         2.3480   -5.6110    3.7440 ha        1 AFI      0.137500
@<TRIPOS>BOND
     1    1    3 2   
     2    2    6 1   
     3    2   27 1   
     4    3    4 1   
     5    3   11 1   
     6    4    5 1   
     7    4   19 2   
     8    5    6 2   
     9    5   13 1   
    10    6   12 1   
    11    7    8 ar  
    12    7   12 ar  
    13    7   28 1   
    14    8    9 ar  
    15    8   29 1   
    16    9   10 ar  
    17    9   30 1   
    18   10   11 ar  
    19   10   31 1   
    20   11   12 ar  
    21   13   32 1   
    22   14   15 1   
    23   14   19 1   
    24   14   33 1   
    25   14   34 1   
    26   15   16 1   
    27   15   35 1   
    28   15   36 1   
    29   16   17 1   
    30   16   21 1   
    31   16   37 1   
    32   17   18 1   
    33   17   38 1   
    34   17   39 1   
    35   18   19 1   
    36   18   40 1   
    37   18   41 1   
    38   20   24 1   
    39   21   22 ar  
    40   21   26 ar  
    41   22   23 ar  
    42   22   42 1   
    43   23   24 ar  
    44   23   43 1   
    45   24   25 ar  
    46   25   26 ar  
    47   25   44 1   
    48   26   45 1   
@<TRIPOS>SUBSTRUCTURE
     1 AFI         1 TEMP              0 ****  ****    0 ROOT
