@<TRIPOS>MOLECULE
AFI
   45    42     1     0     0
SMALL
bcc


@<TRIPOS>ATOM
      1 O1          2.4100    1.5020   -1.3580 o         1 AFI     -0.292000
      2 O2          0.6110   -3.2000   -3.7840 oh        1 AFI     -0.269000
      3 C1          2.0290    0.4700   -1.8710 c1        1 AFI      0.315000
      4 C2          0.8000   -0.2100   -1.3560 c1        1 AFI     -0.161000
      5 C3          0.3040   -1.4310   -2.0190 c2        1 AFI      0.108000
      6 C4          1.0320   -1.9860   -3.2050 c2        1 AFI     -0.090000
      7 C5          3.0520   -1.8630   -4.7620 c1        1 AFI     -0.113500
      8 C6          4.2650   -1.2950   -5.1590 c1        1 AFI     -0.113500
      9 C7          4.7370   -0.1340   -4.5280 c1        1 AFI     -0.113500
     10 C8          3.9960    0.4550   -3.5010 c1        1 AFI     -0.113500
     11 C9          2.7820   -0.1110   -3.1020 c1        1 AFI     -0.149000
     12 C10         2.3080   -1.2750   -3.7350 c1        1 AFI      0.009000
     13 O6         -0.8850   -2.0370   -1.5770 oh        1 AFI     -0.245000
     14 C11         0.8920   -0.0460    1.1720 c3        1 AFI     -0.154000
     15 C12        -0.1700   -0.0570    2.2530 c3        1 AFI     -0.144500
     16 C13        -1.0550    1.1450    2.2490 c3        1 AFI     -0.073000
     17 C14        -1.6820    1.4200    0.9190 c3        1 AFI     -0.144500
     18 C15        -0.6910    1.5020   -0.2260 c3        1 AFI     -0.154000
     19 C16         0.2090    0.2290   -0.2020 c2        1 AFI      0.040000
     20 CL         -5.4120    0.2530    6.4060 cl        1 AFI     -0.018000
     21 C17        -2.1960    0.9330    3.3050 c2        1 AFI     -0.066000
     22 C18        -2.2570    1.7420    4.4310 c2        1 AFI     -0.120000
     23 C19        -3.2410    1.5280    5.3860 c1        1 AFI     -0.124000
     24 C20        -4.1610    0.5080    5.2160 c1        1 AFI     -0.063000
     25 C21        -4.1000   -0.3010    4.0900 c1        1 AFI     -0.122000
     26 C22        -3.1160   -0.0880    3.1350 c1        1 AFI     -0.117000
     27 H2          0.2590   -3.0410   -4.5830 ho        1 AFI      0.217000
     28 H5          2.7230   -2.6710   -5.2020 ha        1 AFI      0.142000
     29 HA          4.7850   -1.7060   -5.8780 ha        1 AFI      0.142000
     30 H7          5.5860    0.2630   -4.8070 ha        1 AFI      0.142000
     31 H8          4.3250    1.2630   -3.0620 ha        1 AFI      0.142000
     32 H6         -1.5210   -1.9200   -2.1850 ho        1 AFI      0.238000
     33 H111        1.7110    0.4850    1.2410 hc        1 AFI      0.108000
     34 H112        1.2700   -0.9510    1.2070 hc        1 AFI      0.108000
     35 H121       -0.7250   -0.8520    2.1350 hc        1 AFI      0.093750
     36 H122        0.2740   -0.1130    3.1230 hc        1 AFI      0.093750
     37 H13        -0.5260    1.9240    2.5110 hc        1 AFI      0.092000
     38 H141       -2.1660    2.2690    0.9730 hc        1 AFI      0.093750
     39 H142       -2.3220    0.7070    0.7250 hc        1 AFI      0.093750
     40 H151       -0.1720    2.3160   -0.3870 hc        1 AFI      0.108000
     41 H152       -1.2480    1.4950   -1.0320 hc        1 AFI      0.108000
     42 H18        -1.6080    2.4610    4.5510 ha        1 AFI      0.136000
     43 H19        -3.2840    2.0980    6.1790 ha        1 AFI      0.146000
     44 H21        -4.7490   -1.0200    3.9700 ha        1 AFI      0.147000
     45 H22        -3.0730   -0.6570    2.3430 ha        1 AFI      0.141000
@<TRIPOS>BOND
     1    1    3 1   
     2    2    6 1   
     3    2   27 1   
     4    3   11 1   
     5    4    5 1   
     6    4   19 1   
     7    5    6 1   
     8    5   13 1   
     9    6   12 1   
    10    7    8 1   
    11    7   28 1   
    12    8   29 1   
    13    9   10 1   
    14    9   30 1   
    15   10   31 1   
    16   11   12 1   
    17   13   32 1   
    18   14   15 1   
    19   14   19 1   
    20   14   33 1   
    21   14   34 1   
    22   15   16 1   
    23   15   35 1   
    24   15   36 1   
    25   16   17 1   
    26   16   21 1   
    27   16   37 1   
    28   17   18 1   
    29   17   38 1   
    30   17   39 1   
    31   18   19 1   
    32   18   40 1   
    33   18   41 1   
    34   20   24 1   
    35   21   22 1   
    36   21   26 1   
    37   22   23 1   
    38   22   42 1   
    39   23   43 1   
    40   24   25 1   
    41   25   44 1   
    42   26   45 1   
@<TRIPOS>SUBSTRUCTURE
     1 AFI         1 TEMP              0 ****  ****    0 ROOT
