@<TRIPOS>MOLECULE
AFI
   45    48     1     0     0
SMALL
bcc


@<TRIPOS>ATOM
      1 O1          0.1310   -0.4560   -0.1920 o         1 AFI     -0.550100
      2 O2          4.9480    2.0060    0.0970 oh        1 AFI     -0.515100
      3 C1          1.3370   -0.1600   -0.1860 c         1 AFI      0.590900
      4 C2          2.1770   -0.2910    1.0310 cc        1 AFI     -0.210200
      5 C3          3.3040    0.6350    1.0830 cc        1 AFI      0.156100
      6 C4          3.8200    1.2120   -0.0450 cd        1 AFI     -0.037100
      7 C5          3.8550    1.4270   -2.5300 ca        1 AFI     -0.146000
      8 C6          3.2410    1.2090   -3.7600 ca        1 AFI     -0.095000
      9 C7          2.0070    0.5590   -3.8260 ca        1 AFI     -0.151000
     10 C8          1.3870    0.1200   -2.6590 ca        1 AFI     -0.066000
     11 C9          2.0000    0.3210   -1.4160 ca        1 AFI     -0.167600
     12 C10         3.2390    0.9880   -1.3500 ca        1 AFI      0.001200
     13 O6          3.8320    0.8920    2.3240 oh        1 AFI     -0.498100
     14 C11         2.7830   -1.3530    3.1890 c3        1 AFI     -0.070200
     15 C12         2.6820   -2.6450    3.9680 c3        1 AFI     -0.071400
     16 C13         1.2390   -3.1020    4.1170 c3        1 AFI     -0.024400
     17 C14         0.6720   -3.3360    2.7260 c3        1 AFI     -0.071400
     18 C15         0.6900   -2.0750    1.8920 c3        1 AFI     -0.070200
     19 C16         1.9080   -1.2250    1.9910 c2        1 AFI      0.057600
     20 Cl          0.8110   -8.0020    7.5390 cl        1 AFI     -0.095400
     21 C17         1.1390   -4.3300    4.9630 ca        1 AFI     -0.073300
     22 C18         0.3940   -4.3010    6.1480 ca        1 AFI     -0.118000
     23 C19         0.2890   -5.4360    6.9500 ca        1 AFI     -0.123000
     24 C20         0.9350   -6.6140    6.5650 ca        1 AFI      0.015400
     25 C21         1.6820   -6.6580    5.3840 ca        1 AFI     -0.123000
     26 C22         1.7800   -5.5180    4.5900 ca        1 AFI     -0.118000
     27 H2          4.7650    2.8300   -0.3790 ho        1 AFI      0.417000
     28 H5          4.8330    1.9290   -2.4780 ha        1 AFI      0.139000
     29 HA          3.7320    1.5500   -4.6840 ha        1 AFI      0.135000
     30 H7          1.5240    0.3940   -4.8000 ha        1 AFI      0.138000
     31 H8          0.4090   -0.3880   -2.6970 ha        1 AFI      0.154000
     32 H6          4.5320    1.5600    2.2220 ho        1 AFI      0.440000
     33 H111        2.5350   -0.4860    3.8670 hc        1 AFI      0.080450
     34 H112        3.8600   -1.2230    2.8850 hc        1 AFI      0.080450
     35 H121        3.2730   -3.4470    3.4520 hc        1 AFI      0.049950
     36 H122        3.1390   -2.4940    4.9810 hc        1 AFI      0.049950
     37 H13         0.6520   -2.2720    4.6060 hc        1 AFI      0.058700
     38 H141        1.2660   -4.1390    2.2140 hc        1 AFI      0.049950
     39 H142       -0.3850   -3.7030    2.8030 hc        1 AFI      0.049950
     40 H151       -0.1840   -1.4210    2.1760 hc        1 AFI      0.080450
     41 H152        0.5150   -2.3740    0.8180 hc        1 AFI      0.080450
     42 H18        -0.1170   -3.3750    6.4540 ha        1 AFI      0.137500
     43 H19        -0.3000   -5.4020    7.8790 ha        1 AFI      0.147000
     44 H21         2.1900   -7.5860    5.0820 ha        1 AFI      0.147000
     45 H22         2.3680   -5.5540    3.6610 ha        1 AFI      0.137500
@<TRIPOS>BOND
     1    1    3 2   
     2    2    6 1   
     3    2   27 1   
     4    3    4 1   
     5    3   11 1   
     6    4    5 1   
     7    4   19 2   
     8    5    6 2   
     9    5   13 1   
    10    6   12 1   
    11    7    8 ar  
    12    7   12 ar  
    13    7   28 1   
    14    8    9 ar  
    15    8   29 1   
    16    9   10 ar  
    17    9   30 1   
    18   10   11 ar  
    19   10   31 1   
    20   11   12 ar  
    21   13   32 1   
    22   14   15 1   
    23   14   19 1   
    24   14   33 1   
    25   14   34 1   
    26   15   16 1   
    27   15   35 1   
    28   15   36 1   
    29   16   17 1   
    30   16   21 1   
    31   16   37 1   
    32   17   18 1   
    33   17   38 1   
    34   17   39 1   
    35   18   19 1   
    36   18   40 1   
    37   18   41 1   
    38   20   24 1   
    39   21   22 ar  
    40   21   26 ar  
    41   22   23 ar  
    42   22   42 1   
    43   23   24 ar  
    44   23   43 1   
    45   24   25 ar  
    46   25   26 ar  
    47   25   44 1   
    48   26   45 1   
@<TRIPOS>SUBSTRUCTURE
     1 AFI         1 TEMP              0 ****  ****    0 ROOT
