@<TRIPOS>MOLECULE
AFJ
   85    84     1     0     0
SMALL
bcc


@<TRIPOS>ATOM
      1 S1         -0.1560    1.3120   -0.3440 ss        1 AFJ     -0.249200
      2 C2          1.3670    0.4690   -0.6420 c3        1 AFJ     -0.065300
      3 C5          1.8130   -0.0490    0.7020 c3        1 AFJ     -0.094400
      4 C8          3.3460   -0.1280    0.8110 c3        1 AFJ      0.064500
      5 N10         3.9390   -1.1390   -0.1230 ny        1 AFJ     -0.700800
      6 C12         5.4750   -1.1530   -0.0930 c         1 AFJ      0.598100
      7 O13         5.9380   -0.5700    0.8780 o         1 AFJ     -0.491100
      8 C14         6.1820   -1.8650   -1.1950 c3        1 AFJ     -0.165400
      9 C17         5.3430   -2.2930   -2.3770 c3        1 AFJ     -0.103400
     10 C20         6.2120   -2.9720   -3.4380 c3        1 AFJ     -0.059700
     11 C22         6.6670   -4.3430   -2.9850 c3        1 AFJ     -0.105100
     12 C26         5.4320   -3.0760   -4.7330 c3        1 AFJ     -0.105100
     13 C30         3.6870   -0.4850    2.2670 c         1 AFJ      0.536100
     14 O31         3.5610   -1.6040    2.7400 o         1 AFJ     -0.384100
     15 N32         4.2040    0.6250    3.1220 ny        1 AFJ     -0.649800
     16 C34         3.8380    0.5070    4.5930 c3        1 AFJ      0.129500
     17 C36         2.5830    1.3570    4.9610 c3        1 AFJ      0.128100
     18 O38         1.7570    1.4030    3.8050 oh        1 AFJ     -0.648800
     19 C40         1.8520    0.7080    6.1390 c3        1 AFJ     -0.124400
     20 C43         1.0150    1.6940    6.9570 c3        1 AFJ     -0.127700
     21 C45        -0.1680    0.9830    7.5830 c3        1 AFJ     -0.134100
     22 C49         1.8950    2.3770    7.9910 c         1 AFJ      0.534100
     23 O50         3.1100    2.4990    7.9140 o         1 AFJ     -0.424100
     24 N51         1.2110    2.9660    9.1910 ny        1 AFJ     -0.669800
     25 C53         2.1280    3.7360   10.1000 c3        1 AFJ      0.107800
     26 C56         1.3910    4.3040   11.3050 c3        1 AFJ     -0.113400
     27 C59         2.3780    5.0660   12.1740 c3        1 AFJ     -0.074400
     28 C62         1.6840    5.6440   13.3810 c3        1 AFJ     -0.104100
     29 C66         5.0130    0.9450    5.4730 c3        1 AFJ     -0.121400
     30 C69         6.2220    0.0200    5.4140 c3        1 AFJ     -0.071700
     31 C71         7.2920    0.5570    6.3480 c3        1 AFJ     -0.105600
     32 C75         5.8730   -1.4050    5.7840 c3        1 AFJ     -0.105600
     33 C79        -1.0430    1.1610   -1.8480 c3        1 AFJ     -0.043000
     34 H2          2.1110    1.1830   -1.0760 h1        1 AFJ      0.074200
     35 H2A         1.2210   -0.3600   -1.3780 h1        1 AFJ      0.074200
     36 H5          1.4660    0.6520    1.5180 hc        1 AFJ      0.111700
     37 H5A         1.3520   -1.0520    0.9120 hc        1 AFJ      0.111700
     38 H8          3.7920    0.8740    0.5200 hx        1 AFJ      0.137700
     39 HN10        3.6180   -0.9190   -1.0810 hn        1 AFJ      0.489300
     40 H14         6.6830   -2.7690   -0.7280 hc        1 AFJ      0.155700
     41 H14A        7.0160   -1.1780   -1.5390 hc        1 AFJ      0.155700
     42 H17         4.5450   -3.0160   -2.0620 hc        1 AFJ      0.048200
     43 H17A        4.8530   -1.3980   -2.8480 hc        1 AFJ      0.048200
     44 H20         7.1200   -2.3290   -3.6200 hc        1 AFJ      0.068700
     45 H22         5.7920   -5.0040   -2.7730 hc        1 AFJ      0.055033
     46 H22A        7.3020   -4.2770   -2.0700 hc        1 AFJ      0.055033
     47 H22B        7.2750   -4.8230   -3.7930 hc        1 AFJ      0.055033
     48 H26         5.1360   -2.0650   -5.1020 hc        1 AFJ      0.055033
     49 H26A        6.0650   -3.5630   -5.5160 hc        1 AFJ      0.055033
     50 H26B        4.5120   -3.6940   -4.5940 hc        1 AFJ      0.055033
     51 HN32        5.2380    0.6220    3.0400 hn        1 AFJ      0.485800
     52 H34         3.6090   -0.5870    4.7860 hx        1 AFJ      0.139700
     53 H36         2.9120    2.4040    5.2260 h1        1 AFJ      0.076700
     54 HO38        0.9290    1.8470    4.0380 ho        1 AFJ      0.459000
     55 H40         1.1710   -0.0920    5.7340 hc        1 AFJ      0.100700
     56 H40A        2.5940    0.2020    6.8130 hc        1 AFJ      0.100700
     57 H43         0.6330    2.5150    6.2800 hc        1 AFJ      0.103700
     58 H45        -0.7310    0.4170    6.7950 hc        1 AFJ      0.081033
     59 H45A        0.1610    0.2460    8.3570 hc        1 AFJ      0.081033
     60 H45B       -0.8910    1.7050    8.0360 hc        1 AFJ      0.081033
     61 HN51        0.7790    2.1990    9.7280 hn        1 AFJ      0.470300
     62 H53         2.9480    3.0360   10.4330 hx        1 AFJ      0.115200
     63 H53A        2.5920    4.5660    9.4930 hx        1 AFJ      0.115200
     64 H56         0.5730    5.0000   10.9790 hc        1 AFJ      0.072700
     65 H56A        0.9260    3.4810   11.9110 hc        1 AFJ      0.072700
     66 H59         2.8480    5.8910   11.5770 hc        1 AFJ      0.058200
     67 H59A        3.2000    4.3760   12.5060 hc        1 AFJ      0.058200
     68 H62         1.2300    4.8380   14.0060 hc        1 AFJ      0.059700
     69 H62A        2.4230    6.2010   14.0100 hc        1 AFJ      0.059700
     70 H62B        0.8780    6.3550   13.0760 hc        1 AFJ      0.059700
     71 H66         4.6330    0.9780    6.5330 hc        1 AFJ      0.090700
     72 H66A        5.3280    1.9920    5.2120 hc        1 AFJ      0.090700
     73 H69         6.6500    0.0260    4.3710 hc        1 AFJ      0.028700
     74 H71         6.9410    0.5260    7.4080 hc        1 AFJ      0.058200
     75 H71A        7.5540    1.6110    6.0870 hc        1 AFJ      0.058200
     76 H71B        8.2160   -0.0670    6.2670 hc        1 AFJ      0.058200
     77 H75         5.3290   -1.4420    6.7590 hc        1 AFJ      0.058200
     78 H75A        6.8090   -2.0100    5.8900 hc        1 AFJ      0.058200
     79 H75B        5.2400   -1.8860    4.9980 hc        1 AFJ      0.058200
     80 H79        -2.0180    1.6790   -1.6580 h1        1 AFJ      0.093700
     81 H79A       -0.5310    1.6660   -2.6960 h1        1 AFJ      0.093700
     82 H79B       -1.2460    0.1010   -2.1180 h1        1 AFJ      0.093700
     83 H102        3.5970   -2.0830    0.1130 hn        1 AFJ      0.489300
     84 H322        3.8400    1.5210    2.7690 hn        1 AFJ      0.485800
     85 H512        0.4550    3.5870    8.8740 hn        1 AFJ      0.470300
@<TRIPOS>BOND
     1    1    2 1   
     2    1   33 1   
     3    2    3 1   
     4    2   34 1   
     5    2   35 1   
     6    3    4 1   
     7    3   36 1   
     8    3   37 1   
     9    4    5 1   
    10    4   13 1   
    11    4   38 1   
    12    5    6 1   
    13    5   39 1   
    14    5   83 1   
    15    6    7 2   
    16    6    8 1   
    17    8    9 1   
    18    8   40 1   
    19    8   41 1   
    20    9   10 1   
    21    9   42 1   
    22    9   43 1   
    23   10   11 1   
    24   10   12 1   
    25   10   44 1   
    26   11   45 1   
    27   11   46 1   
    28   11   47 1   
    29   12   48 1   
    30   12   49 1   
    31   12   50 1   
    32   13   14 2   
    33   13   15 1   
    34   15   16 1   
    35   15   51 1   
    36   15   84 1   
    37   16   17 1   
    38   16   29 1   
    39   16   52 1   
    40   17   18 1   
    41   17   19 1   
    42   17   53 1   
    43   18   54 1   
    44   19   20 1   
    45   19   55 1   
    46   19   56 1   
    47   20   21 1   
    48   20   22 1   
    49   20   57 1   
    50   21   58 1   
    51   21   59 1   
    52   21   60 1   
    53   22   23 2   
    54   22   24 1   
    55   24   25 1   
    56   24   61 1   
    57   24   85 1   
    58   25   26 1   
    59   25   62 1   
    60   25   63 1   
    61   26   27 1   
    62   26   64 1   
    63   26   65 1   
    64   27   28 1   
    65   27   66 1   
    66   27   67 1   
    67   28   68 1   
    68   28   69 1   
    69   28   70 1   
    70   29   30 1   
    71   29   71 1   
    72   29   72 1   
    73   30   31 1   
    74   30   32 1   
    75   30   73 1   
    76   31   74 1   
    77   31   75 1   
    78   31   76 1   
    79   32   77 1   
    80   32   78 1   
    81   32   79 1   
    82   33   80 1   
    83   33   81 1   
    84   33   82 1   
@<TRIPOS>SUBSTRUCTURE
     1 AFJ         1 TEMP              0 ****  ****    0 ROOT
