@<TRIPOS>MOLECULE
AFJ
   82    81     1     0     0
SMALL
bcc


@<TRIPOS>ATOM
      1 S1          3.4820   -4.5300   -2.1990 ss        1 AFJ     -0.301200
      2 C2          1.8660   -3.8600   -1.8460 c3        1 AFJ     -0.009300
      3 C5          1.6760   -2.5450   -2.6190 c3        1 AFJ     -0.075400
      4 C8          0.3280   -1.9410   -2.2690 c3        1 AFJ      0.033700
      5 N10        -0.5150   -1.9650   -3.4150 n         1 AFJ     -0.554900
      6 C12        -1.4420   -3.0590   -3.6090 c         1 AFJ      0.655100
      7 O13        -1.8790   -3.6640   -2.6450 o         1 AFJ     -0.606100
      8 C14        -1.9130   -3.4270   -5.0290 c3        1 AFJ     -0.149400
      9 C17        -3.2070   -4.2610   -4.9420 c3        1 AFJ     -0.071400
     10 C20        -3.5320   -4.8540   -6.3290 c3        1 AFJ     -0.068700
     11 C22        -4.9610   -4.4600   -6.7330 c3        1 AFJ     -0.090600
     12 C26        -3.4200   -6.3890   -6.2710 c3        1 AFJ     -0.090600
     13 C30         0.5190   -0.5010   -1.8080 c         1 AFJ      0.633100
     14 O31         1.4400    0.1630   -2.2520 o         1 AFJ     -0.621100
     15 N32        -0.4140    0.0910   -0.8670 n         1 AFJ     -0.554900
     16 C34        -0.0740    1.3020   -0.1880 c3        1 AFJ      0.066700
     17 C36        -0.3390    1.1440    1.2910 c3        1 AFJ      0.122100
     18 O38        -0.4750   -0.2150    1.5970 oh        1 AFJ     -0.600800
     19 C40         0.8330    1.7340    2.0890 c3        1 AFJ     -0.105400
     20 C43         0.4090    1.9360    3.5430 c3        1 AFJ     -0.127700
     21 C45         0.1770    0.5900    4.1930 c3        1 AFJ     -0.103100
     22 C49         1.5000    2.6780    4.2900 c         1 AFJ      0.651100
     23 O50         2.6480    2.6500    3.8790 o         1 AFJ     -0.607100
     24 N51         1.1790    3.4240    5.4850 n         1 AFJ     -0.562900
     25 C53         2.2380    3.9190    6.3340 c3        1 AFJ      0.081000
     26 C56         1.6270    4.5760    7.5870 c3        1 AFJ     -0.106400
     27 C59         2.7490    4.9420    8.5720 c3        1 AFJ     -0.078400
     28 C62         2.1450    5.6280    9.8030 c3        1 AFJ     -0.093100
     29 C66        -0.9200    2.4490   -0.7380 c3        1 AFJ     -0.087400
     30 C69        -0.0790    3.2790   -1.7410 c3        1 AFJ     -0.073700
     31 C71        -0.8670    3.4570   -3.0480 c3        1 AFJ     -0.090100
     32 C75         0.2260    4.6580   -1.1360 c3        1 AFJ     -0.090100
     33 C79         3.6470   -6.1280   -1.4220 c3        1 AFJ     -0.039000
     34 H2          1.7860   -3.6890   -0.8830 h1        1 AFJ      0.068200
     35 H2A         1.1780   -4.5030   -2.1220 h1        1 AFJ      0.068200
     36 H5          2.3910   -1.9150   -2.3740 hc        1 AFJ      0.067700
     37 H5A         1.7140   -2.7230   -3.5850 hc        1 AFJ      0.067700
     38 H8         -0.0870   -2.4630   -1.5470 h1        1 AFJ      0.102700
     39 HN10       -0.4440   -1.3070   -4.0510 hn        1 AFJ      0.321500
     40 H14        -2.0860   -2.6050   -5.5400 hc        1 AFJ      0.067700
     41 H14A       -1.2150   -3.9520   -5.4800 hc        1 AFJ      0.067700
     42 H17        -3.9490   -3.6850   -4.6500 hc        1 AFJ      0.059200
     43 H17A       -3.0840   -4.9900   -4.2940 hc        1 AFJ      0.059200
     44 H20        -2.8960   -4.5040   -6.9930 hc        1 AFJ      0.044700
     45 H22        -5.5820   -4.6870   -6.0050 hc        1 AFJ      0.034867
     46 H22A       -4.9980   -3.4930   -6.9060 hc        1 AFJ      0.034867
     47 H22B       -5.2180   -4.9490   -7.5480 hc        1 AFJ      0.034867
     48 H26        -2.9680   -6.2230   -7.1280 hc        1 AFJ      0.034867
     49 H26A       -4.3560   -6.2810   -5.9960 hc        1 AFJ      0.034867
     50 H26B       -3.8350   -7.0970   -6.8170 hc        1 AFJ      0.034867
     51 HN32       -1.2330   -0.3000   -0.7260 hn        1 AFJ      0.320500
     52 H34         0.8770    1.5010   -0.3310 h1        1 AFJ      0.089700
     53 H36        -1.1680    1.6170    1.5270 h1        1 AFJ      0.075700
     54 HO38        0.3190   -0.5500    1.8220 ho        1 AFJ      0.405000
     55 H40         1.5980    1.1170    2.0530 hc        1 AFJ      0.072200
     56 H40A        1.0910    2.5990    1.7000 hc        1 AFJ      0.072200
     57 H43        -0.4230    2.4610    3.5720 hc        1 AFJ      0.066700
     58 H45         1.1160    0.7350    4.4450 hc        1 AFJ      0.048700
     59 H45A       -0.6500    1.0490    4.4640 hc        1 AFJ      0.048700
     60 H45B        0.1390    0.3180    5.1410 hc        1 AFJ      0.048700
     61 HN51        0.3030    3.6040    5.6920 hn        1 AFJ      0.302500
     62 H53         2.7690    4.5850    5.8410 h1        1 AFJ      0.063200
     63 H53A        2.8170    3.1730    6.6050 h1        1 AFJ      0.063200
     64 H56         1.1410    5.3890    7.3260 hc        1 AFJ      0.043700
     65 H56A        1.0070    3.9460    8.0170 hc        1 AFJ      0.043700
     66 H59         3.2210    4.1260    8.8500 hc        1 AFJ      0.042200
     67 H59A        3.3830    5.5530    8.1340 hc        1 AFJ      0.042200
     68 H62         1.7680    6.4970    9.5410 hc        1 AFJ      0.034367
     69 H62A        2.8470    5.7660   10.4790 hc        1 AFJ      0.034367
     70 H62B        1.4350    5.0620   10.1780 hc        1 AFJ      0.034367
     71 H66        -1.7100    2.0830   -1.1970 hc        1 AFJ      0.048200
     72 H66A       -1.2110    3.0260    0.0030 hc        1 AFJ      0.048200
     73 H69         0.7630    2.8100   -1.9280 hc        1 AFJ      0.068700
     74 H71        -1.7600    3.8180   -2.8460 hc        1 AFJ      0.034200
     75 H71A       -0.3870    4.0800   -3.6390 hc        1 AFJ      0.034200
     76 H71B       -0.9600    2.5870   -3.4960 hc        1 AFJ      0.034200
     77 H75        -0.6090    5.0670   -0.8160 hc        1 AFJ      0.034200
     78 H75A        0.8490    4.5550   -0.3840 hc        1 AFJ      0.034200
     79 H75B        0.6320    5.2350   -1.8220 hc        1 AFJ      0.034200
     80 H79         2.9600   -6.7350   -1.7730 h1        1 AFJ      0.063700
     81 H79A        3.5350   -6.0330   -0.4510 h1        1 AFJ      0.063700
     82 H79B        4.5380   -6.4950   -1.6140 h1        1 AFJ      0.063700
@<TRIPOS>BOND
     1    1    2 1   
     2    1   33 1   
     3    2    3 1   
     4    2   34 1   
     5    2   35 1   
     6    3    4 1   
     7    3   36 1   
     8    3   37 1   
     9    4    5 1   
    10    4   13 1   
    11    4   38 1   
    12    5    6 1   
    13    5   39 1   
    14    6    7 2   
    15    6    8 1   
    16    8    9 1   
    17    8   40 1   
    18    8   41 1   
    19    9   10 1   
    20    9   42 1   
    21    9   43 1   
    22   10   11 1   
    23   10   12 1   
    24   10   44 1   
    25   11   45 1   
    26   11   46 1   
    27   11   47 1   
    28   12   48 1   
    29   12   49 1   
    30   12   50 1   
    31   13   14 2   
    32   13   15 1   
    33   15   16 1   
    34   15   51 1   
    35   16   17 1   
    36   16   29 1   
    37   16   52 1   
    38   17   18 1   
    39   17   19 1   
    40   17   53 1   
    41   18   54 1   
    42   19   20 1   
    43   19   55 1   
    44   19   56 1   
    45   20   21 1   
    46   20   22 1   
    47   20   57 1   
    48   21   58 1   
    49   21   59 1   
    50   21   60 1   
    51   22   23 2   
    52   22   24 1   
    53   24   25 1   
    54   24   61 1   
    55   25   26 1   
    56   25   62 1   
    57   25   63 1   
    58   26   27 1   
    59   26   64 1   
    60   26   65 1   
    61   27   28 1   
    62   27   66 1   
    63   27   67 1   
    64   28   68 1   
    65   28   69 1   
    66   28   70 1   
    67   29   30 1   
    68   29   71 1   
    69   29   72 1   
    70   30   31 1   
    71   30   32 1   
    72   30   73 1   
    73   31   74 1   
    74   31   75 1   
    75   31   76 1   
    76   32   77 1   
    77   32   78 1   
    78   32   79 1   
    79   33   80 1   
    80   33   81 1   
    81   33   82 1   
@<TRIPOS>SUBSTRUCTURE
     1 AFJ         1 TEMP              0 ****  ****    0 ROOT
