@<TRIPOS>MOLECULE
AFJ
   85    84     1     0     0
SMALL
bcc


@<TRIPOS>ATOM
      1 S1          0.0970    1.7360   -0.4710 ss        1 AFJ     -0.249200
      2 C2          1.5460    0.7610   -0.7360 c3        1 AFJ     -0.065300
      3 C5          1.8860    0.1670    0.6080 c3        1 AFJ     -0.093400
      4 C8          3.4010   -0.0470    0.7800 c3        1 AFJ      0.064500
      5 N10         3.9430   -1.0860   -0.1540 n4        1 AFJ     -0.700800
      6 C12         5.4680   -1.2370   -0.0620 c         1 AFJ      0.599100
      7 O13         5.9390   -0.7210    0.9430 o         1 AFJ     -0.493100
      8 C14         6.1580   -1.9830   -1.1530 c3        1 AFJ     -0.165400
      9 C17         5.3350   -2.3100   -2.3780 c3        1 AFJ     -0.103400
     10 C20         6.1870   -3.0400   -3.4190 c3        1 AFJ     -0.059700
     11 C22         6.5010   -4.4550   -2.9830 c3        1 AFJ     -0.105100
     12 C26         5.4550   -3.0480   -4.7470 c3        1 AFJ     -0.105100
     13 C30         3.6450   -0.4630    2.2400 c         1 AFJ      0.538100
     14 O31         3.3770   -1.5700    2.6830 o         1 AFJ     -0.383100
     15 N32         4.2480    0.5680    3.1350 n4        1 AFJ     -0.649800
     16 C34         3.8590    0.4380    4.5990 c3        1 AFJ      0.129500
     17 C36         2.6000    1.2850    4.9560 c3        1 AFJ      0.129100
     18 O38         1.7890    1.3410    3.7890 oh        1 AFJ     -0.648800
     19 C40         1.8570    0.6280    6.1210 c3        1 AFJ     -0.124400
     20 C43         0.9990    1.6040    6.9280 c3        1 AFJ     -0.127700
     21 C45        -0.1800    0.8780    7.5450 c3        1 AFJ     -0.134100
     22 C49         1.8580    2.3040    7.9670 c         1 AFJ      0.535100
     23 O50         3.0710    2.4520    7.8960 o         1 AFJ     -0.424100
     24 N51         1.1570    2.8780    9.1640 n4        1 AFJ     -0.669800
     25 C53         2.0550    3.6630   10.0800 c3        1 AFJ      0.107800
     26 C56         1.3000    4.2150   11.2820 c3        1 AFJ     -0.113400
     27 C59         2.2680    4.9930   12.1580 c3        1 AFJ     -0.074400
     28 C62         1.5560    5.5560   13.3620 c3        1 AFJ     -0.104100
     29 C66         5.0260    0.8720    5.4940 c3        1 AFJ     -0.122400
     30 C69         6.1490   -0.1550    5.5660 c3        1 AFJ     -0.068700
     31 C71         7.3960    0.5040    6.1270 c3        1 AFJ     -0.105600
     32 C75         5.7610   -1.3450    6.4190 c3        1 AFJ     -0.105600
     33 C79        -0.7330    1.7160   -2.0130 c3        1 AFJ     -0.043000
     34 H2          1.3550   -0.0300   -1.5020 h1        1 AFJ      0.074200
     35 H2A         2.3710    1.4130   -1.1190 h1        1 AFJ      0.074200
     36 H5          1.5630    0.8700    1.4320 hc        1 AFJ      0.111700
     37 H5A         1.3330   -0.7980    0.7660 hc        1 AFJ      0.111700
     38 H8          3.9440    0.9180    0.5320 hx        1 AFJ      0.136700
     39 HN10        3.5090   -2.0000    0.0430 hn        1 AFJ      0.489300
     40 H14         6.5610   -2.9370   -0.6900 hc        1 AFJ      0.155700
     41 H14A        7.0610   -1.3630   -1.4460 hc        1 AFJ      0.155700
     42 H17         4.9440   -1.3670   -2.8450 hc        1 AFJ      0.048200
     43 H17A        4.4660   -2.9680   -2.1120 hc        1 AFJ      0.048200
     44 H20         7.1540   -2.4750   -3.5490 hc        1 AFJ      0.068700
     45 H22         5.5650   -5.0420   -2.8230 hc        1 AFJ      0.055033
     46 H22A        7.1010   -4.4650   -2.0420 hc        1 AFJ      0.055033
     47 H22B        7.0990   -4.9690   -3.7780 hc        1 AFJ      0.055033
     48 H26         4.4810   -3.5860   -4.6600 hc        1 AFJ      0.055033
     49 H26A        5.2640   -2.0070   -5.1020 hc        1 AFJ      0.055033
     50 H26B        6.0770   -3.5720   -5.5160 hc        1 AFJ      0.055033
     51 HN32        3.9660    1.5030    2.8090 hn        1 AFJ      0.485300
     52 H34         3.6310   -0.6580    4.7760 hx        1 AFJ      0.138700
     53 H36         2.9250    2.3300    5.2310 h1        1 AFJ      0.077700
     54 HO38        0.9460    1.7530    4.0220 ho        1 AFJ      0.458000
     55 H40         2.5950    0.1280    6.8050 hc        1 AFJ      0.101200
     56 H40A        1.1900   -0.1780    5.7060 hc        1 AFJ      0.101200
     57 H43         0.6110    2.4180    6.2450 hc        1 AFJ      0.103700
     58 H45         0.1520    0.1480    8.3230 hc        1 AFJ      0.081033
     59 H45A       -0.7270    0.3020    6.7530 hc        1 AFJ      0.081033
     60 H45B       -0.9170    1.5910    7.9890 hc        1 AFJ      0.081033
     61 HN51        0.7360    2.1020    9.6970 hn        1 AFJ      0.470300
     62 H53         2.5060    4.5030    9.4780 hx        1 AFJ      0.115700
     63 H53A        2.8850    2.9780   10.4160 hx        1 AFJ      0.115700
     64 H56         0.4700    4.8960   10.9530 hc        1 AFJ      0.072700
     65 H56A        0.8470    3.3810   11.8830 hc        1 AFJ      0.072700
     66 H59         2.7250    5.8290   11.5650 hc        1 AFJ      0.058200
     67 H59A        3.1000    4.3190   12.4920 hc        1 AFJ      0.058200
     68 H62         1.1140    4.7390   13.9830 hc        1 AFJ      0.059700
     69 H62A        2.2800    6.1250   13.9960 hc        1 AFJ      0.059700
     70 H62B        0.7370    6.2510   13.0550 hc        1 AFJ      0.059700
     71 H66         5.4320    1.8640    5.1570 hc        1 AFJ      0.091200
     72 H66A        4.6140    1.0330    6.5310 hc        1 AFJ      0.091200
     73 H69         6.3890   -0.5260    4.5290 hc        1 AFJ      0.023700
     74 H71         8.2230   -0.2450    6.1970 hc        1 AFJ      0.058367
     75 H71A        7.7330    1.3420    5.4720 hc        1 AFJ      0.058367
     76 H71B        7.2020    0.9060    7.1510 hc        1 AFJ      0.058367
     77 H75         5.5570   -1.0260    7.4710 hc        1 AFJ      0.058367
     78 H75A        4.8530   -1.8550    6.0170 hc        1 AFJ      0.058367
     79 H75B        6.5980   -2.0860    6.4410 hc        1 AFJ      0.058367
     80 H79        -1.0230    0.6890   -2.3280 h1        1 AFJ      0.093700
     81 H79A       -0.1390    2.1960   -2.8230 h1        1 AFJ      0.093700
     82 H79B       -1.6620    2.3180   -1.8460 h1        1 AFJ      0.093700
     83 H102        3.6840   -0.8180   -1.1180 hn        1 AFJ      0.489300
     84 H322        5.2790    0.4780    3.0620 hn        1 AFJ      0.485300
     85 H512        0.3920    3.4860    8.8440 hn        1 AFJ      0.470300
@<TRIPOS>BOND
     1    1    2 1   
     2    1   33 1   
     3    2    3 1   
     4    2   34 1   
     5    2   35 1   
     6    3    4 1   
     7    3   36 1   
     8    3   37 1   
     9    4    5 1   
    10    4   13 1   
    11    4   38 1   
    12    5    6 1   
    13    5   39 1   
    14    5   83 1   
    15    6    7 2   
    16    6    8 1   
    17    8    9 1   
    18    8   40 1   
    19    8   41 1   
    20    9   10 1   
    21    9   42 1   
    22    9   43 1   
    23   10   11 1   
    24   10   12 1   
    25   10   44 1   
    26   11   45 1   
    27   11   46 1   
    28   11   47 1   
    29   12   48 1   
    30   12   49 1   
    31   12   50 1   
    32   13   14 2   
    33   13   15 1   
    34   15   16 1   
    35   15   51 1   
    36   15   84 1   
    37   16   17 1   
    38   16   29 1   
    39   16   52 1   
    40   17   18 1   
    41   17   19 1   
    42   17   53 1   
    43   18   54 1   
    44   19   20 1   
    45   19   55 1   
    46   19   56 1   
    47   20   21 1   
    48   20   22 1   
    49   20   57 1   
    50   21   58 1   
    51   21   59 1   
    52   21   60 1   
    53   22   23 2   
    54   22   24 1   
    55   24   25 1   
    56   24   61 1   
    57   24   85 1   
    58   25   26 1   
    59   25   62 1   
    60   25   63 1   
    61   26   27 1   
    62   26   64 1   
    63   26   65 1   
    64   27   28 1   
    65   27   66 1   
    66   27   67 1   
    67   28   68 1   
    68   28   69 1   
    69   28   70 1   
    70   29   30 1   
    71   29   71 1   
    72   29   72 1   
    73   30   31 1   
    74   30   32 1   
    75   30   73 1   
    76   31   74 1   
    77   31   75 1   
    78   31   76 1   
    79   32   77 1   
    80   32   78 1   
    81   32   79 1   
    82   33   80 1   
    83   33   81 1   
    84   33   82 1   
@<TRIPOS>SUBSTRUCTURE
     1 AFJ         1 TEMP              0 ****  ****    0 ROOT
