@<TRIPOS>MOLECULE
AFJ
   82    81     1     0     0
SMALL
bcc


@<TRIPOS>ATOM
      1 S1          2.6130    4.2740    1.5100 ss        1 AFJ     -0.304200
      2 C2          3.2160    2.6140    1.3630 c3        1 AFJ     -0.009300
      3 C5          2.1500    1.8150    0.6620 c3        1 AFJ     -0.074400
      4 C8          2.4490    0.3060    0.7150 c3        1 AFJ      0.034700
      5 N10         3.6250   -0.0690   -0.0260 n         1 AFJ     -0.555900
      6 C12         4.6160   -0.8660    0.5240 c         1 AFJ      0.658100
      7 O13         4.6290   -1.1300    1.7430 o         1 AFJ     -0.611100
      8 C14         5.7020   -1.3750   -0.4050 c3        1 AFJ     -0.152400
      9 C17         6.4520   -0.2490   -1.0820 c3        1 AFJ     -0.073400
     10 C20         7.6750   -0.7550   -1.8350 c3        1 AFJ     -0.067700
     11 C22         7.2820   -1.5350   -3.0710 c3        1 AFJ     -0.092100
     12 C26         8.5650    0.4120   -2.2130 c3        1 AFJ     -0.092100
     13 C30         1.1860   -0.4020    0.1490 c         1 AFJ      0.630100
     14 O31         1.0540   -0.5830   -1.0790 o         1 AFJ     -0.612100
     15 N32         0.2070   -0.7410    1.0560 n         1 AFJ     -0.553900
     16 C34        -0.9790   -1.4820    0.6810 c3        1 AFJ      0.063700
     17 C36        -2.2830   -0.7310    1.0770 c3        1 AFJ      0.125100
     18 O38        -2.3190   -0.4370    2.4630 oh        1 AFJ     -0.599800
     19 C40        -2.4810    0.5120    0.2190 c3        1 AFJ     -0.101400
     20 C43        -3.8310    1.1640    0.4800 c3        1 AFJ     -0.136700
     21 C45        -3.8680    2.5580   -0.1110 c3        1 AFJ     -0.093100
     22 C49        -4.9610    0.3220   -0.1140 c         1 AFJ      0.659100
     23 O50        -4.7430   -0.6150   -0.9070 o         1 AFJ     -0.614100
     24 N51        -6.2440    0.6200    0.3060 n         1 AFJ     -0.566900
     25 C53        -7.4090   -0.0150   -0.2430 c3        1 AFJ      0.084000
     26 C56        -8.2900    0.9030   -1.0940 c3        1 AFJ     -0.105400
     27 C59        -9.5100    0.1470   -1.5760 c3        1 AFJ     -0.078400
     28 C62       -10.4010    1.0230   -2.4180 c3        1 AFJ     -0.093100
     29 C66        -1.0460   -2.8870    1.2980 c3        1 AFJ     -0.094400
     30 C69         0.1370   -3.7790    0.9590 c3        1 AFJ     -0.066700
     31 C71        -0.0230   -5.1150    1.6580 c3        1 AFJ     -0.095600
     32 C75         0.2780   -3.9820   -0.5350 c3        1 AFJ     -0.095600
     33 C79         3.9540    5.0840    2.2940 c3        1 AFJ     -0.039000
     34 H2          4.1710    2.5990    0.7850 h1        1 AFJ      0.067700
     35 H2A         3.4280    2.1930    2.3770 h1        1 AFJ      0.067700
     36 H5          1.1580    1.9850    1.1620 hc        1 AFJ      0.068200
     37 H5A         2.0530    2.1480   -0.4050 hc        1 AFJ      0.068200
     38 H8          2.6130    0.0080    1.7960 h1        1 AFJ      0.098700
     39 HN10        3.5510   -0.0090   -1.0170 hn        1 AFJ      0.324500
     40 H14         6.4080   -1.9910    0.2140 hc        1 AFJ      0.075200
     41 H14A        5.2370   -2.0520   -1.1700 hc        1 AFJ      0.075200
     42 H17         5.7780    0.2910   -1.7980 hc        1 AFJ      0.048200
     43 H17A        6.7810    0.4920   -0.3060 hc        1 AFJ      0.048200
     44 H20         8.2570   -1.4380   -1.1520 hc        1 AFJ      0.050700
     45 H22         8.1940   -1.8830   -3.6140 hc        1 AFJ      0.035700
     46 H22A        6.6730   -2.4290   -2.7960 hc        1 AFJ      0.035700
     47 H22B        6.6810   -0.8970   -3.7650 hc        1 AFJ      0.035700
     48 H26         8.9060    0.9560   -1.2990 hc        1 AFJ      0.035700
     49 H26A        9.4640    0.0480   -2.7650 hc        1 AFJ      0.035700
     50 H26B        8.0140    1.1290   -2.8670 hc        1 AFJ      0.035700
     51 HN32        0.4370   -0.7500    2.0230 hn        1 AFJ      0.309500
     52 H34        -0.9850   -1.5830   -0.4480 h1        1 AFJ      0.100700
     53 H36        -3.1520   -1.4360    0.9220 h1        1 AFJ      0.098700
     54 HO38       -1.7270    0.3080    2.6210 ho        1 AFJ      0.395000
     55 H40        -1.6710    1.2570    0.4350 hc        1 AFJ      0.067200
     56 H40A       -2.4080    0.2210   -0.8630 hc        1 AFJ      0.067200
     57 H43        -3.9770    1.2250    1.5970 hc        1 AFJ      0.076700
     58 H45        -4.8340    3.0660    0.1210 hc        1 AFJ      0.043367
     59 H45A       -3.0380    3.1750    0.3130 hc        1 AFJ      0.043367
     60 H45B       -3.7430    2.5170   -1.2200 hc        1 AFJ      0.043367
     61 HN51       -6.3880    1.4400    0.8440 hn        1 AFJ      0.304500
     62 H53        -7.0820   -0.8950   -0.8700 h1        1 AFJ      0.062200
     63 H53A       -8.0260   -0.4080    0.6170 h1        1 AFJ      0.062200
     64 H56        -8.6130    1.7940   -0.4960 hc        1 AFJ      0.043700
     65 H56A       -7.7100    1.2820   -1.9750 hc        1 AFJ      0.043700
     66 H59        -9.1840   -0.7450   -2.1740 hc        1 AFJ      0.042200
     67 H59A      -10.0860   -0.2380   -0.6940 hc        1 AFJ      0.042200
     68 H62       -10.7550    1.9060   -1.8330 hc        1 AFJ      0.034033
     69 H62A       -9.8520    1.3970   -3.3170 hc        1 AFJ      0.034033
     70 H62B      -11.2930    0.4480   -2.7640 hc        1 AFJ      0.034033
     71 H66        -1.1370   -2.7930    2.4130 hc        1 AFJ      0.056200
     72 H66A       -1.9860   -3.3730    0.9240 hc        1 AFJ      0.056200
     73 H69         1.0810   -3.2990    1.3430 hc        1 AFJ      0.042700
     74 H71        -0.9390   -5.6410    1.2940 hc        1 AFJ      0.037200
     75 H71A        0.8620   -5.7650    1.4540 hc        1 AFJ      0.037200
     76 H71B       -0.1120   -4.9710    2.7610 hc        1 AFJ      0.037200
     77 H75         0.5450   -3.0190   -1.0380 hc        1 AFJ      0.037200
     78 H75A        1.0820   -4.7260   -0.7480 hc        1 AFJ      0.037200
     79 H75B       -0.6780   -4.3590   -0.9720 hc        1 AFJ      0.037200
     80 H79         3.6430    6.1460    2.4250 h1        1 AFJ      0.063700
     81 H79A        4.1770    4.6450    3.2920 h1        1 AFJ      0.063700
     82 H79B        4.8780    5.0490    1.6770 h1        1 AFJ      0.063700
@<TRIPOS>BOND
     1    1    2 1   
     2    1   33 1   
     3    2    3 1   
     4    2   34 1   
     5    2   35 1   
     6    3    4 1   
     7    3   36 1   
     8    3   37 1   
     9    4    5 1   
    10    4   13 1   
    11    4   38 1   
    12    5    6 1   
    13    5   39 1   
    14    6    7 2   
    15    6    8 1   
    16    8    9 1   
    17    8   40 1   
    18    8   41 1   
    19    9   10 1   
    20    9   42 1   
    21    9   43 1   
    22   10   11 1   
    23   10   12 1   
    24   10   44 1   
    25   11   45 1   
    26   11   46 1   
    27   11   47 1   
    28   12   48 1   
    29   12   49 1   
    30   12   50 1   
    31   13   14 2   
    32   13   15 1   
    33   15   16 1   
    34   15   51 1   
    35   16   17 1   
    36   16   29 1   
    37   16   52 1   
    38   17   18 1   
    39   17   19 1   
    40   17   53 1   
    41   18   54 1   
    42   19   20 1   
    43   19   55 1   
    44   19   56 1   
    45   20   21 1   
    46   20   22 1   
    47   20   57 1   
    48   21   58 1   
    49   21   59 1   
    50   21   60 1   
    51   22   23 2   
    52   22   24 1   
    53   24   25 1   
    54   24   61 1   
    55   25   26 1   
    56   25   62 1   
    57   25   63 1   
    58   26   27 1   
    59   26   64 1   
    60   26   65 1   
    61   27   28 1   
    62   27   66 1   
    63   27   67 1   
    64   28   68 1   
    65   28   69 1   
    66   28   70 1   
    67   29   30 1   
    68   29   71 1   
    69   29   72 1   
    70   30   31 1   
    71   30   32 1   
    72   30   73 1   
    73   31   74 1   
    74   31   75 1   
    75   31   76 1   
    76   32   77 1   
    77   32   78 1   
    78   32   79 1   
    79   33   80 1   
    80   33   81 1   
    81   33   82 1   
@<TRIPOS>SUBSTRUCTURE
     1 AFJ         1 TEMP              0 ****  ****    0 ROOT
