@<TRIPOS>MOLECULE
AFJ
   85    84     1     0     0
SMALL
bcc


@<TRIPOS>ATOM
      1 S1         -0.0780    1.4060   -0.3910 ss        1 AFJ     -0.249200
      2 C2          1.4340    0.5380   -0.6730 c3        1 AFJ     -0.065300
      3 C5          1.8510    0.0030    0.6740 c3        1 AFJ     -0.094400
      4 C8          3.3800   -0.1050    0.8060 c3        1 AFJ      0.064500
      5 N10         3.9690   -1.1200   -0.1270 n4        1 AFJ     -0.700800
      6 C12         5.5030   -1.1620   -0.0740 c         1 AFJ      0.598100
      7 O13         5.9620   -0.5940    0.9080 o         1 AFJ     -0.491100
      8 C14         6.2140   -1.8790   -1.1710 c3        1 AFJ     -0.165400
      9 C17         5.3840   -2.2870   -2.3660 c3        1 AFJ     -0.103400
     10 C20         6.2570   -2.9750   -3.4190 c3        1 AFJ     -0.059700
     11 C22         6.6840   -4.3550   -2.9670 c3        1 AFJ     -0.105100
     12 C26         5.4920   -3.0620   -4.7240 c3        1 AFJ     -0.105100
     13 C30         3.6930   -0.4780    2.2640 c         1 AFJ      0.536100
     14 O31         3.5400   -1.5980    2.7270 o         1 AFJ     -0.384100
     15 N32         4.2160    0.6160    3.1350 n4        1 AFJ     -0.649800
     16 C34         3.8240    0.4950    4.5990 c3        1 AFJ      0.129500
     17 C36         2.5810    1.3670    4.9540 c3        1 AFJ      0.128100
     18 O38         1.7740    1.4370    3.7850 oh        1 AFJ     -0.648800
     19 C40         1.8190    0.7230    6.1150 c3        1 AFJ     -0.124400
     20 C43         0.9890    1.7190    6.9270 c3        1 AFJ     -0.127700
     21 C45        -0.2190    1.0280    7.5290 c3        1 AFJ     -0.134100
     22 C49         1.8650    2.3770    7.9810 c         1 AFJ      0.534100
     23 O50         3.0830    2.4760    7.9240 o         1 AFJ     -0.424100
     24 N51         1.1740    2.9690    9.1760 n4        1 AFJ     -0.669800
     25 C53         2.0920    3.7110   10.1060 c3        1 AFJ      0.107800
     26 C56         1.3470    4.2830   11.3050 c3        1 AFJ     -0.113400
     27 C59         2.3360    5.0160   12.1970 c3        1 AFJ     -0.074400
     28 C62         1.6330    5.5980   13.3980 c3        1 AFJ     -0.104100
     29 C66         4.9940    0.9040    5.5000 c3        1 AFJ     -0.121400
     30 C69         6.1860   -0.0430    5.4510 c3        1 AFJ     -0.071700
     31 C71         7.2500    0.4640    6.4100 c3        1 AFJ     -0.105600
     32 C75         5.8060   -1.4660    5.7970 c3        1 AFJ     -0.105600
     33 C79        -0.9440    1.2840   -1.9090 c3        1 AFJ     -0.043000
     34 H2          1.2840   -0.2840   -1.4160 h1        1 AFJ      0.074200
     35 H2A         2.1970    1.2410   -1.0900 h1        1 AFJ      0.074200
     36 H5          1.5040    0.7050    1.4900 hc        1 AFJ      0.111700
     37 H5A         1.3680   -0.9940    0.8700 hc        1 AFJ      0.111700
     38 H8          3.8490    0.8900    0.5280 hx        1 AFJ      0.137700
     39 HN10        3.6650   -0.8880   -1.0870 hn        1 AFJ      0.489300
     40 H14         7.0620   -1.2030   -1.5000 hc        1 AFJ      0.155700
     41 H14A        6.6950   -2.7920   -0.7020 hc        1 AFJ      0.155700
     42 H17         4.5710   -2.9990   -2.0650 hc        1 AFJ      0.048200
     43 H17A        4.9150   -1.3830   -2.8390 hc        1 AFJ      0.048200
     44 H20         7.1770   -2.3450   -3.5860 hc        1 AFJ      0.068700
     45 H22         5.7970   -5.0030   -2.7680 hc        1 AFJ      0.055033
     46 H22A        7.3090   -4.3030   -2.0430 hc        1 AFJ      0.055033
     47 H22B        7.2950   -4.8410   -3.7690 hc        1 AFJ      0.055033
     48 H26         5.2170   -2.0440   -5.0920 hc        1 AFJ      0.055033
     49 H26A        4.5610   -3.6660   -4.6000 hc        1 AFJ      0.055033
     50 H26B        6.1280   -3.5550   -5.5010 hc        1 AFJ      0.055033
     51 HN32        5.2510    0.5940    3.0690 hn        1 AFJ      0.485800
     52 H34         3.5710   -0.5960    4.7800 hx        1 AFJ      0.139700
     53 H36         2.9250    2.4040    5.2320 h1        1 AFJ      0.076700
     54 HO38        0.9520    1.8960    4.0090 ho        1 AFJ      0.459000
     55 H40         2.5400    0.1980    6.7970 hc        1 AFJ      0.100700
     56 H40A        1.1280   -0.0600    5.6940 hc        1 AFJ      0.100700
     57 H43         0.6340    2.5540    6.2510 hc        1 AFJ      0.103700
     58 H45         0.0820    0.2790    8.3010 hc        1 AFJ      0.081033
     59 H45A       -0.7800    0.4800    6.7270 hc        1 AFJ      0.081033
     60 H45B       -0.9340    1.7610    7.9760 hc        1 AFJ      0.081033
     61 HN51        0.7170    2.2060    9.6980 hn        1 AFJ      0.470300
     62 H53         2.8920    2.9910   10.4460 hx        1 AFJ      0.115200
     63 H53A        2.5830    4.5370    9.5160 hx        1 AFJ      0.115200
     64 H56         0.8560    3.4640   11.8950 hc        1 AFJ      0.072700
     65 H56A        0.5490    4.9980   10.9730 hc        1 AFJ      0.072700
     66 H59         3.1370    4.3070   12.5350 hc        1 AFJ      0.058200
     67 H59A        2.8320    5.8370   11.6150 hc        1 AFJ      0.058200
     68 H62         1.1530    4.7950   14.0080 hc        1 AFJ      0.059700
     69 H62A        2.3730    6.1330   14.0440 hc        1 AFJ      0.059700
     70 H62B        0.8470    6.3270   13.0870 hc        1 AFJ      0.059700
     71 H66         5.3320    1.9460    5.2540 hc        1 AFJ      0.090700
     72 H66A        4.5980    0.9330    6.5550 hc        1 AFJ      0.090700
     73 H69         6.6330   -0.0320    4.4150 hc        1 AFJ      0.028700
     74 H71         8.1640   -0.1760    6.3370 hc        1 AFJ      0.058200
     75 H71A        7.5350    1.5150    6.1670 hc        1 AFJ      0.058200
     76 H71B        6.8800    0.4250    7.4630 hc        1 AFJ      0.058200
     77 H75         5.2440   -1.5050    6.7620 hc        1 AFJ      0.058200
     78 H75A        6.7280   -2.0890    5.9120 hc        1 AFJ      0.058200
     79 H75B        5.1780   -1.9250    4.9950 hc        1 AFJ      0.058200
     80 H79        -0.4090    1.7860   -2.7460 h1        1 AFJ      0.093700
     81 H79A       -1.1620    0.2300   -2.1920 h1        1 AFJ      0.093700
     82 H79B       -1.9120    1.8180   -1.7300 h1        1 AFJ      0.093700
     83 H102        3.6060   -2.0590    0.0980 hn        1 AFJ      0.489300
     84 H322        3.8740    1.5210    2.7830 hn        1 AFJ      0.485800
     85 H512        0.4370    3.6080    8.8530 hn        1 AFJ      0.470300
@<TRIPOS>BOND
     1    1    2 1   
     2    1   33 1   
     3    2    3 1   
     4    2   34 1   
     5    2   35 1   
     6    3    4 1   
     7    3   36 1   
     8    3   37 1   
     9    4    5 1   
    10    4   13 1   
    11    4   38 1   
    12    5    6 1   
    13    5   39 1   
    14    5   83 1   
    15    6    7 2   
    16    6    8 1   
    17    8    9 1   
    18    8   40 1   
    19    8   41 1   
    20    9   10 1   
    21    9   42 1   
    22    9   43 1   
    23   10   11 1   
    24   10   12 1   
    25   10   44 1   
    26   11   45 1   
    27   11   46 1   
    28   11   47 1   
    29   12   48 1   
    30   12   49 1   
    31   12   50 1   
    32   13   14 2   
    33   13   15 1   
    34   15   16 1   
    35   15   51 1   
    36   15   84 1   
    37   16   17 1   
    38   16   29 1   
    39   16   52 1   
    40   17   18 1   
    41   17   19 1   
    42   17   53 1   
    43   18   54 1   
    44   19   20 1   
    45   19   55 1   
    46   19   56 1   
    47   20   21 1   
    48   20   22 1   
    49   20   57 1   
    50   21   58 1   
    51   21   59 1   
    52   21   60 1   
    53   22   23 2   
    54   22   24 1   
    55   24   25 1   
    56   24   61 1   
    57   24   85 1   
    58   25   26 1   
    59   25   62 1   
    60   25   63 1   
    61   26   27 1   
    62   26   64 1   
    63   26   65 1   
    64   27   28 1   
    65   27   66 1   
    66   27   67 1   
    67   28   68 1   
    68   28   69 1   
    69   28   70 1   
    70   29   30 1   
    71   29   71 1   
    72   29   72 1   
    73   30   31 1   
    74   30   32 1   
    75   30   73 1   
    76   31   74 1   
    77   31   75 1   
    78   31   76 1   
    79   32   77 1   
    80   32   78 1   
    81   32   79 1   
    82   33   80 1   
    83   33   81 1   
    84   33   82 1   
@<TRIPOS>SUBSTRUCTURE
     1 AFJ         1 TEMP              0 ****  ****    0 ROOT
