@<TRIPOS>MOLECULE
AFL
   23    23     1     0     0
SMALL
bcc


@<TRIPOS>ATOM
      1 C1          1.2780   -0.3720   -0.7520 c3        1 AFL      0.313900
      2 C2         -0.1060    0.1170   -1.2290 c3        1 AFL      0.049100
      3 C3         -1.2020   -0.5330   -0.3730 c3        1 AFL      0.160100
      4 C4         -0.9300   -0.1970    1.1040 c3        1 AFL      0.111100
      5 C5          0.4700   -0.7250    1.4700 c3        1 AFL      0.116100
      6 C6          0.8560   -0.3800    2.8950 c3        1 AFL     -0.100100
      7 O2         -0.3350   -0.2830   -2.5690 oh        1 AFL     -0.604800
      8 O3         -2.4920   -0.0640   -0.7040 oh        1 AFL     -0.581800
      9 O4         -1.0180    1.2100    1.2400 oh        1 AFL     -0.573800
     10 O1L         2.3110    0.3720   -1.3390 oh        1 AFL     -0.597800
     11 O5          1.4770   -0.1460    0.6350 os        1 AFL     -0.441600
     12 H1          1.4520   -1.4490   -1.0290 h2        1 AFL      0.081700
     13 HA         -0.1710    1.2380   -1.1410 h1        1 AFL      0.080700
     14 HB         -1.1720   -1.6510   -0.5080 h1        1 AFL      0.047700
     15 HC         -1.7040   -0.6950    1.7500 h1        1 AFL      0.059700
     16 HD          0.4790   -1.8430    1.3220 h1        1 AFL      0.047700
     17 HA1         1.8110   -0.8910    3.1640 hc        1 AFL      0.052033
     18 HB2         1.0090    0.7210    3.0030 hc        1 AFL      0.052033
     19 HC3         0.0500   -0.7140    3.5900 hc        1 AFL      0.052033
     20 H2          0.4080    0.0560   -3.0870 ho        1 AFL      0.423000
     21 H3         -2.5370   -0.0360   -1.6700 ho        1 AFL      0.422000
     22 H4         -0.9040    1.4030    2.1790 ho        1 AFL      0.403000
     23 HE          2.4040    1.1990   -0.8430 ho        1 AFL      0.429000
@<TRIPOS>BOND
     1    1    2 1   
     2    1   10 1   
     3    1   11 1   
     4    1   12 1   
     5    2    3 1   
     6    2    7 1   
     7    2   13 1   
     8    3    4 1   
     9    3    8 1   
    10    3   14 1   
    11    4    5 1   
    12    4    9 1   
    13    4   15 1   
    14    5    6 1   
    15    5   11 1   
    16    5   16 1   
    17    6   17 1   
    18    6   18 1   
    19    6   19 1   
    20    7   20 1   
    21    8   21 1   
    22    9   22 1   
    23   10   23 1   
@<TRIPOS>SUBSTRUCTURE
     1 AFL         1 TEMP              0 ****  ****    0 ROOT
