@<TRIPOS>MOLECULE
AFL
   23    23     1     0     0
SMALL
bcc


@<TRIPOS>ATOM
      1 C1         -0.9410    0.7080   -1.2440 c3        1 AFL      0.314900
      2 C2          0.5730    0.7080   -1.2440 c3        1 AFL      0.050100
      3 C3          1.1360    0.7080    0.1280 c3        1 AFL      0.111100
      4 C4          0.5600   -0.3770    0.9750 c3        1 AFL      0.117100
      5 C5         -0.9590   -0.3740    0.9640 c3        1 AFL      0.160100
      6 C6         -1.4510   -1.5910    1.6810 c3        1 AFL     -0.089100
      7 O2          1.0380    1.8820   -1.9390 oh        1 AFL     -0.605800
      8 O3          2.5740    0.5250    0.0450 oh        1 AFL     -0.608800
      9 O4          1.0240   -1.6420    0.4860 oh        1 AFL     -0.590800
     10 O1L        -1.3870    0.5370   -2.5390 oh        1 AFL     -0.600800
     11 O5         -1.5100   -0.3700   -0.3920 os        1 AFL     -0.438600
     12 H1         -1.2560    1.5700   -0.9130 h2        1 AFL      0.079700
     13 HA          0.8890   -0.0860   -1.7160 h1        1 AFL      0.070700
     14 HB          0.9500    1.5700    0.5470 h1        1 AFL      0.057700
     15 HC          0.8690   -0.2600    1.8930 h1        1 AFL      0.056700
     16 HD         -1.2760    0.4200    1.4350 h1        1 AFL      0.040700
     17 HA1        -0.9530   -1.7010    2.5130 hc        1 AFL      0.055033
     18 HB2        -1.3200   -2.3760    1.1170 hc        1 AFL      0.055033
     19 HC3        -2.4010   -1.4890    1.8810 hc        1 AFL      0.055033
     20 H2          1.4680    1.6380   -2.6760 ho        1 AFL      0.425000
     21 H3          2.9790    1.1340    0.5480 ho        1 AFL      0.430000
     22 H4          1.6050   -1.9870    1.0620 ho        1 AFL      0.423000
     23 HE         -2.2130    0.8540   -2.6120 ho        1 AFL      0.432000
@<TRIPOS>BOND
     1    1    2 1   
     2    1   10 1   
     3    1   11 1   
     4    1   12 1   
     5    2    3 1   
     6    2    7 1   
     7    2   13 1   
     8    3    4 1   
     9    3    8 1   
    10    3   14 1   
    11    4    5 1   
    12    4    9 1   
    13    4   15 1   
    14    5    6 1   
    15    5   11 1   
    16    5   16 1   
    17    6   17 1   
    18    6   18 1   
    19    6   19 1   
    20    7   20 1   
    21    8   21 1   
    22    9   22 1   
    23   10   23 1   
@<TRIPOS>SUBSTRUCTURE
     1 AFL         1 TEMP              0 ****  ****    0 ROOT
