@<TRIPOS>MOLECULE
AFN
   38    42     1     0     0
SMALL
bcc


@<TRIPOS>ATOM
      1 C8A         0.1280    0.0480   -0.2840 c3        1 AFN      0.122400
      2 C9          1.6460   -0.1070   -0.0800 c3        1 AFN      0.124100
      3 O9          2.0100   -1.3830   -0.5670 oh        1 AFN     -0.590800
      4 C9A         1.8650   -0.0000    1.4410 c3        1 AFN     -0.065400
      5 C9B         2.4020    1.3230    1.8670 ca        1 AFN     -0.253300
      6 O7         -0.5190   -0.0030    0.9980 os        1 AFN     -0.402600
      7 C6A         0.4230    0.0190    2.0390 c3        1 AFN      0.321900
      8 O6A         0.2220    1.3190    2.6770 os        1 AFN     -0.317900
      9 C5A         1.3920    2.0320    2.5620 ca        1 AFN      0.231100
     10 C5B         1.5790    3.3090    3.0870 ca        1 AFN     -0.274000
     11 C4B         2.8410    3.8900    2.9070 ca        1 AFN      0.240100
     12 O4          3.1570    5.1420    3.3790 os        1 AFN     -0.324900
     13 CM          2.1270    5.8450    4.0730 c3        1 AFN      0.108700
     14 C4A         3.8900    3.2230    2.2200 ca        1 AFN     -0.229800
     15 C10         3.6470    1.9200    1.6940 ca        1 AFN      0.262100
     16 O10         4.5870    1.2040    1.0040 os        1 AFN     -0.349200
     17 C11         5.8810    1.7350    0.7910 c         1 AFN      0.764800
     18 O11         6.5510    0.9310    0.1560 o         1 AFN     -0.535500
     19 C12         6.1500    3.0430    1.3230 cc        1 AFN     -0.351400
     20 C3A         5.1940    3.7600    2.0080 cd        1 AFN      0.134600
     21 C3          5.7200    5.0880    2.4550 c3        1 AFN     -0.056200
     22 C2A         7.1690    5.1270    1.9560 c3        1 AFN     -0.190400
     23 C1          7.4120    3.8060    1.2370 c         1 AFN      0.598300
     24 O1          8.4640    3.4740    0.7020 o         1 AFN     -0.498100
     25 H8A2       -0.1180    1.0360   -0.7470 h1        1 AFN      0.073200
     26 H8A        -0.3000   -0.7960   -0.8830 h1        1 AFN      0.073200
     27 H9          2.2170    0.6930   -0.6230 h1        1 AFN      0.067700
     28 HO9         2.9750   -1.4250   -0.5510 ho        1 AFN      0.418000
     29 H9A         2.4720   -0.8550    1.8230 hc        1 AFN      0.105700
     30 H6A         0.1550   -0.7540    2.7980 h2        1 AFN      0.117700
     31 H5B         0.7620    3.8150    3.6140 ha        1 AFN      0.169000
     32 HM1         2.6200    6.8120    4.3470 h1        1 AFN      0.056367
     33 HM2         1.8180    5.2840    4.9880 h1        1 AFN      0.056367
     34 HM3         1.2530    6.0230    3.4000 h1        1 AFN      0.056367
     35 H31         5.1040    5.9160    2.0180 hc        1 AFN      0.084700
     36 H32         5.6580    5.1750    3.5700 hc        1 AFN      0.084700
     37 H2A1        7.3350    5.9760    1.2490 hc        1 AFN      0.082700
     38 H2A2        7.8900    5.2310    2.8040 hc        1 AFN      0.082700
@<TRIPOS>BOND
     1    1    2 1   
     2    1    6 1   
     3    1   25 1   
     4    1   26 1   
     5    2    3 1   
     6    2    4 1   
     7    2   27 1   
     8    3   28 1   
     9    4    5 1   
    10    4    7 1   
    11    4   29 1   
    12    5    9 ar  
    13    5   15 ar  
    14    6    7 1   
    15    7    8 1   
    16    7   30 1   
    17    8    9 1   
    18    9   10 ar  
    19   10   11 ar  
    20   10   31 1   
    21   11   12 1   
    22   11   14 ar  
    23   12   13 1   
    24   13   32 1   
    25   13   33 1   
    26   13   34 1   
    27   14   15 ar  
    28   14   20 1   
    29   15   16 1   
    30   16   17 1   
    31   17   18 2   
    32   17   19 1   
    33   19   20 2   
    34   19   23 1   
    35   20   21 1   
    36   21   22 1   
    37   21   35 1   
    38   21   36 1   
    39   22   23 1   
    40   22   37 1   
    41   22   38 1   
    42   23   24 2   
@<TRIPOS>SUBSTRUCTURE
     1 AFN         1 TEMP              0 ****  ****    0 ROOT
