@<TRIPOS>MOLECULE
AFN
   38    42     1     0     0
SMALL
bcc


@<TRIPOS>ATOM
      1 C8A        -0.8410   -1.3030   -4.2100 c3        1 AFN      0.122400
      2 C9         -1.5880   -0.6920   -3.0110 c3        1 AFN      0.124100
      3 O9         -2.8910   -0.3600   -3.4500 oh        1 AFN     -0.590800
      4 C9A        -0.7840    0.5650   -2.6290 c3        1 AFN     -0.065400
      5 C9B         0.0660    0.3760   -1.4200 ca        1 AFN     -0.253300
      6 O7          0.1580   -0.3710   -4.6570 os        1 AFN     -0.402600
      7 C6A         0.2790    0.7050   -3.7640 c3        1 AFN      0.321900
      8 O6A         1.5990    0.5260   -3.1630 os        1 AFN     -0.317900
      9 C5A         1.4280    0.3490   -1.8100 ca        1 AFN      0.231100
     10 C5B         2.4760    0.1810   -0.9090 ca        1 AFN     -0.274000
     11 C4B         2.1350    0.0390    0.4430 ca        1 AFN      0.240100
     12 O4          3.0740   -0.1300    1.4330 os        1 AFN     -0.324900
     13 CM          4.4410   -0.1600    1.0230 c3        1 AFN      0.108700
     14 C4A         0.7860    0.0600    0.8890 ca        1 AFN     -0.229800
     15 C10        -0.2530    0.2280   -0.0740 ca        1 AFN      0.262100
     16 O10        -1.5810    0.2460    0.2550 os        1 AFN     -0.349200
     17 C11        -1.9890    0.1100    1.6020 c         1 AFN      0.764800
     18 O11        -3.2120    0.1530    1.6630 o         1 AFN     -0.535500
     19 C12        -0.9560   -0.0490    2.5890 cc        1 AFN     -0.351400
     20 C3A         0.3770   -0.0750    2.2470 cd        1 AFN      0.134600
     21 C3          1.2480   -0.2530    3.4520 c3        1 AFN     -0.056200
     22 C2A         0.2750   -0.3380    4.6330 c3        1 AFN     -0.190400
     23 C1         -1.1250   -0.2050    4.0480 c         1 AFN      0.598300
     24 O1         -2.1670   -0.2270    4.6940 o         1 AFN     -0.498100
     25 H8A2       -0.3150   -2.2470   -3.9200 h1        1 AFN      0.073200
     26 H8A        -1.5220   -1.4730   -5.0830 h1        1 AFN      0.073200
     27 H9         -1.6400   -1.4100   -2.1500 h1        1 AFN      0.067700
     28 HO9        -3.3910   -0.0940   -2.6670 ho        1 AFN      0.418000
     29 H9A        -1.4460    1.4620   -2.5540 hc        1 AFN      0.105700
     30 H6A         0.3170    1.6620   -4.3380 h2        1 AFN      0.117700
     31 H5B         3.5140    0.1640   -1.2640 ha        1 AFN      0.169000
     32 HM1         4.9910   -0.3050    1.9870 h1        1 AFN      0.056367
     33 HM2         4.6220   -1.0160    0.3290 h1        1 AFN      0.056367
     34 HM3         4.7270    0.8080    0.5450 h1        1 AFN      0.056367
     35 H31         1.9540    0.6100    3.5520 hc        1 AFN      0.084700
     36 H32         1.8660   -1.1820    3.3500 hc        1 AFN      0.084700
     37 H2A1        0.4540    0.4830    5.3700 hc        1 AFN      0.082700
     38 H2A2        0.3670   -1.3150    5.1690 hc        1 AFN      0.082700
@<TRIPOS>BOND
     1    1    2 1   
     2    1    6 1   
     3    1   25 1   
     4    1   26 1   
     5    2    3 1   
     6    2    4 1   
     7    2   27 1   
     8    3   28 1   
     9    4    5 1   
    10    4    7 1   
    11    4   29 1   
    12    5    9 ar  
    13    5   15 ar  
    14    6    7 1   
    15    7    8 1   
    16    7   30 1   
    17    8    9 1   
    18    9   10 ar  
    19   10   11 ar  
    20   10   31 1   
    21   11   12 1   
    22   11   14 ar  
    23   12   13 1   
    24   13   32 1   
    25   13   33 1   
    26   13   34 1   
    27   14   15 ar  
    28   14   20 1   
    29   15   16 1   
    30   16   17 1   
    31   17   18 2   
    32   17   19 1   
    33   19   20 2   
    34   19   23 1   
    35   20   21 1   
    36   21   22 1   
    37   21   35 1   
    38   21   36 1   
    39   22   23 1   
    40   22   37 1   
    41   22   38 1   
    42   23   24 2   
@<TRIPOS>SUBSTRUCTURE
     1 AFN         1 TEMP              0 ****  ****    0 ROOT
