@<TRIPOS>MOLECULE
AFN
   38    42     1     0     0
SMALL
bcc


@<TRIPOS>ATOM
      1 C8A         0.1360    0.0520   -0.2890 c3        1 AFN      0.122400
      2 C9          1.6520   -0.1040   -0.0810 c3        1 AFN      0.124100
      3 O9          2.0170   -1.3810   -0.5660 oh        1 AFN     -0.590800
      4 C9A         1.8670    0.0040    1.4410 c3        1 AFN     -0.065400
      5 C9B         2.4050    1.3260    1.8670 ca        1 AFN     -0.253300
      6 O7         -0.5150    0.0030    0.9910 os        1 AFN     -0.402600
      7 C6A         0.4240    0.0250    2.0350 c3        1 AFN      0.321900
      8 O6A         0.2220    1.3250    2.6720 os        1 AFN     -0.317900
      9 C5A         1.3930    2.0370    2.5590 ca        1 AFN      0.231100
     10 C5B         1.5810    3.3140    3.0840 ca        1 AFN     -0.274000
     11 C4B         2.8440    3.8940    2.9070 ca        1 AFN      0.240100
     12 O4          3.1600    5.1450    3.3790 os        1 AFN     -0.324900
     13 CM          2.1280    5.8510    4.0690 c3        1 AFN      0.108700
     14 C4A         3.8940    3.2250    2.2230 ca        1 AFN     -0.229800
     15 C10         3.6510    1.9210    1.6970 ca        1 AFN      0.262100
     16 O10         4.5920    1.2040    1.0110 os        1 AFN     -0.349200
     17 C11         5.8870    1.7340    0.8010 c         1 AFN      0.764800
     18 O11         6.5590    0.9280    0.1690 o         1 AFN     -0.535500
     19 C12         6.1560    3.0420    1.3330 cc        1 AFN     -0.351400
     20 C3A         5.1990    3.7600    2.0150 cd        1 AFN      0.134600
     21 C3          5.7250    5.0880    2.4620 c3        1 AFN     -0.056200
     22 C2A         7.1760    5.1250    1.9670 c3        1 AFN     -0.190400
     23 C1          7.4190    3.8030    1.2500 c         1 AFN      0.598300
     24 O1          8.4730    3.4700    0.7180 o         1 AFN     -0.498100
     25 H8A2       -0.1090    1.0400   -0.7530 h1        1 AFN      0.073200
     26 H8A        -0.2920   -0.7910   -0.8890 h1        1 AFN      0.073200
     27 H9          2.2260    0.6950   -0.6230 h1        1 AFN      0.067700
     28 HO9         2.9820   -1.4240   -0.5470 ho        1 AFN      0.418000
     29 H9A         2.4720   -0.8520    1.8260 hc        1 AFN      0.105700
     30 H6A         0.1530   -0.7480    2.7940 h2        1 AFN      0.117700
     31 H5B         0.7630    3.8210    3.6090 ha        1 AFN      0.169000
     32 HM1         1.8160    5.2900    4.9840 h1        1 AFN      0.056367
     33 HM2         2.6220    6.8170    4.3440 h1        1 AFN      0.056367
     34 HM3         1.2570    6.0280    3.3940 h1        1 AFN      0.056367
     35 H31         5.6600    5.1760    3.5760 hc        1 AFN      0.084700
     36 H32         5.1120    5.9160    2.0230 hc        1 AFN      0.084700
     37 H2A1        7.3450    5.9730    1.2600 hc        1 AFN      0.082700
     38 H2A2        7.8940    5.2290    2.8170 hc        1 AFN      0.082700
@<TRIPOS>BOND
     1    1    2 1   
     2    1    6 1   
     3    1   25 1   
     4    1   26 1   
     5    2    3 1   
     6    2    4 1   
     7    2   27 1   
     8    3   28 1   
     9    4    5 1   
    10    4    7 1   
    11    4   29 1   
    12    5    9 ar  
    13    5   15 ar  
    14    6    7 1   
    15    7    8 1   
    16    7   30 1   
    17    8    9 1   
    18    9   10 ar  
    19   10   11 ar  
    20   10   31 1   
    21   11   12 1   
    22   11   14 ar  
    23   12   13 1   
    24   13   32 1   
    25   13   33 1   
    26   13   34 1   
    27   14   15 ar  
    28   14   20 1   
    29   15   16 1   
    30   16   17 1   
    31   17   18 2   
    32   17   19 1   
    33   19   20 2   
    34   19   23 1   
    35   20   21 1   
    36   21   22 1   
    37   21   35 1   
    38   21   36 1   
    39   22   23 1   
    40   22   37 1   
    41   22   38 1   
    42   23   24 2   
@<TRIPOS>SUBSTRUCTURE
     1 AFN         1 TEMP              0 ****  ****    0 ROOT
