@<TRIPOS>MOLECULE
AFN
   38    38     1     0     0
SMALL
bcc


@<TRIPOS>ATOM
      1 C8A        -4.0550   -2.2640   -1.8060 c3        1 AFN     -0.070000
      2 C9         -2.8690   -1.6880   -1.8620 c3        1 AFN      0.012000
      3 O9         -2.0310   -2.3600   -2.8560 oh        1 AFN     -0.300000
      4 C9A        -2.2280   -1.8460   -0.3990 c3        1 AFN     -0.113000
      5 C9B        -1.2670   -0.7000   -0.1350 c2        1 AFN     -0.239000
      6 O7         -4.4900   -2.1600   -0.3200 os        1 AFN     -0.263000
      7 C6A        -3.2220   -1.7180    0.4520 c3        1 AFN      0.124000
      8 O6A        -3.2910   -0.3290    0.8600 os        1 AFN     -0.199000
      9 C5A        -1.9790    0.2510    0.5880 c2        1 AFN      0.179000
     10 C5B        -1.3070    1.3880    1.1260 c1        1 AFN     -0.273000
     11 C4B         0.0800    1.5480    0.9250 c1        1 AFN      0.194000
     12 O4          0.4600    1.9700    2.2130 os        1 AFN     -0.207000
     13 CM          0.0990    3.3260    2.5150 c3        1 AFN     -0.081000
     14 C4A         0.8060    0.5810    0.1900 c1        1 AFN     -0.217000
     15 C10         0.1470   -0.5370   -0.3390 c1        1 AFN      0.220000
     16 O10         0.8850   -1.5550   -0.9590 o         1 AFN     -0.202000
     17 C11         2.2770   -1.4550   -1.0490 c1        1 AFN      0.376000
     18 O11         2.9370   -2.3990   -1.5120 o         1 AFN     -0.251000
     19 C12         2.9470   -0.3170   -0.5100 c1        1 AFN     -0.309000
     20 C3A         2.2240    0.6830    0.0980 c1        1 AFN      0.122000
     21 C3          3.1640    1.8540    0.3590 c3        1 AFN     -0.139000
     22 C2A         4.5920    1.3610    0.1980 c3        1 AFN     -0.219000
     23 C1          4.4170   -0.0900   -0.1980 c2        1 AFN      0.289000
     24 O1          5.3220   -0.9570   -0.2400 o         1 AFN     -0.258000
     25 H8A2       -3.9900   -3.1990   -2.0730 h1        1 AFN      0.110500
     26 H8A        -4.6670   -1.8080   -2.3580 h1        1 AFN      0.110500
     27 H9         -2.9660   -0.7340   -2.0890 h1        1 AFN      0.153000
     28 HO9        -1.5390   -2.9950   -2.4550 ho        1 AFN      0.200000
     29 H9A        -1.7850   -2.7120   -0.2980 hc        1 AFN      0.148000
     30 H6A        -3.0740   -2.3160    1.2580 h2        1 AFN      0.156000
     31 H5B        -1.8250    2.1000    1.5710 ha        1 AFN      0.169000
     32 HM1        -0.9030    3.4560    2.3560 h1        1 AFN      0.095333
     33 HM2         0.6100    3.9440    1.9300 h1        1 AFN      0.095333
     34 HM3         0.3070    3.5160    3.4470 h1        1 AFN      0.095333
     35 H31         3.0250    2.2030    1.3050 hc        1 AFN      0.123000
     36 H32         2.9900    2.5550   -0.2740 hc        1 AFN      0.123000
     37 H2A1        5.1730    1.5750    0.8960 hc        1 AFN      0.122000
     38 H2A2        5.0270    1.8300   -0.5530 hc        1 AFN      0.122000
@<TRIPOS>BOND
     1    1    2 1   
     2    1    6 1   
     3    1   25 1   
     4    1   26 1   
     5    2    3 1   
     6    2    4 1   
     7    2   27 1   
     8    3   28 1   
     9    4    5 1   
    10    4    7 1   
    11    4   29 1   
    12    5    9 1   
    13    5   15 1   
    14    6    7 1   
    15    7    8 1   
    16    7   30 1   
    17    8    9 1   
    18    9   10 1   
    19   10   31 1   
    20   11   12 1   
    21   11   14 1   
    22   12   13 1   
    23   13   32 1   
    24   13   33 1   
    25   13   34 1   
    26   14   20 1   
    27   15   16 1   
    28   17   18 1   
    29   17   19 1   
    30   19   23 1   
    31   20   21 1   
    32   21   22 1   
    33   21   35 1   
    34   21   36 1   
    35   22   23 1   
    36   22   37 1   
    37   22   38 1   
    38   23   24 1   
@<TRIPOS>SUBSTRUCTURE
     1 AFN         1 TEMP              0 ****  ****    0 ROOT
