@<TRIPOS>MOLECULE
AFO
   44    44     1     0     0
SMALL
bcc


@<TRIPOS>ATOM
      1 C1          2.2610   -0.7300   -0.6400 c3        1 AFO      0.303900
      2 O1          1.0220   -0.9210    0.0060 os        1 AFO     -0.439600
      3 C2          3.3410   -1.4490    0.2020 c3        1 AFO      0.083100
      4 O2          4.0920   -2.3510   -0.5830 oh        1 AFO     -0.592800
      5 C3          4.2910   -0.3210    0.6670 c3        1 AFO      0.124100
      6 O3          4.4870   -0.3540    2.0660 oh        1 AFO     -0.583800
      7 C4          3.5530    0.9870    0.3270 c3        1 AFO      0.104100
      8 O4          2.5080    0.6700   -0.6090 os        1 AFO     -0.450600
      9 C5          4.4700    2.0080   -0.3450 c3        1 AFO      0.130400
     10 O5          3.7870    3.2130   -0.6150 oh        1 AFO     -0.593800
     11 C1'        -0.0840   -0.3370   -0.6890 c3        1 AFO      0.137400
     12 C2'        -1.3170   -0.6340    0.1440 c3        1 AFO     -0.084400
     13 C3'        -2.5500   -0.0560   -0.5170 c3        1 AFO     -0.078400
     14 C4'        -3.7910   -0.3420    0.3010 c3        1 AFO     -0.078400
     15 C5'        -5.0260    0.2350   -0.3560 c3        1 AFO     -0.079400
     16 C6'        -6.2670   -0.0520    0.4610 c3        1 AFO     -0.079400
     17 C7'        -7.5040    0.5250   -0.1950 c3        1 AFO     -0.080400
     18 C8'        -8.7430    0.2410    0.6150 c3        1 AFO     -0.093100
     19 H1          2.2330   -1.0450   -1.7180 h2        1 AFO      0.072700
     20 H2          2.8720   -1.9710    1.0790 h1        1 AFO      0.084700
     21 HO2         3.5010   -3.0780   -0.8170 ho        1 AFO      0.413000
     22 H3          5.2750   -0.3960    0.1290 h1        1 AFO      0.070700
     23 HO3         4.9980   -1.1510    2.2550 ho        1 AFO      0.412000
     24 H4          3.0700    1.4260    1.2420 h1        1 AFO      0.094700
     25 H5          5.3000    2.2900    0.3560 h1        1 AFO      0.054200
     26 H5A         4.8930    1.5830   -1.2940 h1        1 AFO      0.054200
     27 HO5         3.0100    2.9860   -1.1420 ho        1 AFO      0.413000
     28 H1'         0.0820    0.7680   -0.7930 h1        1 AFO      0.036200
     29 H1'A       -0.1620   -0.7970   -1.7100 h1        1 AFO      0.036200
     30 H2'        -1.4270   -1.7430    0.2660 hc        1 AFO      0.054200
     31 H2'A       -1.1860   -0.1990    1.1690 hc        1 AFO      0.054200
     32 H3'        -2.4270    1.0530   -0.6380 hc        1 AFO      0.040700
     33 H3'A       -2.6670   -0.4910   -1.5440 hc        1 AFO      0.040700
     34 H4'        -3.9120   -1.4510    0.4240 hc        1 AFO      0.041700
     35 H4'A       -3.6720    0.0930    1.3290 hc        1 AFO      0.041700
     36 H5'        -4.9040    1.3430   -0.4780 hc        1 AFO      0.039700
     37 H5'A       -5.1440   -0.2000   -1.3840 hc        1 AFO      0.039700
     38 H6'        -6.3900   -1.1600    0.5840 hc        1 AFO      0.040200
     39 H6'A       -6.1500    0.3830    1.4890 hc        1 AFO      0.040200
     40 H7'        -7.3790    1.6330   -0.3180 hc        1 AFO      0.038200
     41 H7'A       -7.6190    0.0900   -1.2230 hc        1 AFO      0.038200
     42 H8'        -8.8980   -0.8590    0.7280 hc        1 AFO      0.032700
     43 H8'A       -8.6570    0.6890    1.6350 hc        1 AFO      0.032700
     44 H8'B       -9.6420    0.6750    0.1140 hc        1 AFO      0.032700
@<TRIPOS>BOND
     1    1    2 1   
     2    1    3 1   
     3    1    8 1   
     4    1   19 1   
     5    2   11 1   
     6    3    4 1   
     7    3    5 1   
     8    3   20 1   
     9    4   21 1   
    10    5    6 1   
    11    5    7 1   
    12    5   22 1   
    13    6   23 1   
    14    7    8 1   
    15    7    9 1   
    16    7   24 1   
    17    9   10 1   
    18    9   25 1   
    19    9   26 1   
    20   10   27 1   
    21   11   12 1   
    22   11   28 1   
    23   11   29 1   
    24   12   13 1   
    25   12   30 1   
    26   12   31 1   
    27   13   14 1   
    28   13   32 1   
    29   13   33 1   
    30   14   15 1   
    31   14   34 1   
    32   14   35 1   
    33   15   16 1   
    34   15   36 1   
    35   15   37 1   
    36   16   17 1   
    37   16   38 1   
    38   16   39 1   
    39   17   18 1   
    40   17   40 1   
    41   17   41 1   
    42   18   42 1   
    43   18   43 1   
    44   18   44 1   
@<TRIPOS>SUBSTRUCTURE
     1 AFO         1 TEMP              0 ****  ****    0 ROOT
