@<TRIPOS>MOLECULE
AFO
   44    44     1     0     0
SMALL
bcc


@<TRIPOS>ATOM
      1 C1          2.0590    0.8680    2.3640 c3        1 AFO      0.332900
      2 O1          1.7210    0.1610    1.1580 os        1 AFO     -0.435600
      3 C2          3.6330    1.1700    2.4040 c3        1 AFO      0.125100
      4 O2          3.9320    2.3950    1.6520 oh        1 AFO     -0.590800
      5 C3          3.9350    1.3300    3.6550 c3        1 AFO      0.083100
      6 O3          5.3080    0.8020    3.9270 oh        1 AFO     -0.588800
      7 C4          2.8900    0.5100    4.4200 c3        1 AFO      0.068100
      8 O4          1.8050    0.1410    3.3850 os        1 AFO     -0.446600
      9 C5          2.3290    1.2780    5.4650 c3        1 AFO      0.129400
     10 O5          1.6160    0.4220    6.3540 oh        1 AFO     -0.594800
     11 C1'         0.4420    0.5010    0.6290 c3        1 AFO      0.137400
     12 C2'         0.0320   -0.5400   -0.4360 c3        1 AFO     -0.084400
     13 C3'        -1.2450   -0.0280   -1.2140 c3        1 AFO     -0.078400
     14 C4'        -1.7060   -1.1180   -2.2220 c3        1 AFO     -0.078400
     15 C5'        -2.8470   -0.5550   -3.1130 c3        1 AFO     -0.079400
     16 C6'        -3.2540   -1.6180   -4.1620 c3        1 AFO     -0.079400
     17 C7'        -4.3550   -1.0530   -5.0610 c3        1 AFO     -0.080400
     18 C8'        -4.7770   -2.1270   -6.1040 c3        1 AFO     -0.092100
     19 H1          1.5540    1.7080    2.4150 h2        1 AFO      0.092700
     20 H2          4.1300    0.4150    2.0310 h1        1 AFO      0.095700
     21 HO2         4.7080    2.3020    1.2270 ho        1 AFO      0.416000
     22 H3          3.8770    2.2680    3.9010 h1        1 AFO      0.060700
     23 HO3         5.8020    1.4370    4.2830 ho        1 AFO      0.410000
     24 H4          3.2980   -0.3000    4.7810 h1        1 AFO      0.079700
     25 H5          3.0450    1.7360    5.9550 h1        1 AFO      0.051700
     26 H5A         1.7080    1.9480    5.0850 h1        1 AFO      0.051700
     27 HO5         1.3960    0.8790    7.1020 ho        1 AFO      0.416000
     28 H1'         0.4850    1.3960    0.2140 h1        1 AFO      0.035200
     29 H1'A       -0.2120    0.5070    1.3440 h1        1 AFO      0.035200
     30 H2'         0.7760   -0.6690   -1.0730 hc        1 AFO      0.055200
     31 H2'A       -0.1720   -1.3880   -0.0000 hc        1 AFO      0.055200
     32 H3'        -1.0230    0.7980   -1.7030 hc        1 AFO      0.040700
     33 H3'A       -1.9630    0.1530   -0.5780 hc        1 AFO      0.040700
     34 H4'        -0.9520   -1.3780   -2.7850 hc        1 AFO      0.041700
     35 H4'A       -2.0280   -1.8930   -1.7350 hc        1 AFO      0.041700
     36 H5'        -2.5320    0.2640   -3.5750 hc        1 AFO      0.039700
     37 H5'A       -3.6200   -0.3360   -2.5540 hc        1 AFO      0.039700
     38 H6'        -3.5780   -2.4050   -3.7130 hc        1 AFO      0.039700
     39 H6'A       -2.4770   -1.8510   -4.7070 hc        1 AFO      0.039700
     40 H7'        -5.1270   -0.8090   -4.5150 hc        1 AFO      0.038700
     41 H7'A       -4.0190   -0.2540   -5.5290 hc        1 AFO      0.038700
     42 H8'        -5.0880   -2.9420   -5.6320 hc        1 AFO      0.032700
     43 H8'A       -5.5030   -1.7750   -6.6600 hc        1 AFO      0.032700
     44 H8'B       -4.0020   -2.3520   -6.6780 hc        1 AFO      0.032700
@<TRIPOS>BOND
     1    1    2 1   
     2    1    3 1   
     3    1    8 1   
     4    1   19 1   
     5    2   11 1   
     6    3    4 1   
     7    3    5 1   
     8    3   20 1   
     9    4   21 1   
    10    5    6 1   
    11    5    7 1   
    12    5   22 1   
    13    6   23 1   
    14    7    8 1   
    15    7    9 1   
    16    7   24 1   
    17    9   10 1   
    18    9   25 1   
    19    9   26 1   
    20   10   27 1   
    21   11   12 1   
    22   11   28 1   
    23   11   29 1   
    24   12   13 1   
    25   12   30 1   
    26   12   31 1   
    27   13   14 1   
    28   13   32 1   
    29   13   33 1   
    30   14   15 1   
    31   14   34 1   
    32   14   35 1   
    33   15   16 1   
    34   15   36 1   
    35   15   37 1   
    36   16   17 1   
    37   16   38 1   
    38   16   39 1   
    39   17   18 1   
    40   17   40 1   
    41   17   41 1   
    42   18   42 1   
    43   18   43 1   
    44   18   44 1   
@<TRIPOS>SUBSTRUCTURE
     1 AFO         1 TEMP              0 ****  ****    0 ROOT
