@<TRIPOS>MOLECULE
AFP
   30    29     1     0     0
SMALL
bcc


@<TRIPOS>ATOM
      1 P1          1.4680    4.3220    0.3900 p4        1 AFP      1.699200
      2 O1P         1.6380    4.1870    1.8840 o         1 AFP     -0.943500
      3 O2P         0.5540    5.4850    0.0910 os        1 AFP     -1.256000
      4 O3P         2.8140    4.5620   -0.2500 o         1 AFP     -0.992300
      5 O1          0.8380    2.9940   -0.1910 os        1 AFP     -0.588200
      6 C1          1.4680    1.7680    0.1010 c3        1 AFP      0.202400
      7 C2          0.8360    0.6670   -0.7220 c3        1 AFP      0.275600
      8 O2          0.6570    1.0890   -2.0180 oh        1 AFP     -0.652800
      9 C3          1.5980   -0.4150   -0.6960 c3        1 AFP      0.134100
     10 O3          2.3850   -0.4540    0.5480 oh        1 AFP     -0.655800
     11 C4          0.6080   -1.6020   -0.7410 c3        1 AFP      0.135100
     12 O4          0.6430   -2.1860   -1.9330 oh        1 AFP     -0.666800
     13 C5         -0.8220   -0.9760   -0.4780 c3        1 AFP      0.077100
     14 O5         -0.5950    0.2330   -0.0700 os        1 AFP     -0.449600
     15 C6         -1.5540   -1.7650    0.5950 c3        1 AFP      0.229400
     16 O6         -2.8960   -1.3410    0.6570 os        1 AFP     -0.581200
     17 P6         -3.9390   -2.2500    1.4240 p5        1 AFP      1.330900
     18 O4P        -4.1660   -3.5230    0.6450 o         1 AFP     -0.946833
     19 O5P        -5.2470   -1.5060    1.5660 o         1 AFP     -0.946833
     20 O6P        -3.4010   -2.5870    2.7950 o         1 AFP     -0.946833
     21 H11         1.3630    1.5660    1.0540 h1        1 AFP      0.017700
     22 H12         2.4210    1.8320   -0.1160 h1        1 AFP      0.017700
     23 HO2        -0.0320    1.6510   -2.0540 ho        1 AFP      0.428000
     24 H3          2.1890   -0.4340   -1.4750 h1        1 AFP      0.037700
     25 HO3         3.1550   -0.8750    0.3980 ho        1 AFP      0.477000
     26 H4          0.8270   -2.2500   -0.0400 h1        1 AFP      0.037700
     27 HO4         1.1800   -2.8950   -1.9000 ho        1 AFP      0.480000
     28 H5         -1.3440   -0.9630   -1.3050 h1        1 AFP      0.054700
     29 H61        -1.5230   -2.7190    0.3770 h1        1 AFP     -0.003300
     30 H62        -1.1230   -1.6140    1.4630 h1        1 AFP     -0.003300
@<TRIPOS>BOND
     1    1    2 1   
     2    1    4 2   
     3    1    5 1   
     4    5    6 1   
     5    6    7 1   
     6    6   21 1   
     7    6   22 1   
     8    7    8 1   
     9    7    9 1   
    10    7   14 1   
    11    8   23 1   
    12    9   10 1   
    13    9   11 1   
    14    9   24 1   
    15   10   25 1   
    16   11   12 1   
    17   11   13 1   
    18   11   26 1   
    19   12   27 1   
    20   13   14 1   
    21   13   15 1   
    22   13   28 1   
    23   15   16 1   
    24   15   29 1   
    25   15   30 1   
    26   16   17 1   
    27   17   18 1   
    28   17   19 1   
    29   17   20 1   
@<TRIPOS>SUBSTRUCTURE
     1 AFP         1 TEMP              0 ****  ****    0 ROOT
