@<TRIPOS>MOLECULE
AFP
   30    30     1     0     0
SMALL
bcc


@<TRIPOS>ATOM
      1 P1         -0.1980   -0.0140    4.9550 p5        1 AFP      1.326900
      2 O1P         0.8040    0.9680    5.5010 o         1 AFP     -0.940500
      3 O2P        -1.6090    0.1890    5.4440 o         1 AFP     -0.940500
      4 O3P         0.2610   -1.4490    4.9030 o         1 AFP     -0.940500
      5 O1         -0.3070    0.4290    3.2710 os        1 AFP     -0.579200
      6 C1          0.2700   -0.4230    2.3620 c3        1 AFP      0.211400
      7 C2          0.8290    0.3640    1.1360 c3        1 AFP      0.274600
      8 O2          1.0000    1.7380    1.3950 oh        1 AFP     -0.646800
      9 C3          2.1750   -0.1530    0.5330 c3        1 AFP      0.112100
     10 O3          2.6040   -1.3960    1.0550 oh        1 AFP     -0.617800
     11 C4          1.9170   -0.2600   -0.9910 c3        1 AFP      0.115100
     12 O4          2.9620    0.3740   -1.6930 oh        1 AFP     -0.668800
     13 C5          0.5530    0.4280   -1.2030 c3        1 AFP      0.074100
     14 O5         -0.1280    0.3330    0.0650 os        1 AFP     -0.447600
     15 C6         -0.3050   -0.2170   -2.3110 c3        1 AFP      0.227400
     16 O6         -0.3280    0.5590   -3.4490 os        1 AFP     -0.581200
     17 P6          0.4430   -0.1100   -4.8340 p5        1 AFP      1.331900
     18 O4P        -0.2070   -1.4610   -4.9950 o         1 AFP     -0.945167
     19 O5P         0.1280    0.8820   -5.9240 o         1 AFP     -0.945167
     20 O6P         1.8860   -0.1470   -4.3790 o         1 AFP     -0.945167
     21 H11        -0.4860   -1.1500    1.9450 h1        1 AFP      0.015700
     22 H12         1.1100   -0.9940    2.8510 h1        1 AFP      0.015700
     23 HO2         0.3990    1.9650    2.1220 ho        1 AFP      0.442000
     24 H3          3.0090    0.5610    0.7570 h1        1 AFP      0.080700
     25 HO3         1.8250   -1.9640    1.1050 ho        1 AFP      0.401000
     26 H4          1.8680   -1.3420   -1.2930 h1        1 AFP      0.029700
     27 HO4         2.7100    0.3320   -2.6430 ho        1 AFP      0.487000
     28 H5          0.7120    1.5150   -1.4350 h1        1 AFP      0.055700
     29 H61         0.0850   -1.2480   -2.5450 h1        1 AFP     -0.001300
     30 H62        -1.3560   -0.3150   -1.9060 h1        1 AFP     -0.001300
@<TRIPOS>BOND
     1    1    2 1   
     2    1    3 1   
     3    1    4 1   
     4    1    5 1   
     5    5    6 1   
     6    6    7 1   
     7    6   21 1   
     8    6   22 1   
     9    7    8 1   
    10    7    9 1   
    11    7   14 1   
    12    8   23 1   
    13    9   10 1   
    14    9   11 1   
    15    9   24 1   
    16   10   25 1   
    17   11   12 1   
    18   11   13 1   
    19   11   26 1   
    20   12   27 1   
    21   13   14 1   
    22   13   15 1   
    23   13   28 1   
    24   15   16 1   
    25   15   29 1   
    26   15   30 1   
    27   16   17 1   
    28   17   18 1   
    29   17   19 1   
    30   17   20 1   
@<TRIPOS>SUBSTRUCTURE
     1 AFP         1 TEMP              0 ****  ****    0 ROOT
