@<TRIPOS>MOLECULE
AFQ
   51    54     1     0     0
SMALL
bcc


@<TRIPOS>ATOM
      1 C2         -3.4640    2.7420    0.5510 c         1 AFQ      0.719100
      2 O16        -4.6060    2.9420    1.0060 o         1 AFQ     -0.632500
      3 N3         -2.6520    3.8560    0.2900 n         1 AFQ     -0.504400
      4 C4         -1.3610    3.6840   -0.2610 cc        1 AFQ      0.654800
      5 N17        -0.6600    4.8640   -0.6290 nh        1 AFQ     -0.880800
      6 N5         -0.8090    2.4890   -0.4910 nd        1 AFQ     -0.671100
      7 C6         -1.5590    1.3350   -0.2510 ca        1 AFQ      0.202400
      8 C10        -0.9780    0.0680   -0.5310 ca        1 AFQ     -0.040300
      9 C18         0.3910   -0.0690   -1.0990 c3        1 AFQ     -0.025100
     10 C19         1.4330   -0.0840    0.0250 c3        1 AFQ      0.167800
     11 N20         2.7840   -0.2800   -0.4640 n3        1 AFQ     -0.823200
     12 C21         3.7420   -0.4860    0.6050 c3        1 AFQ      0.169800
     13 C22         5.1090   -0.9610    0.1120 c3        1 AFQ     -0.068700
     14 C26         6.0640   -1.1790    1.2860 c3        1 AFQ     -0.073900
     15 C25         7.4500   -0.7600    0.8140 c3        1 AFQ     -0.079900
     16 C24         7.2800    0.0020   -0.4940 c3        1 AFQ     -0.079900
     17 C23         5.7910    0.0460   -0.8110 c3        1 AFQ     -0.073900
     18 C9         -1.7440   -1.0690   -0.2590 ca        1 AFQ      0.138400
     19 N11        -1.4260   -2.4330   -0.4280 nc        1 AFQ     -0.623100
     20 C12        -2.5280   -3.1190   -0.0020 cd        1 AFQ      0.609700
     21 N14        -2.6100   -4.5200    0.1200 nh        1 AFQ     -0.773200
     22 C15        -3.8970   -5.1360   -0.0590 c3        1 AFQ      0.165100
     23 N13        -3.6170   -2.2560    0.3610 na        1 AFQ     -0.283300
     24 C8         -3.0960   -0.9490    0.2710 ca        1 AFQ     -0.115200
     25 C7         -3.6650    0.2850    0.5320 ca        1 AFQ     -0.052000
     26 C1         -2.8840    1.4170    0.2740 ca        1 AFQ     -0.199600
     27 HN3        -3.0450    4.7650    0.3980 hn        1 AFQ      0.336500
     28 HN17       -0.6920    5.5860    0.0590 hn        1 AFQ      0.410300
     29 HN1A        0.2650    4.6880   -0.9640 hn        1 AFQ      0.410300
     30 H18         0.4590   -1.0200   -1.6930 hc        1 AFQ      0.066200
     31 H18A        0.6120    0.7740   -1.8060 hc        1 AFQ      0.066200
     32 H19         1.4090    0.9090    0.5570 h1        1 AFQ      0.034700
     33 H19A        1.1330   -0.8760    0.7750 h1        1 AFQ      0.034700
     34 HN20        2.8150   -1.0420   -1.1160 hn        1 AFQ      0.353800
     35 H21         3.8620    0.5010    1.1370 h1        1 AFQ      0.028700
     36 H21A        3.3740   -1.2330    1.3710 h1        1 AFQ      0.028700
     37 H22         4.9840   -1.9340   -0.4380 hc        1 AFQ      0.044700
     38 H26         5.7520   -0.5600    2.1650 hc        1 AFQ      0.044700
     39 H26A        6.0540   -2.2490    1.6100 hc        1 AFQ      0.044700
     40 H25         7.9500   -0.1210    1.5840 hc        1 AFQ      0.038200
     41 H25A        8.0980   -1.6590    0.6590 hc        1 AFQ      0.038200
     42 H24         7.6950    1.0370   -0.4080 hc        1 AFQ      0.038200
     43 H24A        7.8400   -0.5110   -1.3170 hc        1 AFQ      0.038200
     44 H23         5.5970   -0.2060   -1.8820 hc        1 AFQ      0.044700
     45 H23A        5.3850    1.0740   -0.6320 hc        1 AFQ      0.044700
     46 HN14       -1.8700   -4.9810   -0.3770 hn        1 AFQ      0.425800
     47 H15        -4.3950   -4.8550   -1.0260 h1        1 AFQ      0.046367
     48 H15A       -3.7560   -6.2490   -0.0340 h1        1 AFQ      0.046367
     49 H15B       -4.5730   -4.8450    0.7880 h1        1 AFQ      0.046367
     50 HN13       -4.3120   -2.5100    1.0180 hn        1 AFQ      0.295700
     51 H7         -4.6860    0.4000    0.9270 ha        1 AFQ      0.162000
@<TRIPOS>BOND
     1    1    2 2   
     2    1    3 1   
     3    1   26 1   
     4    3    4 1   
     5    3   27 1   
     6    4    5 1   
     7    4    6 2   
     8    5   28 1   
     9    5   29 1   
    10    6    7 1   
    11    7    8 ar  
    12    7   26 ar  
    13    8    9 1   
    14    8   18 ar  
    15    9   10 1   
    16    9   30 1   
    17    9   31 1   
    18   10   11 1   
    19   10   32 1   
    20   10   33 1   
    21   11   12 1   
    22   11   34 1   
    23   12   13 1   
    24   12   35 1   
    25   12   36 1   
    26   13   14 1   
    27   13   17 1   
    28   13   37 1   
    29   14   15 1   
    30   14   38 1   
    31   14   39 1   
    32   15   16 1   
    33   15   40 1   
    34   15   41 1   
    35   16   17 1   
    36   16   42 1   
    37   16   43 1   
    38   17   44 1   
    39   17   45 1   
    40   18   19 1   
    41   18   24 ar  
    42   19   20 2   
    43   20   21 1   
    44   20   23 1   
    45   21   22 1   
    46   21   46 1   
    47   22   47 1   
    48   22   48 1   
    49   22   49 1   
    50   23   24 1   
    51   23   50 1   
    52   24   25 ar  
    53   25   26 ar  
    54   25   51 1   
@<TRIPOS>SUBSTRUCTURE
     1 AFQ         1 TEMP              0 ****  ****    0 ROOT
