@<TRIPOS>MOLECULE
AFQ
   54    57     1     0     0
SMALL
bcc


@<TRIPOS>ATOM
      1 C2         -0.1830    0.0230   -0.2690 c         1 AFQ      0.714100
      2 O16        -0.8230    0.0750   -1.3170 o         1 AFQ     -0.475500
      3 N3          1.2240   -0.1790   -0.3530 n         1 AFQ     -0.496400
      4 C4          1.9650   -0.2180    0.8230 cc        1 AFQ      0.588800
      5 N17         3.4450   -0.4550    0.6770 n4        1 AFQ     -0.808600
      6 N5          1.5080   -0.0680    2.0560 nd        1 AFQ     -0.608100
      7 C6          0.1210    0.1060    2.2390 ca        1 AFQ      0.174400
      8 C10        -0.4040    0.2160    3.5440 ca        1 AFQ      0.008700
      9 C18         0.4270    0.1230    4.7780 c3        1 AFQ     -0.057100
     10 C19         0.6980    1.5140    5.3600 c3        1 AFQ      0.107800
     11 N20         1.4150    1.4630    6.6660 n4        1 AFQ     -0.766000
     12 C21         1.6880    2.8340    7.2170 c3        1 AFQ      0.113800
     13 C22         2.4540    2.7720    8.5350 c3        1 AFQ     -0.105700
     14 C26         2.6970    4.1930    9.0580 c3        1 AFQ     -0.081400
     15 C25         4.0830    4.1940    9.6880 c3        1 AFQ     -0.080900
     16 C24         4.7630    2.8800    9.3280 c3        1 AFQ     -0.080900
     17 C23         3.8290    2.1200    8.3940 c3        1 AFQ     -0.081400
     18 C9         -1.8070    0.3490    3.6650 ca        1 AFQ      0.090400
     19 N11        -2.6070    0.4430    4.8160 nc        1 AFQ     -0.521100
     20 C12        -3.8890    0.5080    4.3510 cd        1 AFQ      0.463700
     21 N14        -5.0740    0.5940    5.2170 n4        1 AFQ     -0.686000
     22 C15        -5.9290   -0.6240    5.1320 c3        1 AFQ      0.078100
     23 N13        -3.9770    0.4720    2.9400 na        1 AFQ     -0.225300
     24 C8         -2.6600    0.3700    2.4890 ca        1 AFQ     -0.038200
     25 C7         -2.1280    0.2780    1.1960 ca        1 AFQ     -0.011000
     26 C1         -0.7510    0.1460    1.0960 ca        1 AFQ     -0.133600
     27 HN3         1.6270   -0.2920   -1.2650 hn        1 AFQ      0.380500
     28 HN17        3.6030   -1.3650    0.2190 hn        1 AFQ      0.496133
     29 HN1A        3.8630    0.2960    0.1070 hn        1 AFQ      0.496133
     30 H18         1.4000   -0.3980    4.5670 hc        1 AFQ      0.093200
     31 H18A       -0.1210   -0.5110    5.5320 hc        1 AFQ      0.093200
     32 H19        -0.2760    2.0590    5.5250 hx        1 AFQ      0.109700
     33 H19A        1.3270    2.1160    4.6430 hx        1 AFQ      0.109700
     34 HN20        0.8580    0.9350    7.3480 hn        1 AFQ      0.454800
     35 H21         0.6980    3.3500    7.3700 hx        1 AFQ      0.106700
     36 H21A        2.2850    3.4010    6.4460 hx        1 AFQ      0.106700
     37 H22         1.8490    2.2070    9.2970 hc        1 AFQ      0.076700
     38 H26         2.6480    4.9390    8.2250 hc        1 AFQ      0.048950
     39 H26A        1.9130    4.4710    9.8070 hc        1 AFQ      0.048950
     40 H25         4.6790    5.0650    9.3160 hc        1 AFQ      0.075200
     41 H25A        4.0060    4.3010   10.8010 hc        1 AFQ      0.075200
     42 H24         4.9600    2.2770   10.2520 hc        1 AFQ      0.075200
     43 H24A        5.7510    3.0600    8.8340 hc        1 AFQ      0.075200
     44 H23         4.1990    2.2000    7.3400 hc        1 AFQ      0.048950
     45 H23A        3.7910    1.0360    8.6660 hc        1 AFQ      0.048950
     46 HN14       -4.7520    0.7150    6.1940 hn        1 AFQ      0.491800
     47 H15        -6.7780   -0.5080    5.8650 hx        1 AFQ      0.130033
     48 H15A       -6.3440   -0.7320    4.0940 hx        1 AFQ      0.130033
     49 H15B       -5.3220   -1.5330    5.3970 hx        1 AFQ      0.130033
     50 HN13       -4.7930    0.5050    2.3740 hn        1 AFQ      0.358700
     51 H7         -2.7630    0.3010    0.2890 ha        1 AFQ      0.215000
     52 H173        3.8980   -0.4650    1.6030 hn        1 AFQ      0.496133
     53 H202        2.3140    0.9740    6.5560 hn        1 AFQ      0.454800
     54 H142       -5.6210    1.4300    4.9530 hn        1 AFQ      0.491800
@<TRIPOS>BOND
     1    1    2 2   
     2    1    3 1   
     3    1   26 1   
     4    3    4 1   
     5    3   27 1   
     6    4    5 1   
     7    4    6 2   
     8    5   28 1   
     9    5   29 1   
    10    5   52 1   
    11    6    7 1   
    12    7    8 ar  
    13    7   26 ar  
    14    8    9 1   
    15    8   18 ar  
    16    9   10 1   
    17    9   30 1   
    18    9   31 1   
    19   10   11 1   
    20   10   32 1   
    21   10   33 1   
    22   11   12 1   
    23   11   34 1   
    24   11   53 1   
    25   12   13 1   
    26   12   35 1   
    27   12   36 1   
    28   13   14 1   
    29   13   17 1   
    30   13   37 1   
    31   14   15 1   
    32   14   38 1   
    33   14   39 1   
    34   15   16 1   
    35   15   40 1   
    36   15   41 1   
    37   16   17 1   
    38   16   42 1   
    39   16   43 1   
    40   17   44 1   
    41   17   45 1   
    42   18   19 1   
    43   18   24 ar  
    44   19   20 2   
    45   20   21 1   
    46   20   23 1   
    47   21   22 1   
    48   21   46 1   
    49   21   54 1   
    50   22   47 1   
    51   22   48 1   
    52   22   49 1   
    53   23   24 1   
    54   23   50 1   
    55   24   25 ar  
    56   25   26 ar  
    57   25   51 1   
@<TRIPOS>SUBSTRUCTURE
     1 AFQ         1 TEMP              0 ****  ****    0 ROOT
