@<TRIPOS>MOLECULE
AFQ
   51    47     1     0     0
SMALL
bcc


@<TRIPOS>ATOM
      1 C2          0.4660   -0.9340   -5.5420 c1        1 AFQ      0.356000
      2 O16        -0.1420   -1.0130   -6.5930 o         1 AFQ     -0.357000
      3 N3          1.8770   -0.9420   -5.5400 n2        1 AFQ     -0.344000
      4 C4          2.5930   -0.9220   -4.2970 c2        1 AFQ      0.208000
      5 N17         4.0290   -0.8970   -4.2990 n3        1 AFQ     -0.319000
      6 N5          1.8680   -0.8920   -3.0410 n1        1 AFQ     -0.244000
      7 C6          0.4010   -0.8820   -3.0380 c1        1 AFQ      0.064000
      8 C10        -0.3060   -0.8860   -1.8080 c2        1 AFQ     -0.033000
      9 C18         0.3950   -1.1700   -0.4600 c3        1 AFQ     -0.111000
     10 C19         0.6560    0.1640    0.2770 c3        1 AFQ     -0.068000
     11 N20         1.1730   -0.1100    1.6100 n3        1 AFQ     -0.302000
     12 C21         1.4830    1.1470    2.2800 c3        1 AFQ     -0.066000
     13 C22         1.6170    0.8990    3.8250 c3        1 AFQ     -0.108000
     14 C26         0.8650    2.1070    4.6600 c3        1 AFQ     -0.152500
     15 C25         1.4290    2.1320    5.8660 c3        1 AFQ     -0.158500
     16 C24         2.8660    1.5680    5.6520 c3        1 AFQ     -0.158500
     17 C23         2.8650    0.9380    4.1770 c3        1 AFQ     -0.152500
     18 C9         -1.7240   -0.9100   -1.8060 c1        1 AFQ     -0.001000
     19 N11        -2.6330   -0.8540   -0.7950 n1        1 AFQ     -0.196000
     20 C12        -3.8830   -0.8400   -1.3500 c1        1 AFQ      0.131000
     21 N14        -5.0290   -1.1340   -0.5070 n2        1 AFQ     -0.258000
     22 C15        -6.2920   -0.4720   -0.7480 c3        1 AFQ     -0.110000
     23 N13        -3.7430   -0.8880   -2.7100 n2        1 AFQ     -0.239000
     24 C8         -2.4140   -0.9310   -2.9950 c1        1 AFQ     -0.071000
     25 C7         -1.7060   -0.9280   -4.2280 c1        1 AFQ     -0.051000
     26 C1         -0.2900   -0.9030   -4.2310 c1        1 AFQ     -0.179000
     27 HN3         2.3330   -1.0290   -6.3280 hn        1 AFQ      0.250000
     28 HN17        4.4900   -0.9090   -3.5050 hn        1 AFQ      0.205500
     29 HN1A        4.4860   -0.8370   -5.0940 hn        1 AFQ      0.205500
     30 H18        -0.1770   -1.7410    0.0920 hc        1 AFQ      0.106000
     31 H18A        1.2500   -1.6250   -0.6250 hc        1 AFQ      0.106000
     32 H19         1.3090    0.6910   -0.2240 h1        1 AFQ      0.074000
     33 H19A       -0.1790    0.6650    0.3490 h1        1 AFQ      0.074000
     34 HN20        0.5450   -0.5660    2.0930 hn        1 AFQ      0.150000
     35 H21         0.7660    1.7900    2.1140 h1        1 AFQ      0.067500
     36 H21A        2.3280    1.5040    1.9320 h1        1 AFQ      0.067500
     37 H22         1.2280    0.0360    4.0620 hc        1 AFQ      0.084000
     38 H26        -0.0900    1.9160    4.7400 hc        1 AFQ      0.083750
     39 H26A        1.0010    2.9660    4.2060 hc        1 AFQ      0.083750
     40 H25         0.9280    1.5630    6.4890 hc        1 AFQ      0.077750
     41 H25A        1.4710    3.0560    6.2040 hc        1 AFQ      0.077750
     42 H24         3.0590    0.8770    6.3150 hc        1 AFQ      0.077750
     43 H24A        3.5260    2.2910    5.7120 hc        1 AFQ      0.077750
     44 H23         3.3740    1.5080    3.5630 hc        1 AFQ      0.083750
     45 H23A        3.2410    0.0350    4.1930 hc        1 AFQ      0.083750
     46 HN14       -4.9640   -1.7700    0.1450 hn        1 AFQ      0.221000
     47 H15        -6.5820   -0.6470   -1.6690 h1        1 AFQ      0.085333
     48 H15A       -6.1850    0.4960   -0.6170 h1        1 AFQ      0.085333
     49 H15B       -6.9680   -0.8160   -0.1190 h1        1 AFQ      0.085333
     50 HN13       -4.4230   -0.8890   -3.3200 DU        1 AFQ      0.246000
     51 H7         -2.1920   -1.0140   -5.0680 ha        1 AFQ      0.163000
@<TRIPOS>BOND
     1    1    2 1   
     2    1   26 1   
     3    3    4 1   
     4    3   27 1   
     5    4    5 1   
     6    4    6 1   
     7    5   28 1   
     8    5   29 1   
     9    7    8 1   
    10    7   26 1   
    11    8    9 1   
    12    8   18 1   
    13    9   10 1   
    14    9   30 1   
    15    9   31 1   
    16   10   11 1   
    17   10   32 1   
    18   10   33 1   
    19   11   12 1   
    20   11   34 1   
    21   12   13 1   
    22   12   35 1   
    23   12   36 1   
    24   13   14 1   
    25   13   17 1   
    26   13   37 1   
    27   14   15 1   
    28   14   38 1   
    29   14   39 1   
    30   15   16 1   
    31   15   40 1   
    32   15   41 1   
    33   16   17 1   
    34   16   42 1   
    35   16   43 1   
    36   17   44 1   
    37   17   45 1   
    38   19   20 1   
    39   20   23 1   
    40   21   22 1   
    41   21   46 1   
    42   22   47 1   
    43   22   48 1   
    44   22   49 1   
    45   23   24 1   
    46   24   25 1   
    47   25   51 1   
@<TRIPOS>SUBSTRUCTURE
     1 AFQ         1 TEMP              0 ****  ****    0 ROOT
