@<TRIPOS>MOLECULE
AFQ
   53    56     1     0     0
SMALL
bcc


@<TRIPOS>ATOM
      1 C2         -0.8530   -0.4130   -0.3570 c         1 AFQ      0.724100
      2 O16        -1.8670   -0.5240   -1.0490 o         1 AFQ     -0.519500
      3 N3          0.4020   -0.5310   -1.0220 ns        1 AFQ     -0.504400
      4 C4          1.5660   -0.4020   -0.2660 cc        1 AFQ      0.544800
      5 N17         2.8720   -0.5460   -0.9990 nz        1 AFQ     -0.804600
      6 N5          1.6480   -0.1660    1.0310 nd        1 AFQ     -0.582100
      7 C6          0.4530   -0.0470    1.7630 ca        1 AFQ      0.169400
      8 C10         0.5120    0.1810    3.1600 ca        1 AFQ     -0.054300
      9 C18         1.7890    0.2470    3.9210 c3        1 AFQ     -0.042100
     10 C19         2.0150    1.5930    4.6120 c3        1 AFQ      0.115800
     11 N20         1.5550    1.6250    6.0290 ny        1 AFQ     -0.777000
     12 C21         1.8390    2.9400    6.6790 c3        1 AFQ      0.110800
     13 C22         1.4780    2.9390    8.1610 c3        1 AFQ     -0.097700
     14 C26         1.7540    4.3190    8.7660 c3        1 AFQ     -0.082400
     15 C25         2.2810    4.0810   10.1750 c3        1 AFQ     -0.080400
     16 C24         2.5720    2.5930   10.3200 c3        1 AFQ     -0.080400
     17 C23         2.3010    1.9380    8.9720 c3        1 AFQ     -0.082400
     18 C9         -0.7090    0.2750    3.8490 ca        1 AFQ      0.145400
     19 N11        -0.9500    0.4840    5.2100 nc        1 AFQ     -0.756100
     20 C12        -2.3320    0.4590    5.3520 cd        1 AFQ      0.718700
     21 N14        -3.0120    0.6830    6.5290 nu        1 AFQ     -0.795200
     22 C15        -4.4310    0.4840    6.6240 c3        1 AFQ      0.169100
     23 N13        -2.9830    0.2310    4.1080 na        1 AFQ     -0.284300
     24 C8         -1.9760    0.1270    3.1430 ca        1 AFQ     -0.058200
     25 C7         -2.0260   -0.0900    1.7730 ca        1 AFQ     -0.024000
     26 C1         -0.8060   -0.1720    1.0970 ca        1 AFQ     -0.168600
     27 HN3         0.4050   -0.7110   -2.0050 hn        1 AFQ      0.362500
     28 HN17        2.9260   -1.4820   -1.4210 hn        1 AFQ      0.486133
     29 HN1A        3.6580   -0.4270   -0.3430 hn        1 AFQ      0.486133
     30 H18         2.6750    0.0830    3.2490 hc        1 AFQ      0.090200
     31 H18A        1.8000   -0.6000    4.6650 hc        1 AFQ      0.090200
     32 H19         3.1180    1.8300    4.6110 hx        1 AFQ      0.101700
     33 H19A        1.4730    2.4110    4.0580 hx        1 AFQ      0.101700
     34 HN20        0.5330    1.4290    6.0630 hn        1 AFQ      0.468800
     35 H21         1.2420    3.7290    6.1400 hx        1 AFQ      0.101700
     36 H21A        2.9370    3.1650    6.5510 hx        1 AFQ      0.101700
     37 H22         0.3840    2.7040    8.2800 hc        1 AFQ      0.066700
     38 H26         0.8190    4.9320    8.7830 hc        1 AFQ      0.049700
     39 H26A        2.5110    4.8750    8.1580 hc        1 AFQ      0.049700
     40 H25         1.5260    4.4060   10.9350 hc        1 AFQ      0.067200
     41 H25A        3.2060    4.6860   10.3510 hc        1 AFQ      0.067200
     42 H24         3.6320    2.4200   10.6330 hc        1 AFQ      0.067200
     43 H24A        1.9170    2.1430   11.1090 hc        1 AFQ      0.067200
     44 H23         3.2700    1.7130    8.4570 hc        1 AFQ      0.049700
     45 H23A        1.7490    0.9740    9.1000 hc        1 AFQ      0.049700
     46 HN14       -2.4800    0.5960    7.3700 hn        1 AFQ      0.463800
     47 H15        -4.9650    1.1870    5.9280 h1        1 AFQ      0.072033
     48 H15A       -4.7270   -0.5730    6.3830 h1        1 AFQ      0.072033
     49 H15B       -4.7480    0.7180    7.6770 h1        1 AFQ      0.072033
     50 HN13       -3.9590    0.2140    3.9430 hn        1 AFQ      0.341700
     51 H7         -2.9770   -0.2010    1.2210 ha        1 AFQ      0.195000
     52 H173        2.9350    0.1710   -1.7330 hn        1 AFQ      0.486133
     53 H202        2.0270    0.8840    6.5610 hn        1 AFQ      0.468800
@<TRIPOS>BOND
     1    1    2 2   
     2    1    3 1   
     3    1   26 1   
     4    3    4 1   
     5    3   27 1   
     6    4    5 1   
     7    4    6 2   
     8    5   28 1   
     9    5   29 1   
    10    5   52 1   
    11    6    7 1   
    12    7    8 ar  
    13    7   26 ar  
    14    8    9 1   
    15    8   18 ar  
    16    9   10 1   
    17    9   30 1   
    18    9   31 1   
    19   10   11 1   
    20   10   32 1   
    21   10   33 1   
    22   11   12 1   
    23   11   34 1   
    24   11   53 1   
    25   12   13 1   
    26   12   35 1   
    27   12   36 1   
    28   13   14 1   
    29   13   17 1   
    30   13   37 1   
    31   14   15 1   
    32   14   38 1   
    33   14   39 1   
    34   15   16 1   
    35   15   40 1   
    36   15   41 1   
    37   16   17 1   
    38   16   42 1   
    39   16   43 1   
    40   17   44 1   
    41   17   45 1   
    42   18   19 1   
    43   18   24 ar  
    44   19   20 2   
    45   20   21 1   
    46   20   23 1   
    47   21   22 1   
    48   21   46 1   
    49   22   47 1   
    50   22   48 1   
    51   22   49 1   
    52   23   24 1   
    53   23   50 1   
    54   24   25 ar  
    55   25   26 ar  
    56   25   51 1   
@<TRIPOS>SUBSTRUCTURE
     1 AFQ         1 TEMP              0 ****  ****    0 ROOT
