@<TRIPOS>MOLECULE
AFQ
   53    56     1     0     0
SMALL
bcc


@<TRIPOS>ATOM
      1 C2         -0.7960   -0.3790   -0.3800 c         1 AFQ      0.724100
      2 O16        -1.8000   -0.4680   -1.0880 o         1 AFQ     -0.519500
      3 N3          0.4670   -0.5210   -1.0240 n         1 AFQ     -0.504400
      4 C4          1.6200   -0.4160   -0.2490 cc        1 AFQ      0.544800
      5 N17         2.9350   -0.5840   -0.9610 n4        1 AFQ     -0.804600
      6 N5          1.6860   -0.1840    1.0490 nd        1 AFQ     -0.582100
      7 C6          0.4820   -0.0430    1.7620 ca        1 AFQ      0.169400
      8 C10         0.5220    0.1800    3.1610 ca        1 AFQ     -0.054300
      9 C18         1.7880    0.2190    3.9420 c3        1 AFQ     -0.042100
     10 C19         2.0300    1.5600    4.6390 c3        1 AFQ      0.115800
     11 N20         1.5470    1.6020    6.0470 n4        1 AFQ     -0.777000
     12 C21         1.8470    2.9100    6.7020 c3        1 AFQ      0.110800
     13 C22         1.4580    2.9180    8.1770 c3        1 AFQ     -0.097700
     14 C26         1.7530    4.2910    8.7880 c3        1 AFQ     -0.082400
     15 C25         2.2470    4.0420   10.2070 c3        1 AFQ     -0.080400
     16 C24         2.5020    2.5480   10.3570 c3        1 AFQ     -0.080400
     17 C23         2.2420    1.8990    9.0040 c3        1 AFQ     -0.082400
     18 C9         -0.7080    0.2970    3.8290 ca        1 AFQ      0.145400
     19 N11        -0.9660    0.5080    5.1870 nc        1 AFQ     -0.756100
     20 C12        -2.3510    0.5100    5.3070 cd        1 AFQ      0.718700
     21 N14        -3.0450    0.7450    6.4730 nh        1 AFQ     -0.795200
     22 C15        -4.4700    0.5740    6.5440 c3        1 AFQ      0.169100
     23 N13        -2.9860    0.2970    4.0510 na        1 AFQ     -0.284300
     24 C8         -1.9650    0.1760    3.1030 ca        1 AFQ     -0.058200
     25 C7         -1.9980   -0.0370    1.7320 ca        1 AFQ     -0.024000
     26 C1         -0.7680   -0.1420    1.0760 ca        1 AFQ     -0.168600
     27 HN3         0.4820   -0.6990   -2.0070 hn        1 AFQ      0.362500
     28 HN17        2.9770   -1.5200   -1.3850 hn        1 AFQ      0.486133
     29 HN1A        3.0250    0.1340   -1.6920 hn        1 AFQ      0.486133
     30 H18         1.7690   -0.6280    4.6860 hc        1 AFQ      0.090200
     31 H18A        2.6820    0.0370    3.2860 hc        1 AFQ      0.090200
     32 H19         3.1390    1.7730    4.6570 hx        1 AFQ      0.101700
     33 H19A        1.5170    2.3900    4.0750 hx        1 AFQ      0.101700
     34 HN20        1.9930    0.8510    6.5870 hn        1 AFQ      0.468800
     35 H21         2.9520    3.1110    6.5960 hx        1 AFQ      0.101700
     36 H21A        1.2780    3.7130    6.1520 hx        1 AFQ      0.101700
     37 H22         0.3570    2.7080    8.2750 hc        1 AFQ      0.066700
     38 H26         0.8320    4.9260    8.7860 hc        1 AFQ      0.049700
     39 H26A        2.5340    4.8310    8.1940 hc        1 AFQ      0.049700
     40 H25         3.1810    4.6270   10.4010 hc        1 AFQ      0.067200
     41 H25A        1.4840    4.3840   10.9510 hc        1 AFQ      0.067200
     42 H24         3.5520    2.3520   10.6910 hc        1 AFQ      0.067200
     43 H24A        1.8220    2.1130   11.1330 hc        1 AFQ      0.067200
     44 H23         3.2160    1.6530    8.5080 hc        1 AFQ      0.049700
     45 H23A        1.6670    0.9480    9.1210 hc        1 AFQ      0.049700
     46 HN14       -2.5290    0.6460    7.3220 hn        1 AFQ      0.463800
     47 H15        -4.9780    1.2870    5.8410 h1        1 AFQ      0.072033
     48 H15A       -4.7820   -0.4770    6.2960 h1        1 AFQ      0.072033
     49 H15B       -4.7990    0.8120    7.5930 h1        1 AFQ      0.072033
     50 HN13       -3.9590    0.3000    3.8710 hn        1 AFQ      0.341700
     51 H7         -2.9410   -0.1290    1.1640 ha        1 AFQ      0.195000
     52 H173        3.7130   -0.4830   -0.2920 hn        1 AFQ      0.486133
     53 H202        0.5200    1.4270    6.0620 hn        1 AFQ      0.468800
@<TRIPOS>BOND
     1    1    2 2   
     2    1    3 1   
     3    1   26 1   
     4    3    4 1   
     5    3   27 1   
     6    4    5 1   
     7    4    6 2   
     8    5   28 1   
     9    5   29 1   
    10    5   52 1   
    11    6    7 1   
    12    7    8 ar  
    13    7   26 ar  
    14    8    9 1   
    15    8   18 ar  
    16    9   10 1   
    17    9   30 1   
    18    9   31 1   
    19   10   11 1   
    20   10   32 1   
    21   10   33 1   
    22   11   12 1   
    23   11   34 1   
    24   11   53 1   
    25   12   13 1   
    26   12   35 1   
    27   12   36 1   
    28   13   14 1   
    29   13   17 1   
    30   13   37 1   
    31   14   15 1   
    32   14   38 1   
    33   14   39 1   
    34   15   16 1   
    35   15   40 1   
    36   15   41 1   
    37   16   17 1   
    38   16   42 1   
    39   16   43 1   
    40   17   44 1   
    41   17   45 1   
    42   18   19 1   
    43   18   24 ar  
    44   19   20 2   
    45   20   21 1   
    46   20   23 1   
    47   21   22 1   
    48   21   46 1   
    49   22   47 1   
    50   22   48 1   
    51   22   49 1   
    52   23   24 1   
    53   23   50 1   
    54   24   25 ar  
    55   25   26 ar  
    56   25   51 1   
@<TRIPOS>SUBSTRUCTURE
     1 AFQ         1 TEMP              0 ****  ****    0 ROOT
