@<TRIPOS>MOLECULE
AFR
   21    21     1     0     0
SMALL
bcc


@<TRIPOS>ATOM
      1 F1          2.4600   -0.0800   -0.4330 f         1 AFR     -0.204300
      2 C5          1.1200   -0.0800   -0.4330 c3        1 AFR      0.342100
      3 C4          0.6410   -0.0800    0.9850 c3        1 AFR      0.111100
      4 O4          1.0320    1.1740    1.6060 oh        1 AFR     -0.589800
      5 C6          0.6330    1.1870   -1.1090 c3        1 AFR      0.099400
      6 O6          1.3770    1.4060   -2.2860 oh        1 AFR     -0.594800
      7 O5          0.6530   -1.2280   -1.2010 os        1 AFR     -0.418600
      8 C1         -0.8080   -1.4330   -1.1620 c3        1 AFR      0.038400
      9 C2         -1.2900   -1.4450    0.3120 c         1 AFR      0.516100
     10 O2         -2.3110   -2.0290    0.6120 o         1 AFR     -0.506100
     11 C3         -0.8410   -0.2340    1.1170 c3        1 AFR      0.004100
     12 O3         -1.2760   -0.3030    2.5260 oh        1 AFR     -0.598800
     13 H4          1.0740   -0.8130    1.4610 h1        1 AFR      0.082700
     14 H61        -0.3120    1.0930   -1.3350 h1        1 AFR      0.075700
     15 H62         0.7500    1.9440   -0.5050 h1        1 AFR      0.075700
     16 HO4         1.5420    1.0070    2.3130 ho        1 AFR      0.432000
     17 H3         -1.3030    0.5730    0.8170 h1        1 AFR      0.082700
     18 H6          1.1950    2.2150   -2.6050 ho        1 AFR      0.419000
     19 H11        -1.2900   -0.7950   -1.7220 h1        1 AFR      0.099200
     20 H12        -1.0450   -2.2740   -1.5960 h1        1 AFR      0.099200
     21 HO3        -2.0030    0.1930    2.6360 ho        1 AFR      0.435000
@<TRIPOS>BOND
     1    1    2 1   
     2    2    3 1   
     3    2    5 1   
     4    2    7 1   
     5    3    4 1   
     6    3   11 1   
     7    3   13 1   
     8    4   16 1   
     9    5    6 1   
    10    5   14 1   
    11    5   15 1   
    12    6   18 1   
    13    7    8 1   
    14    8    9 1   
    15    8   19 1   
    16    8   20 1   
    17    9   10 2   
    18    9   11 1   
    19   11   12 1   
    20   11   17 1   
    21   12   21 1   
@<TRIPOS>SUBSTRUCTURE
     1 AFR         1 TEMP              0 ****  ****    0 ROOT
