@<TRIPOS>MOLECULE
AFR
   21    21     1     0     0
SMALL
bcc


@<TRIPOS>ATOM
      1 F1          1.0760   -0.3880   -1.7650 f         1 AFR     -0.228300
      2 C5          1.0910   -0.1810   -0.4060 c3        1 AFR      0.330100
      3 C4          0.1860    0.9950    0.0490 c3        1 AFR      0.116100
      4 O4          0.6350    2.1500   -0.6300 oh        1 AFR     -0.585800
      5 C6          2.5350    0.0160    0.1340 c3        1 AFR      0.132400
      6 O6          2.5580   -0.0670    1.5360 oh        1 AFR     -0.584800
      7 O5          0.6360   -1.4070    0.1620 os        1 AFR     -0.433600
      8 C1         -0.7040   -1.7680   -0.1350 c3        1 AFR      0.039400
      9 C2         -1.6910   -0.6710    0.1700 c         1 AFR      0.517100
     10 O2         -2.7820   -0.8810    0.7030 o         1 AFR     -0.508100
     11 C3         -1.2870    0.7130   -0.2880 c3        1 AFR      0.002100
     12 O3         -2.0430    1.7470    0.3140 oh        1 AFR     -0.597800
     13 H4          0.3140    1.1210    1.1610 h1        1 AFR      0.088700
     14 H61         3.2060   -0.7490   -0.3350 h1        1 AFR      0.078200
     15 H62         2.8690    1.0580   -0.1180 h1        1 AFR      0.078200
     16 HO4         0.0500    2.8720   -0.3560 ho        1 AFR      0.432000
     17 H3         -1.4300    0.7700   -1.4080 h1        1 AFR      0.089700
     18 H6          2.3040   -0.9690    1.7780 ho        1 AFR      0.417000
     19 H11        -0.7910   -2.0390   -1.2230 h1        1 AFR      0.092200
     20 H12        -0.8870   -2.6740    0.5060 h1        1 AFR      0.092200
     21 HO3        -2.9080    1.3830    0.5550 ho        1 AFR      0.434000
@<TRIPOS>BOND
     1    1    2 1   
     2    2    3 1   
     3    2    5 1   
     4    2    7 1   
     5    3    4 1   
     6    3   11 1   
     7    3   13 1   
     8    4   16 1   
     9    5    6 1   
    10    5   14 1   
    11    5   15 1   
    12    6   18 1   
    13    7    8 1   
    14    8    9 1   
    15    8   19 1   
    16    8   20 1   
    17    9   10 2   
    18    9   11 1   
    19   11   12 1   
    20   11   17 1   
    21   12   21 1   
@<TRIPOS>SUBSTRUCTURE
     1 AFR         1 TEMP              0 ****  ****    0 ROOT
