@<TRIPOS>MOLECULE
AFS
   23    22     1     0     0
SMALL
bcc


@<TRIPOS>ATOM
      1 O1         -2.0800    1.4000   -0.9280 o         1 AFS     -0.743100
      2 N1         -4.2290    0.3470    0.4050 n3        1 AFS     -0.890800
      3 CA1        -2.9080   -0.2010    0.6880 c3        1 AFS      0.063500
      4 C1         -1.7540    0.5850   -0.0160 c         1 AFS      0.589100
      5 CB1        -2.7910   -1.6730    0.3070 c3        1 AFS     -0.088100
      6 N2         -0.5050    0.3130    0.4020 n         1 AFS     -0.435900
      7 CA2         0.7210    0.8450   -0.0930 c3        1 AFS     -0.105500
      8 CB2         1.1440    2.1760    0.4500 c3        1 AFS     -0.065100
      9 P           2.0640   -0.3190    0.5510 p5        1 AFS      1.192700
     10 O21         3.2990    0.5380    0.6380 o         1 AFS     -0.932833
     11 O22         1.4730   -0.7520    1.8800 o         1 AFS     -0.932833
     12 O23         2.0890   -1.3960   -0.4980 o         1 AFS     -0.932833
     13 H4         -2.7640   -0.1080    1.8060 h1        1 AFS      0.056700
     14 H5         -2.8380   -1.7960   -0.8020 hc        1 AFS      0.038033
     15 H6         -1.8120   -2.0740    0.6650 hc        1 AFS      0.038033
     16 H7         -3.6140   -2.2700    0.7680 hc        1 AFS      0.038033
     17 H8         -0.3600   -0.3290    1.1750 hn        1 AFS      0.354500
     18 H9          0.7260    0.8390   -1.2070 h1        1 AFS      0.049700
     19 H10         0.4430    3.0120    0.2000 hc        1 AFS      0.013700
     20 H11         1.2490    2.1100    1.5610 hc        1 AFS      0.013700
     21 H12         2.1580    2.3950    0.0310 hc        1 AFS      0.013700
     22 H1         -4.1780    1.3460    0.5160 hn        1 AFS      0.332800
     23 H2         -4.4420    0.1810   -0.5630 hn        1 AFS      0.332800
@<TRIPOS>BOND
     1    1    4 2   
     2    2    3 1   
     3    2   22 1   
     4    2   23 1   
     5    3    4 1   
     6    3    5 1   
     7    3   13 1   
     8    4    6 1   
     9    5   14 1   
    10    5   15 1   
    11    5   16 1   
    12    6    7 1   
    13    6   17 1   
    14    7    8 1   
    15    7    9 1   
    16    7   18 1   
    17    8   19 1   
    18    8   20 1   
    19    8   21 1   
    20    9   10 1   
    21    9   11 1   
    22    9   12 1   
@<TRIPOS>SUBSTRUCTURE
     1 AFS         1 TEMP              0 ****  ****    0 ROOT
