@<TRIPOS>MOLECULE
AFS
   23    21     1     0     0
SMALL
bcc


@<TRIPOS>ATOM
      1 O1         -1.6110   -0.1750   -0.7450 o         1 AFS     -0.743100
      2 N1          0.1040   -1.4350   -2.7010 n3        1 AFS     -0.890800
      3 CA1         0.3740   -0.2090   -2.0320 c3        1 AFS      0.063500
      4 C1         -0.3960   -0.1640   -0.7320 c         1 AFS      0.589100
      5 CB1        -0.0480    0.9470   -2.9080 c3        1 AFS     -0.088100
      6 N2          0.3000   -0.1280    0.5040 n         1 AFS     -0.435900
      7 CA2        -0.4230   -0.1260    1.7260 c3        1 AFS     -0.105500
      8 CB2         0.1030   -1.2220    2.6250 c3        1 AFS     -0.065100
      9 P          -0.2190    1.4800    2.5460 p4        1 AFS      1.561000
     10 O21        -1.0740    1.5220    3.7900 o         1 AFS     -0.930500
     11 O22         1.2300    1.6710    2.9250 os        1 AFS     -1.257000
     12 O23        -0.6430    2.5830    1.6070 o         1 AFS     -0.979300
     13 H1          0.2390   -1.3290   -3.6000 hn        1 AFS      0.332800
     14 H2          0.6640   -2.0870   -2.3830 hn        1 AFS      0.332800
     15 H4          1.3320   -0.1440   -1.8450 h1        1 AFS      0.056700
     16 H5          0.4790    0.9400   -3.7350 hc        1 AFS      0.038033
     17 H6          0.1020    1.7900   -2.4320 hc        1 AFS      0.038033
     18 H7         -1.0000    0.8610   -3.1270 hc        1 AFS      0.038033
     19 H8          1.2120   -0.1200    0.5140 hn        1 AFS      0.354500
     20 H9         -1.3710   -0.2800    1.5440 h1        1 AFS      0.049700
     21 H10         1.0550   -1.0710    2.8020 hc        1 AFS      0.013700
     22 H11        -0.0150   -2.0900    2.1850 hc        1 AFS      0.013700
     23 H12        -0.3920   -1.2150    3.4720 hc        1 AFS      0.013700
@<TRIPOS>BOND
     1    1    4 2   
     2    2    3 1   
     3    2   13 1   
     4    2   14 1   
     5    3    4 1   
     6    3    5 1   
     7    3   15 1   
     8    4    6 1   
     9    5   16 1   
    10    5   17 1   
    11    5   18 1   
    12    6    7 1   
    13    6   19 1   
    14    7    8 1   
    15    7    9 1   
    16    7   20 1   
    17    8   21 1   
    18    8   22 1   
    19    8   23 1   
    20    9   10 1   
    21    9   12 2   
@<TRIPOS>SUBSTRUCTURE
     1 AFS         1 TEMP              0 ****  ****    0 ROOT
