@<TRIPOS>MOLECULE
AFT
   35    39     1     0     0
SMALL
bcc


@<TRIPOS>ATOM
      1 C8A         0.3540    0.5450   -0.0640 c2        1 AFT      0.023100
      2 C9B         0.8120   -2.1060    1.8790 ca        1 AFT     -0.234300
      3 O7          1.6570    0.7510    0.4100 os        1 AFT     -0.331900
      4 C6A         1.7920    0.0550    1.6510 c3        1 AFT      0.295900
      5 O6A         2.7850   -0.9640    1.3820 os        1 AFT     -0.307900
      6 C5A         2.1810   -2.1970    1.5310 ca        1 AFT      0.221100
      7 C5B         2.8570   -3.4050    1.3790 ca        1 AFT     -0.269000
      8 C4B         2.1170   -4.5750    1.5930 ca        1 AFT      0.236100
      9 O4          2.6610   -5.8320    1.4740 os        1 AFT     -0.324900
     10 CM          4.0380   -5.9010    1.1020 c3        1 AFT      0.108700
     11 C4A         0.7430   -4.5440    1.9540 ca        1 AFT     -0.225800
     12 C10         0.0960   -3.2800    2.0930 ca        1 AFT      0.264100
     13 O10        -1.2220   -3.1500    2.4380 os        1 AFT     -0.338200
     14 C11        -2.0190   -4.2940    2.6730 c         1 AFT      0.762800
     15 O11        -3.1570   -3.9480    2.9630 o         1 AFT     -0.533500
     16 C12        -1.3850   -5.5780    2.5360 cc        1 AFT     -0.348400
     17 C3A        -0.0590   -5.6990    2.1900 cd        1 AFT      0.131600
     18 C3          0.3590   -7.1340    2.1120 c3        1 AFT     -0.056200
     19 C2A        -0.9020   -7.9320    2.4620 c3        1 AFT     -0.190400
     20 C9A         0.4140   -0.6690    1.9310 c3        1 AFT      0.016800
     21 C1         -1.9980   -6.9080    2.7270 c         1 AFT      0.597300
     22 C9         -0.4020   -0.2240    0.7480 c2        1 AFT     -0.256200
     23 O1         -3.1550   -7.1740    3.0360 o         1 AFT     -0.498100
     24 H8A1        0.1650    1.0570   -1.0080 h4        1 AFT      0.188000
     25 H91C       -1.4380   -0.5300    0.6210 ha        1 AFT      0.178000
     26 H9A        -0.0470   -0.3810    2.9040 hc        1 AFT      0.103700
     27 H6A         2.2090    0.7450    2.4180 h2        1 AFT      0.119700
     28 H5B         3.9180   -3.4150    1.1030 ha        1 AFT      0.168000
     29 HM1C        4.2350   -7.0030    1.0650 h1        1 AFT      0.055367
     30 HM2C        4.1960   -5.4360    0.0990 h1        1 AFT      0.055367
     31 HM3C        4.6770   -5.4090    1.8740 h1        1 AFT      0.055367
     32 H31C        1.1940   -7.3350    2.8310 hc        1 AFT      0.083700
     33 H32C        0.7350   -7.3740    1.0850 hc        1 AFT      0.083700
     34 H2A1       -1.2080   -8.6010    1.6210 hc        1 AFT      0.082700
     35 H2A2       -0.7480   -8.5620    3.3720 hc        1 AFT      0.082700
@<TRIPOS>BOND
     1    1    3 1   
     2    1   22 2   
     3    1   24 1   
     4    2    6 ar  
     5    2   12 ar  
     6    2   20 1   
     7    3    4 1   
     8    4    5 1   
     9    4   20 1   
    10    4   27 1   
    11    5    6 1   
    12    6    7 ar  
    13    7    8 ar  
    14    7   28 1   
    15    8    9 1   
    16    8   11 ar  
    17    9   10 1   
    18   10   29 1   
    19   10   30 1   
    20   10   31 1   
    21   11   12 ar  
    22   11   17 1   
    23   12   13 1   
    24   13   14 1   
    25   14   15 2   
    26   14   16 1   
    27   16   17 2   
    28   16   21 1   
    29   17   18 1   
    30   18   19 1   
    31   18   32 1   
    32   18   33 1   
    33   19   21 1   
    34   19   34 1   
    35   19   35 1   
    36   20   22 1   
    37   20   26 1   
    38   21   23 2   
    39   22   25 1   
@<TRIPOS>SUBSTRUCTURE
     1 AFT         1 TEMP              0 ****  ****    0 ROOT
