@<TRIPOS>MOLECULE
AFT
   35    39     1     0     0
SMALL
bcc


@<TRIPOS>ATOM
      1 C8A        -4.0560    1.8020    1.2580 c2        1 AFT      0.023100
      2 C9B        -1.5480    0.3500   -0.3600 ca        1 AFT     -0.234300
      3 O7         -4.7100    0.7760    0.5630 os        1 AFT     -0.331900
      4 C6A        -3.9200    0.4400   -0.5790 c3        1 AFT      0.295900
      5 O6A        -3.5020   -0.9250   -0.3340 os        1 AFT     -0.307900
      6 C5A        -2.1260   -0.9340   -0.2200 ca        1 AFT      0.221100
      7 C5B        -1.3820   -2.0930   -0.0160 ca        1 AFT     -0.269000
      8 C4B         0.0110   -1.9480    0.0480 ca        1 AFT      0.236100
      9 O4          0.8610   -3.0100    0.2470 os        1 AFT     -0.324900
     10 CM          0.2570   -4.2930    0.4060 c3        1 AFT      0.108700
     11 C4A         0.6450   -0.6850   -0.0950 ca        1 AFT     -0.225800
     12 C10        -0.1630    0.4730   -0.3000 ca        1 AFT      0.264100
     13 O10         0.3570    1.7300   -0.4490 os        1 AFT     -0.338200
     14 C11         1.7550    1.9380   -0.4020 c         1 AFT      0.762800
     15 O11         1.9970    3.1290   -0.5550 o         1 AFT     -0.533500
     16 C12         2.5870    0.7840   -0.1950 cc        1 AFT     -0.348400
     17 C3A         2.0550   -0.4760   -0.0470 cd        1 AFT      0.131600
     18 C3          3.1250   -1.5030    0.1560 c3        1 AFT     -0.056200
     19 C2A         4.4390   -0.7160    0.1170 c3        1 AFT     -0.190400
     20 C9A        -2.6330    1.3590   -0.5400 c3        1 AFT      0.016800
     21 C1          4.0610    0.7420   -0.1080 c         1 AFT      0.597300
     22 C9         -2.8970    2.1900    0.6840 c2        1 AFT     -0.256200
     23 O1          4.8540    1.6740   -0.1950 o         1 AFT     -0.498100
     24 H8A1       -4.6050    2.1270    2.1430 h4        1 AFT      0.188000
     25 H91C       -2.2040    2.9620    1.0110 ha        1 AFT      0.178000
     26 H9A        -2.5030    1.9760   -1.4590 hc        1 AFT      0.103700
     27 H6A        -4.5630    0.4430   -1.4870 h2        1 AFT      0.119700
     28 H5B        -1.8830   -3.0620    0.0900 ha        1 AFT      0.168000
     29 HM1C       -0.3070   -4.5770   -0.5150 h1        1 AFT      0.055367
     30 HM2C        1.1350   -4.9700    0.5590 h1        1 AFT      0.055367
     31 HM3C       -0.4120   -4.3030    1.3010 h1        1 AFT      0.055367
     32 H31C        2.9790   -2.0270    1.1350 hc        1 AFT      0.083700
     33 H32C        3.0770   -2.2790   -0.6510 hc        1 AFT      0.083700
     34 H2A1        5.0030   -0.8140    1.0780 hc        1 AFT      0.082700
     35 H2A2        5.1010   -1.0650   -0.7140 hc        1 AFT      0.082700
@<TRIPOS>BOND
     1    1    3 1   
     2    1   22 2   
     3    1   24 1   
     4    2    6 ar  
     5    2   12 ar  
     6    2   20 1   
     7    3    4 1   
     8    4    5 1   
     9    4   20 1   
    10    4   27 1   
    11    5    6 1   
    12    6    7 ar  
    13    7    8 ar  
    14    7   28 1   
    15    8    9 1   
    16    8   11 ar  
    17    9   10 1   
    18   10   29 1   
    19   10   30 1   
    20   10   31 1   
    21   11   12 ar  
    22   11   17 1   
    23   12   13 1   
    24   13   14 1   
    25   14   15 2   
    26   14   16 1   
    27   16   17 2   
    28   16   21 1   
    29   17   18 1   
    30   18   19 1   
    31   18   32 1   
    32   18   33 1   
    33   19   21 1   
    34   19   34 1   
    35   19   35 1   
    36   20   22 1   
    37   20   26 1   
    38   21   23 2   
    39   22   25 1   
@<TRIPOS>SUBSTRUCTURE
     1 AFT         1 TEMP              0 ****  ****    0 ROOT
