@<TRIPOS>MOLECULE
AFT
   35    39     1     0     0
SMALL
bcc


@<TRIPOS>ATOM
      1 C8A         0.3600    0.5430   -0.0550 c2        1 AFT      0.023100
      2 C9B         0.8170   -2.1120    1.8830 ca        1 AFT     -0.234300
      3 O7          1.6640    0.7470    0.4190 os        1 AFT     -0.331900
      4 C6A         1.7990    0.0490    1.6580 c3        1 AFT      0.295900
      5 O6A         2.7910   -0.9710    1.3860 os        1 AFT     -0.307900
      6 C5A         2.1860   -2.2040    1.5330 ca        1 AFT      0.221100
      7 C5B         2.8600   -3.4120    1.3790 ca        1 AFT     -0.269000
      8 C4B         2.1180   -4.5820    1.5910 ca        1 AFT      0.236100
      9 O4          2.6620   -5.8390    1.4700 os        1 AFT     -0.324900
     10 CM          4.0380   -5.9090    1.0960 c3        1 AFT      0.108700
     11 C4A         0.7460   -4.5500    1.9530 ca        1 AFT     -0.225800
     12 C10         0.0990   -3.2850    2.0950 ca        1 AFT      0.264100
     13 O10        -1.2180   -3.1550    2.4410 os        1 AFT     -0.338200
     14 C11        -2.0160   -4.2980    2.6750 c         1 AFT      0.762800
     15 O11        -3.1540   -3.9510    2.9670 o         1 AFT     -0.533500
     16 C12        -1.3840   -5.5820    2.5350 cc        1 AFT     -0.348400
     17 C3A        -0.0580   -5.7040    2.1880 cd        1 AFT      0.131600
     18 C3          0.3580   -7.1400    2.1080 c3        1 AFT     -0.056200
     19 C2A        -0.9030   -7.9360    2.4570 c3        1 AFT     -0.190400
     20 C9A         0.4210   -0.6750    1.9370 c3        1 AFT      0.016800
     21 C1         -1.9980   -6.9120    2.7240 c         1 AFT      0.597300
     22 C9         -0.3960   -0.2260    0.7560 c2        1 AFT     -0.256200
     23 O1         -3.1550   -7.1780    3.0340 o         1 AFT     -0.498100
     24 H8A1        0.1720    1.0570   -0.9980 h4        1 AFT      0.188000
     25 H91C       -1.4330   -0.5310    0.6290 ha        1 AFT      0.178000
     26 H9A        -0.0390   -0.3880    2.9110 hc        1 AFT      0.103700
     27 H6A         2.2180    0.7360    2.4260 h2        1 AFT      0.119700
     28 H5B         3.9210   -3.4230    1.1020 ha        1 AFT      0.168000
     29 HM1C        4.6780   -5.4200    1.8690 h1        1 AFT      0.055367
     30 HM2C        4.2340   -7.0110    1.0570 h1        1 AFT      0.055367
     31 HM3C        4.1950   -5.4420    0.0940 h1        1 AFT      0.055367
     32 H31C        1.1940   -7.3430    2.8250 hc        1 AFT      0.083700
     33 H32C        0.7330   -7.3780    1.0800 hc        1 AFT      0.083700
     34 H2A1       -1.2110   -8.6040    1.6150 hc        1 AFT      0.082700
     35 H2A2       -0.7500   -8.5680    3.3660 hc        1 AFT      0.082700
@<TRIPOS>BOND
     1    1    3 1   
     2    1   22 2   
     3    1   24 1   
     4    2    6 ar  
     5    2   12 ar  
     6    2   20 1   
     7    3    4 1   
     8    4    5 1   
     9    4   20 1   
    10    4   27 1   
    11    5    6 1   
    12    6    7 ar  
    13    7    8 ar  
    14    7   28 1   
    15    8    9 1   
    16    8   11 ar  
    17    9   10 1   
    18   10   29 1   
    19   10   30 1   
    20   10   31 1   
    21   11   12 ar  
    22   11   17 1   
    23   12   13 1   
    24   13   14 1   
    25   14   15 2   
    26   14   16 1   
    27   16   17 2   
    28   16   21 1   
    29   17   18 1   
    30   18   19 1   
    31   18   32 1   
    32   18   33 1   
    33   19   21 1   
    34   19   34 1   
    35   19   35 1   
    36   20   22 1   
    37   20   26 1   
    38   21   23 2   
    39   22   25 1   
@<TRIPOS>SUBSTRUCTURE
     1 AFT         1 TEMP              0 ****  ****    0 ROOT
