@<TRIPOS>MOLECULE
AFT
   35    35     1     0     0
SMALL
bcc


@<TRIPOS>ATOM
      1 C8A         0.2870    1.4350   -4.8140 c1        1 AFT     -0.021000
      2 C9B         0.5830    0.8650   -1.4800 c1        1 AFT     -0.227000
      3 O7          1.7000    1.4350   -4.8140 o         1 AFT     -0.216000
      4 C6A         2.0380    1.4350   -3.3370 c3        1 AFT      0.113000
      5 O6A         2.4400    0.2230   -2.9140 os        1 AFT     -0.191000
      6 C5A         1.5810   -0.1390   -1.6220 c1        1 AFT      0.176000
      7 C5B         1.6870   -1.1580   -0.6720 c1        1 AFT     -0.269000
      8 C4B         0.8090   -1.1910    0.4220 c1        1 AFT      0.191000
      9 O4          1.0910   -2.4370    1.0070 os        1 AFT     -0.208000
     10 CM          2.3410   -2.4930    1.6580 c3        1 AFT     -0.081000
     11 C4A        -0.1890   -0.1880    0.5660 c1        1 AFT     -0.214000
     12 C10        -0.2970    0.8300   -0.3810 c1        1 AFT      0.219000
     13 O10        -1.3160    1.8380   -0.2410 os        1 AFT     -0.203000
     14 C11        -2.1560    1.8390    0.8910 c2        1 AFT      0.378000
     15 O11        -2.9410    2.7500    1.0640 o         1 AFT     -0.258000
     16 C12        -2.0670    0.7080    1.9070 c2        1 AFT     -0.310000
     17 C3A        -1.1500   -0.2230    1.7720 c2        1 AFT      0.124000
     18 C3         -1.1180   -1.2420    2.8290 c3        1 AFT     -0.139000
     19 C2A        -2.5270   -0.8760    3.6850 c3        1 AFT     -0.219000
     20 C9A         0.7070    1.7610   -2.6410 c3        1 AFT     -0.034000
     21 C1         -2.9450    0.5490    3.0150 c2        1 AFT      0.289000
     22 C9         -0.2280    1.4640   -3.5770 c2        1 AFT     -0.252000
     23 O1         -3.5820    1.4320    3.5540 o         1 AFT     -0.259000
     24 H8A1       -0.2010    0.9940   -5.5350 ha        1 AFT      0.188000
     25 H91C       -0.9810    0.8870   -3.3480 ha        1 AFT      0.178000
     26 H9A         0.6640    2.7000   -2.3770 hc        1 AFT      0.143000
     27 H6A         2.7090    2.1140   -3.1340 h2        1 AFT      0.159000
     28 H5B         2.3470   -1.8670   -0.7900 ha        1 AFT      0.168000
     29 HM1C        2.2560   -3.0070    2.4830 h1        1 AFT      0.094667
     30 HM2C        2.9930   -2.9220    1.0730 h1        1 AFT      0.094667
     31 HM3C        2.6390   -1.5870    1.8680 h1        1 AFT      0.094667
     32 H31C       -0.2500   -1.2870    3.2720 hc        1 AFT      0.123000
     33 H32C       -1.2070   -2.1510    2.4860 hc        1 AFT      0.123000
     34 H2A1       -2.5030   -0.9570    4.6580 hc        1 AFT      0.122000
     35 H2A2       -3.2150   -1.5320    3.4640 hc        1 AFT      0.122000
@<TRIPOS>BOND
     1    1   22 1   
     2    1   24 1   
     3    2   12 1   
     4    2   20 1   
     5    3    4 1   
     6    4    5 1   
     7    4   20 1   
     8    4   27 1   
     9    5    6 1   
    10    6    7 1   
    11    7   28 1   
    12    8    9 1   
    13    8   11 1   
    14    9   10 1   
    15   10   29 1   
    16   10   30 1   
    17   10   31 1   
    18   11   17 1   
    19   12   13 1   
    20   13   14 1   
    21   14   15 1   
    22   14   16 1   
    23   16   17 1   
    24   16   21 1   
    25   17   18 1   
    26   18   19 1   
    27   18   32 1   
    28   18   33 1   
    29   19   21 1   
    30   19   34 1   
    31   19   35 1   
    32   20   22 1   
    33   20   26 1   
    34   21   23 1   
    35   22   25 1   
@<TRIPOS>SUBSTRUCTURE
     1 AFT         1 TEMP              0 ****  ****    0 ROOT
