@<TRIPOS>MOLECULE
AFX
   30    32     1     0     0
SMALL
bcc


@<TRIPOS>ATOM
      1 C1          0.0360   -0.2510   -0.0920 c3        1 AFX      0.186600
      2 F1          1.6020    0.2710    2.5310 f         1 AFX     -0.125500
      3 N1          1.2150    1.8720    8.3510 nb        1 AFX     -0.793000
      4 O1          1.3460   -0.7690   -0.1730 oh        1 AFX     -0.583800
      5 C2          1.1040    0.6340    7.8040 ca        1 AFX      0.695900
      6 N3          0.6360    0.2520    6.5900 nb        1 AFX     -0.736000
      7 C4          0.2200    1.3100    5.8340 ca        1 AFX      0.477800
      8 C5          0.2760    2.6970    6.2790 ca        1 AFX     -0.238200
      9 C6          0.7990    2.9440    7.5930 ca        1 AFX      0.769200
     10 N6          0.8810    4.2210    8.0750 nh        1 AFX     -0.958500
     11 N7         -0.2190    3.5460    5.2750 nc        1 AFX     -0.528100
     12 C8         -0.5620    2.7360    4.2680 cd        1 AFX      0.400700
     13 N9         -0.3200    1.3600    4.5360 na        1 AFX     -0.271000
     14 C1'        -0.6010    0.2430    3.6940 c3        1 AFX      0.076200
     15 C2'        -2.0550    0.2180    3.1050 c3        1 AFX      0.032100
     16 O2'        -2.7640   -0.7800    3.8050 oh        1 AFX     -0.570800
     17 C3'        -1.8850   -0.1200    1.6190 c         1 AFX      0.548300
     18 O3'        -2.8140   -0.4080    0.8700 o         1 AFX     -0.497100
     19 C4'        -0.4440   -0.0610    1.2970 ce        1 AFX     -0.280400
     20 C5'         0.2750    0.1600    2.4320 c2        1 AFX      0.159300
     21 H1         -0.6050   -1.0140   -0.6180 h1        1 AFX      0.070700
     22 H1A        -0.0320    0.7290   -0.6430 h1        1 AFX      0.070700
     23 HO1         1.9420   -0.1350    0.2450 ho        1 AFX      0.404000
     24 HN6         0.5740    4.9700    7.5070 hn        1 AFX      0.451800
     25 HN6A        1.2400    4.4000    8.9790 hn        1 AFX      0.451800
     26 H8         -0.9850    3.0620    3.3100 h5        1 AFX      0.072800
     27 H1'        -0.4460   -0.7080    4.2960 h1        1 AFX      0.148700
     28 H2'        -2.5760    1.2090    3.2110 h1        1 AFX      0.078700
     29 HO2'       -3.5760   -0.9500    3.3050 ho        1 AFX      0.428000
     30 H2          1.4540   -0.1950    8.4570 h5        1 AFX      0.056100
@<TRIPOS>BOND
     1    1    4 1   
     2    1   19 1   
     3    1   21 1   
     4    1   22 1   
     5    2   20 1   
     6    3    5 ar  
     7    3    9 ar  
     8    4   23 1   
     9    5    6 ar  
    10    5   30 1   
    11    6    7 ar  
    12    7    8 ar  
    13    7   13 1   
    14    8    9 ar  
    15    8   11 1   
    16    9   10 1   
    17   10   24 1   
    18   10   25 1   
    19   11   12 2   
    20   12   13 1   
    21   12   26 1   
    22   13   14 1   
    23   14   15 1   
    24   14   20 1   
    25   14   27 1   
    26   15   16 1   
    27   15   17 1   
    28   15   28 1   
    29   16   29 1   
    30   17   18 2   
    31   17   19 1   
    32   19   20 2   
@<TRIPOS>SUBSTRUCTURE
     1 AFX         1 TEMP              0 ****  ****    0 ROOT
