@<TRIPOS>MOLECULE
AFX
   30    32     1     0     0
SMALL
bcc


@<TRIPOS>ATOM
      1 C1         -4.2150   -1.1250    0.1890 c3        1 AFX      0.190600
      2 F1         -1.3520   -1.7320    1.1910 f         1 AFX     -0.111500
      3 N1          4.4860    0.1210    0.9470 nb        1 AFX     -0.793000
      4 O1         -3.9090   -2.4400   -0.2550 oh        1 AFX     -0.597800
      5 C2          3.5090    0.5570    1.7830 ca        1 AFX      0.693900
      6 N3          2.1690    0.6360    1.5970 nb        1 AFX     -0.736000
      7 C4          1.7860    0.2000    0.3610 ca        1 AFX      0.476800
      8 C5          2.7130   -0.2990   -0.6460 ca        1 AFX     -0.236200
      9 C6          4.1070   -0.3200   -0.3020 ca        1 AFX      0.768200
     10 N6          5.0350   -0.7620   -1.2050 nh        1 AFX     -0.958500
     11 N7          2.0120   -0.6750   -1.8040 nc        1 AFX     -0.530100
     12 C8          0.7270   -0.4260   -1.5330 cd        1 AFX      0.406700
     13 N9          0.5130    0.1060   -0.2310 na        1 AFX     -0.271000
     14 C1'        -0.7220    0.5210    0.3490 c3        1 AFX      0.070200
     15 C2'        -1.5370    1.5460   -0.5160 c3        1 AFX      0.031100
     16 O2'        -1.4120    2.8040    0.1080 oh        1 AFX     -0.572800
     17 C3'        -2.9810    1.0300   -0.5010 c         1 AFX      0.549300
     18 O3'        -3.9420    1.6700   -0.9210 o         1 AFX     -0.505100
     19 C4'        -2.9820   -0.3100    0.1130 ce        1 AFX     -0.256400
     20 C5'        -1.7360   -0.6170    0.5720 c2        1 AFX      0.190300
     21 H1         -5.0110   -0.6730   -0.4660 h1        1 AFX      0.047700
     22 H1A        -4.5870   -1.1590    1.2510 h1        1 AFX      0.047700
     23 HO1        -4.7230   -2.9510   -0.1710 ho        1 AFX      0.409000
     24 HN6         5.9930   -0.8090   -0.9640 hn        1 AFX      0.450800
     25 HN6A        4.7270   -1.1070   -2.0790 hn        1 AFX      0.450800
     26 H8         -0.1130   -0.6120   -2.2130 h5        1 AFX      0.076800
     27 H1'        -0.5030    1.0030    1.3540 h1        1 AFX      0.145700
     28 H2'        -1.1660    1.5980   -1.5760 h1        1 AFX      0.080700
     29 HO2'       -2.0630    3.3870   -0.3070 ho        1 AFX      0.427000
     30 H2          3.8690    0.9020    2.7770 h5        1 AFX      0.055100
@<TRIPOS>BOND
     1    1    4 1   
     2    1   19 1   
     3    1   21 1   
     4    1   22 1   
     5    2   20 1   
     6    3    5 ar  
     7    3    9 ar  
     8    4   23 1   
     9    5    6 ar  
    10    5   30 1   
    11    6    7 ar  
    12    7    8 ar  
    13    7   13 1   
    14    8    9 ar  
    15    8   11 1   
    16    9   10 1   
    17   10   24 1   
    18   10   25 1   
    19   11   12 2   
    20   12   13 1   
    21   12   26 1   
    22   13   14 1   
    23   14   15 1   
    24   14   20 1   
    25   14   27 1   
    26   15   16 1   
    27   15   17 1   
    28   15   28 1   
    29   16   29 1   
    30   17   18 2   
    31   17   19 1   
    32   19   20 2   
@<TRIPOS>SUBSTRUCTURE
     1 AFX         1 TEMP              0 ****  ****    0 ROOT
