@<TRIPOS>MOLECULE
AFX
   30    32     1     0     0
SMALL
bcc


@<TRIPOS>ATOM
      1 C1          0.0710   -0.4090   -0.0140 c3        1 AFX      0.190600
      2 F1          1.6310    0.0720    2.6140 f         1 AFX     -0.111500
      3 N1          1.0810    1.8530    8.4540 nb        1 AFX     -0.793000
      4 O1          1.0620    0.5670   -0.3110 oh        1 AFX     -0.597800
      5 C2          0.9000    0.6080    7.9430 ca        1 AFX      0.693900
      6 N3          0.4780    0.2180    6.7150 nb        1 AFX     -0.736000
      7 C4          0.2030    1.2760    5.8970 ca        1 AFX      0.476800
      8 C5          0.3490    2.6710    6.2960 ca        1 AFX     -0.236200
      9 C6          0.8050    2.9250    7.6340 ca        1 AFX      0.768200
     10 N6          0.9510    4.2100    8.0810 nv        1 AFX     -0.958500
     11 N7         -0.0040    3.5170    5.2330 nc        1 AFX     -0.530100
     12 C8         -0.3490    2.7000    4.2320 cd        1 AFX      0.406700
     13 N9         -0.2450    1.3200    4.5640 na        1 AFX     -0.271000
     14 C1'        -0.5790    0.2000    3.7470 c3        1 AFX      0.070200
     15 C2'        -2.0270    0.2420    3.1440 c3        1 AFX      0.031100
     16 O2'        -2.7970   -0.7000    3.8570 oh        1 AFX     -0.572800
     17 C3'        -1.8630   -0.1400    1.6680 c         1 AFX      0.549300
     18 O3'        -2.8020   -0.3910    0.9160 o         1 AFX     -0.505100
     19 C4'        -0.4210   -0.1680    1.3610 ce        1 AFX     -0.256400
     20 C5'         0.3050    0.0380    2.4950 c2        1 AFX      0.190300
     21 H1         -0.7820   -0.3270   -0.7440 h1        1 AFX      0.047700
     22 H1A         0.5180   -1.4400   -0.0850 h1        1 AFX      0.047700
     23 HO1         1.3800    0.3680   -1.2000 ho        1 AFX      0.409000
     24 HN6         1.2940    4.3940    8.9910 hn        1 AFX      0.450800
     25 HN6A        0.7810    4.9570    7.4560 hn        1 AFX      0.450800
     26 H8         -0.6720    3.0200    3.2340 h5        1 AFX      0.076800
     27 H1'        -0.4830   -0.7420    4.3730 h1        1 AFX      0.145700
     28 H2'        -2.4920    1.2620    3.2210 h1        1 AFX      0.080700
     29 HO2'       -3.6230   -0.8150    3.3660 ho        1 AFX      0.427000
     30 H2          1.1360   -0.2210    8.6460 h5        1 AFX      0.055100
@<TRIPOS>BOND
     1    1    4 1   
     2    1   19 1   
     3    1   21 1   
     4    1   22 1   
     5    2   20 1   
     6    3    5 ar  
     7    3    9 ar  
     8    4   23 1   
     9    5    6 ar  
    10    5   30 1   
    11    6    7 ar  
    12    7    8 ar  
    13    7   13 1   
    14    8    9 ar  
    15    8   11 1   
    16    9   10 1   
    17   10   24 1   
    18   10   25 1   
    19   11   12 2   
    20   12   13 1   
    21   12   26 1   
    22   13   14 1   
    23   14   15 1   
    24   14   20 1   
    25   14   27 1   
    26   15   16 1   
    27   15   17 1   
    28   15   28 1   
    29   16   29 1   
    30   17   18 2   
    31   17   19 1   
    32   19   20 2   
@<TRIPOS>SUBSTRUCTURE
     1 AFX         1 TEMP              0 ****  ****    0 ROOT
