@<TRIPOS>MOLECULE
AFX
   30    25     1     0     0
SMALL
bcc


@<TRIPOS>ATOM
      1 C1          0.3340   -0.2280   -3.9220 c3        1 AFX      0.036000
      2 F1          0.3900   -1.6700   -1.5450 f         1 AFX     -0.049000
      3 N1          0.3200   -1.3820    4.0270 n1        1 AFX     -0.267000
      4 O1          0.5500   -1.6710   -3.9430 oh        1 AFX     -0.325000
      5 C2         -0.6710   -1.8730    3.2290 c1        1 AFX      0.031000
      6 N3         -0.8140   -1.4110    1.9540 n1        1 AFX     -0.210000
      7 C4          0.0380   -0.4520    1.4730 c1        1 AFX     -0.080000
      8 C5          1.0230    0.0360    2.2650 c1        1 AFX     -0.080000
      9 C6          1.1650   -0.4350    3.5570 c1        1 AFX      0.247000
     10 N6          1.9770   -0.0790    4.6620 n3        1 AFX     -0.356000
     11 N7          1.7200    0.9680    1.5450 n1        1 AFX     -0.145500
     12 C8          1.1630    1.0490    0.3200 c1        1 AFX     -0.049000
     13 N9          0.1200    0.1710    0.2710 n1        1 AFX     -0.145500
     14 C1'        -0.9360   -0.1050   -0.4760 c2        1 AFX      0.046000
     15 C2'        -1.4710    1.3530   -0.9990 c3        1 AFX     -0.030000
     16 O2'        -2.7860    1.3870   -0.9670 oh        1 AFX     -0.300000
     17 C3'        -0.8640    1.4050   -2.4130 c2        1 AFX      0.241000
     18 O3'        -1.1200    2.2250   -3.2740 o         1 AFX     -0.266000
     19 C4'        -0.3700    0.1600   -2.6170 c2        1 AFX     -0.233000
     20 C5'        -0.4260   -0.6410   -1.6120 c2        1 AFX      0.132000
     21 H1          1.2080    0.2420   -3.9800 h1        1 AFX      0.087000
     22 H1A        -0.2190    0.0240   -4.6740 h1        1 AFX      0.087000
     23 HO1         0.7720   -1.9290   -4.7720 ho        1 AFX      0.208000
     24 H2         -1.2800   -2.5550    3.5710 ha        1 AFX      0.192000
     25 HN6         1.8940   -0.5450    5.4720 hn        1 AFX      0.246000
     26 HN6A        2.6320    0.5860    4.5690 hn        1 AFX      0.246000
     27 H8          1.4840    1.6480   -0.4510 DU        1 AFX      0.206000
     28 H1'        -1.5230   -0.6710    0.1320 ha        1 AFX      0.185000
     29 H2'        -1.2450    2.1380   -0.4850 h1        1 AFX      0.120000
     30 HO2'       -3.0660    2.2530   -0.9180 ho        1 AFX      0.226000
@<TRIPOS>BOND
     1    1    4 1   
     2    1   19 1   
     3    1   21 1   
     4    1   22 1   
     5    2   20 1   
     6    3    9 1   
     7    4   23 1   
     8    5    6 1   
     9    5   24 1   
    10    7    8 1   
    11    9   10 1   
    12   10   25 1   
    13   10   26 1   
    14   11   12 1   
    15   12   13 1   
    16   14   15 1   
    17   14   20 1   
    18   14   28 1   
    19   15   16 1   
    20   15   17 1   
    21   15   29 1   
    22   16   30 1   
    23   17   18 1   
    24   17   19 1   
    25   19   20 1   
@<TRIPOS>SUBSTRUCTURE
     1 AFX         1 TEMP              0 ****  ****    0 ROOT
