@<TRIPOS>MOLECULE
AFX
   31    33     1     0     0
SMALL
bcc


@<TRIPOS>ATOM
      1 C1          0.0220   -0.3640   -0.0490 c3        1 AFX      0.182600
      2 F1          1.6250    0.1920    2.5530 f         1 AFX     -0.109500
      3 N1          1.0210    1.8460    8.4730 nb        1 AFX     -0.676000
      4 O1          1.1030    0.5260   -0.2830 oh        1 AFX     -0.602800
      5 C2          0.8260    0.5880    7.9790 ca        1 AFX      0.677900
      6 N3          0.4190    0.2170    6.7370 nb        1 AFX     -0.611000
      7 C4          0.1810    1.2560    5.9010 ca        1 AFX      0.468800
      8 C5          0.3520    2.6720    6.3040 ca        1 AFX     -0.137200
      9 C6          0.7820    2.8770    7.6260 ca        1 AFX      0.523200
     10 N6          0.9780    4.2620    8.0940 n4        1 AFX     -0.816300
     11 N7          0.0400    3.5180    5.2360 nc        1 AFX     -0.579100
     12 C8         -0.3030    2.6920    4.2300 cd        1 AFX      0.508700
     13 N9         -0.2400    1.3190    4.5620 na        1 AFX     -0.239000
     14 C1'        -0.5630    0.1950    3.7230 c3        1 AFX      0.046200
     15 C2'        -2.0260    0.2120    3.1570 c3        1 AFX      0.035100
     16 O2'        -2.7750   -0.6910    3.9340 oh        1 AFX     -0.575800
     17 C3'        -1.8810   -0.2120    1.6890 c         1 AFX      0.541300
     18 O3'        -2.8230   -0.5440    0.9800 o         1 AFX     -0.462100
     19 C4'        -0.4450   -0.1590    1.3420 ce        1 AFX     -0.206400
     20 C5'         0.2990    0.0860    2.4550 c2        1 AFX      0.153300
     21 H1          0.3590   -1.4310   -0.1810 h1        1 AFX      0.062200
     22 H1A        -0.8180   -0.1510   -0.7680 h1        1 AFX      0.062200
     23 HO1         1.4440    0.3200   -1.1630 ho        1 AFX      0.424000
     24 HN6         1.6740    4.7150    7.4870 hn        1 AFX      0.479467
     25 HN6A        0.0840    4.7630    8.0140 hn        1 AFX      0.479467
     26 H1'        -0.4320   -0.7510    4.3370 h1        1 AFX      0.152700
     27 H2'        -2.4920    1.2350    3.2050 h1        1 AFX      0.077700
     28 HO2'       -3.5410   -0.9620    3.4040 ho        1 AFX      0.444000
     29 H2          1.0300   -0.2430    8.6960 h5        1 AFX      0.104100
     30 H63         1.3020    4.2840    9.0700 hn        1 AFX      0.479467
     31 H8         -0.6010    3.0260    3.2200 h5        1 AFX      0.112800
@<TRIPOS>BOND
     1    1    4 1   
     2    1   19 1   
     3    1   21 1   
     4    1   22 1   
     5    2   20 1   
     6    3    5 ar  
     7    3    9 ar  
     8    4   23 1   
     9    5    6 ar  
    10    5   29 1   
    11    6    7 ar  
    12    7    8 ar  
    13    7   13 1   
    14    8    9 ar  
    15    8   11 1   
    16    9   10 1   
    17   10   24 1   
    18   10   25 1   
    19   10   30 1   
    20   11   12 2   
    21   12   13 1   
    22   12   31 1   
    23   13   14 1   
    24   14   15 1   
    25   14   20 1   
    26   14   26 1   
    27   15   16 1   
    28   15   17 1   
    29   15   27 1   
    30   16   28 1   
    31   17   18 2   
    32   17   19 1   
    33   19   20 2   
@<TRIPOS>SUBSTRUCTURE
     1 AFX         1 TEMP              0 ****  ****    0 ROOT
