@<TRIPOS>MOLECULE
AFZ
   39    41     1     0     0
SMALL
bcc


@<TRIPOS>ATOM
      1 N1         -7.1070    1.5390   -1.0430 nh        1 AFZ     -0.958800
      2 C2         -6.7120    0.7180    0.0370 ce        1 AFZ      0.649800
      3 N3         -7.4530    0.2950    1.0160 n2        1 AFZ     -0.824100
      4 C4         -5.2510    0.3850    0.0530 ca        1 AFZ     -0.134900
      5 C7         -4.8420   -0.9370    0.2530 ca        1 AFZ     -0.100500
      6 C8         -3.4860   -1.2520    0.2650 ca        1 AFZ     -0.116500
      7 C5         -4.2980    1.3940   -0.1190 ca        1 AFZ     -0.100500
      8 C6         -2.9420    1.0810   -0.1050 ca        1 AFZ     -0.116500
      9 C9         -2.5230   -0.2460    0.0830 ca        1 AFZ     -0.114500
     10 C10        -1.1150   -0.5560    0.0920 cc        1 AFZ      0.299200
     11 C13         0.0280    0.2190   -0.0080 cd        1 AFZ     -0.228300
     12 O11        -0.7570   -1.9110    0.2290 os        1 AFZ     -0.355800
     13 C12         0.6300   -1.9590    0.2070 cc        1 AFZ      0.265600
     14 C14         1.1600   -0.6840    0.0660 cd        1 AFZ     -0.175300
     15 C15         2.5530   -0.3150    0.0030 ca        1 AFZ      0.009000
     16 C16         2.9570    1.0020    0.2700 ca        1 AFZ     -0.130500
     17 C17         4.3020    1.3550    0.2140 ca        1 AFZ     -0.096500
     18 C20         5.2660    0.3940   -0.1070 ca        1 AFZ     -0.142900
     19 C21         6.7150    0.7670   -0.1670 ce        1 AFZ      0.650800
     20 N22         7.1660    1.5220    0.9390 nh        1 AFZ     -0.958800
     21 N23         7.3970    0.4330   -1.2210 n2        1 AFZ     -0.826100
     22 C19         4.8740   -0.9190   -0.3860 ca        1 AFZ     -0.096500
     23 C18         3.5270   -1.2700   -0.3280 ca        1 AFZ     -0.130500
     24 H24        -6.4930    1.5410   -1.8240 hn        1 AFZ      0.398800
     25 H25        -8.0710    1.5310   -1.2810 hn        1 AFZ      0.398800
     26 H27        -8.4210    0.5320    0.9770 hn        1 AFZ      0.383400
     27 H30        -5.5900   -1.7280    0.4130 ha        1 AFZ      0.149000
     28 H31        -3.1610   -2.2920    0.4210 ha        1 AFZ      0.144500
     29 H28        -4.6130    2.4400   -0.2540 ha        1 AFZ      0.149000
     30 H29        -2.1930    1.8760   -0.2390 ha        1 AFZ      0.144500
     31 H33         0.0850    1.2970   -0.1280 ha        1 AFZ      0.164000
     32 H32         1.0490   -2.9560    0.3090 h4        1 AFZ      0.057100
     33 H34         2.2040    1.7630    0.5260 ha        1 AFZ      0.134500
     34 H35         4.6010    2.3960    0.4130 ha        1 AFZ      0.146500
     35 H39         6.6070    1.4550    1.7570 hn        1 AFZ      0.398300
     36 H38         8.1440    1.5230    1.1100 hn        1 AFZ      0.398300
     37 H41         8.3600    0.6950   -1.2300 hn        1 AFZ      0.382400
     38 H37         5.6260   -1.6730   -0.6640 ha        1 AFZ      0.146500
     39 H36         3.2240   -2.3030   -0.5530 ha        1 AFZ      0.134500
@<TRIPOS>BOND
     1    1    2 1   
     2    1   24 1   
     3    1   25 1   
     4    2    3 2   
     5    2    4 1   
     6    3   26 1   
     7    4    5 ar  
     8    4    7 ar  
     9    5    6 ar  
    10    5   27 1   
    11    6    9 ar  
    12    6   28 1   
    13    7    8 ar  
    14    7   29 1   
    15    8    9 ar  
    16    8   30 1   
    17    9   10 1   
    18   10   11 2   
    19   10   12 1   
    20   11   14 1   
    21   11   31 1   
    22   12   13 1   
    23   13   14 2   
    24   13   32 1   
    25   14   15 1   
    26   15   16 ar  
    27   15   23 ar  
    28   16   17 ar  
    29   16   33 1   
    30   17   18 ar  
    31   17   34 1   
    32   18   19 1   
    33   18   22 ar  
    34   19   20 1   
    35   19   21 2   
    36   20   35 1   
    37   20   36 1   
    38   21   37 1   
    39   22   23 ar  
    40   22   38 1   
    41   23   39 1   
@<TRIPOS>SUBSTRUCTURE
     1 AFZ         1 TEMP              0 ****  ****    0 ROOT
