@<TRIPOS>MOLECULE
AFZ
   39    31     1     0     0
SMALL
bcc


@<TRIPOS>ATOM
      1 N1         -2.3310   -1.8820    6.9590 n3        1 AFZ     -0.397000
      2 C2         -2.6300   -0.9400    5.9400 c2        1 AFZ      0.125000
      3 N3         -3.5800   -0.0610    6.1220 n1        1 AFZ     -0.291000
      4 C4         -1.8490   -0.9530    4.6450 c2        1 AFZ     -0.050000
      5 C7         -0.7310   -0.1460    4.5020 c2        1 AFZ     -0.110000
      6 C8         -0.0470   -0.1160    3.2960 c1        1 AFZ     -0.120000
      7 C5         -2.2830   -1.7300    3.5820 c1        1 AFZ     -0.091000
      8 C6         -1.6000   -1.7000    2.3770 c1        1 AFZ     -0.113000
      9 C9         -0.4820   -0.8930    2.2340 c1        1 AFZ     -0.008000
     10 C10         0.2340   -0.9050    1.0470 c1        1 AFZ      0.000000
     11 C13         0.0260   -0.0720   -0.0340 c1        1 AFZ     -0.164000
     12 O11         1.2560   -1.7610    0.7310 os        1 AFZ     -0.096000
     13 C12         1.6830   -1.4640   -0.5370 c1        1 AFZ     -0.064000
     14 C14         0.9190   -0.4170   -1.0100 c2        1 AFZ     -0.113000
     15 C15         1.0690    0.2130   -2.2360 c1        1 AFZ      0.012000
     16 C16         1.8670    1.3410   -2.3430 c1        1 AFZ     -0.110000
     17 C17         2.0250    1.9640   -3.5710 c1        1 AFZ     -0.110000
     18 C20         1.3860    1.4580   -4.6920 c1        1 AFZ     -0.116000
     19 C21         1.5060    2.1760   -6.0180 c2        1 AFZ      0.115000
     20 N22         2.6640    1.9980   -6.8190 n3        1 AFZ     -0.331000
     21 N23         0.5430    2.9590   -6.4270 n1        1 AFZ     -0.302000
     22 C19         0.5870    0.3300   -4.5850 c1        1 AFZ     -0.110000
     23 C18         0.4290   -0.2930   -3.3570 c1        1 AFZ     -0.130000
     24 H24        -2.7680   -1.8420    7.7610 hn        1 AFZ      0.194000
     25 H25        -1.7110   -2.5370    6.8080 hn        1 AFZ      0.194000
     26 H27        -4.0520   -0.0530    6.9040 DU        1 AFZ      0.162500
     27 H30        -0.4250    0.4010    5.2500 ha        1 AFZ      0.147000
     28 H31         0.7400    0.4520    3.1960 ha        1 AFZ      0.138000
     29 H28        -3.0710   -2.2980    3.6820 ha        1 AFZ      0.152000
     30 H29        -1.9060   -2.2460    1.6280 ha        1 AFZ      0.151000
     31 H33        -0.6410    0.6390   -0.0910 DU        1 AFZ      0.162500
     32 H32         2.4010   -1.9150   -1.0210 DU        1 AFZ      0.162500
     33 H34         2.3170    1.6970   -1.5530 ha        1 AFZ      0.144000
     34 H35         2.5870    2.7580   -3.6460 ha        1 AFZ      0.144000
     35 H39         3.2190    1.2890   -6.6670 hn        1 AFZ      0.193500
     36 H38         2.8490    2.5880   -7.4920 hn        1 AFZ      0.193500
     37 H41        -0.2030    3.0740   -5.9110 DU        1 AFZ      0.162500
     38 H37         0.1370   -0.0260   -5.3740 ha        1 AFZ      0.139000
     39 H36        -0.1330   -1.0870   -3.2810 ha        1 AFZ      0.134000
@<TRIPOS>BOND
     1    1    2 1   
     2    1   24 1   
     3    1   25 1   
     4    2    3 1   
     5    2    4 1   
     6    4    5 1   
     7    4    7 1   
     8    5    6 1   
     9    5   27 1   
    10    6   28 1   
    11    7   29 1   
    12    8    9 1   
    13    8   30 1   
    14   10   11 1   
    15   10   12 1   
    16   11   14 1   
    17   12   13 1   
    18   13   14 1   
    19   14   15 1   
    20   15   23 1   
    21   16   17 1   
    22   16   33 1   
    23   17   34 1   
    24   18   19 1   
    25   18   22 1   
    26   19   20 1   
    27   19   21 1   
    28   20   35 1   
    29   20   36 1   
    30   22   38 1   
    31   23   39 1   
@<TRIPOS>SUBSTRUCTURE
     1 AFZ         1 TEMP              0 ****  ****    0 ROOT
