@<TRIPOS>MOLECULE
AFZ
   41    43     1     0     0
SMALL
bcc


@<TRIPOS>ATOM
      1 N1          0.2880   -0.8900    0.2040 n4        1 AFZ     -0.890600
      2 C2          1.4810    0.0750    0.1830 ce        1 AFZ      0.627800
      3 N3          1.8910    0.7540    1.1670 n2        1 AFZ     -0.663100
      4 C4          2.0980    0.0870   -1.1650 ca        1 AFZ     -0.215900
      5 C7          3.4120   -0.3720   -1.3170 ca        1 AFZ     -0.080000
      6 C8          4.0200   -0.3130   -2.5690 ca        1 AFZ     -0.105500
      7 C5          1.3980    0.6150   -2.2560 ca        1 AFZ     -0.080000
      8 C6          2.0100    0.6770   -3.5040 ca        1 AFZ     -0.105500
      9 C9          3.3270    0.2150   -3.6720 ca        1 AFZ     -0.062500
     10 C10         3.9620    0.2980   -4.9630 cc        1 AFZ      0.271200
     11 C13         3.6290    0.9060   -6.1630 cd        1 AFZ     -0.186300
     12 O11         5.2090   -0.3490   -5.0940 os        1 AFZ     -0.337800
     13 C12         5.6350   -0.1400   -6.3900 cc        1 AFZ      0.326600
     14 C14         4.7080    0.6270   -7.0910 cd        1 AFZ     -0.221300
     15 C15         4.7980    1.0580   -8.4620 ca        1 AFZ      0.065000
     16 C16         4.0560    2.1620   -8.9200 ca        1 AFZ     -0.120000
     17 C17         4.1470    2.5760  -10.2450 ca        1 AFZ     -0.081000
     18 C20         4.9810    1.8870  -11.1350 ca        1 AFZ     -0.274900
     19 C21         5.0370    2.2800  -12.5570 ce        1 AFZ      0.589800
     20 N22         5.8120    3.5590  -12.7540 n4        1 AFZ     -0.824600
     21 N23         4.5610    1.7370  -13.6090 n2        1 AFZ     -0.701100
     22 C19         5.7260    0.7870  -10.6940 ca        1 AFZ     -0.081000
     23 C18         5.6340    0.3790   -9.3670 ca        1 AFZ     -0.120000
     24 H24        -0.3090   -0.6910   -0.6060 hn        1 AFZ      0.458800
     25 H25         0.6400   -1.8490    0.1190 hn        1 AFZ      0.458800
     26 H27         1.4890    0.7380    2.0790 hn        1 AFZ      0.471400
     27 H30         3.9750   -0.7620   -0.4540 ha        1 AFZ      0.152500
     28 H31         5.0560   -0.6720   -2.6940 ha        1 AFZ      0.168500
     29 H28         0.3780    1.0130   -2.1350 ha        1 AFZ      0.152500
     30 H29         1.4620    1.0970   -4.3620 ha        1 AFZ      0.168500
     31 H33         2.7330    1.4800   -6.3860 ha        1 AFZ      0.173000
     32 H32         6.5990   -0.5900   -6.6280 h4        1 AFZ      0.076100
     33 H34         3.3980    2.7050   -8.2230 ha        1 AFZ      0.160000
     34 H35         3.5440    3.4310  -10.5890 ha        1 AFZ      0.150000
     35 H39         5.7820    3.8850  -13.7290 hn        1 AFZ      0.471800
     36 H38         5.4100    4.2740  -12.1400 hn        1 AFZ      0.471800
     37 H41         4.0360    0.8910  -13.5220 hn        1 AFZ      0.493400
     38 H37         6.3770    0.2350  -11.3900 ha        1 AFZ      0.150000
     39 H36         6.2160   -0.4930   -9.0260 ha        1 AFZ      0.160000
     40 H13        -0.2710   -0.8140    1.0570 hn        1 AFZ      0.458800
     41 H223        6.7860    3.3900  -12.4830 hn        1 AFZ      0.471800
@<TRIPOS>BOND
     1    1    2 1   
     2    1   24 1   
     3    1   25 1   
     4    1   40 1   
     5    2    3 2   
     6    2    4 1   
     7    3   26 1   
     8    4    5 ar  
     9    4    7 ar  
    10    5    6 ar  
    11    5   27 1   
    12    6    9 ar  
    13    6   28 1   
    14    7    8 ar  
    15    7   29 1   
    16    8    9 ar  
    17    8   30 1   
    18    9   10 1   
    19   10   11 2   
    20   10   12 1   
    21   11   14 1   
    22   11   31 1   
    23   12   13 1   
    24   13   14 2   
    25   13   32 1   
    26   14   15 1   
    27   15   16 ar  
    28   15   23 ar  
    29   16   17 ar  
    30   16   33 1   
    31   17   18 ar  
    32   17   34 1   
    33   18   19 1   
    34   18   22 ar  
    35   19   20 1   
    36   19   21 2   
    37   20   35 1   
    38   20   36 1   
    39   20   41 1   
    40   21   37 1   
    41   22   23 ar  
    42   22   38 1   
    43   23   39 1   
@<TRIPOS>SUBSTRUCTURE
     1 AFZ         1 TEMP              0 ****  ****    0 ROOT
