@<TRIPOS>MOLECULE
AFZ
   41    43     1     0     0
SMALL
bcc


@<TRIPOS>ATOM
      1 N1          0.2830   -0.8900    0.2010 nz        1 AFZ     -0.890600
      2 C2          1.4720    0.0800    0.1800 ce        1 AFZ      0.627800
      3 N3          1.8770    0.7630    1.1630 n2        1 AFZ     -0.663100
      4 C4          2.0920    0.0910   -1.1660 ca        1 AFZ     -0.215900
      5 C7          3.4080   -0.3620   -1.3150 ca        1 AFZ     -0.080000
      6 C8          4.0180   -0.3030   -2.5650 ca        1 AFZ     -0.105500
      7 C5          1.3910    0.6140   -2.2600 ca        1 AFZ     -0.080000
      8 C6          2.0060    0.6760   -3.5070 ca        1 AFZ     -0.105500
      9 C9          3.3260    0.2190   -3.6710 ca        1 AFZ     -0.062500
     10 C10         3.9620    0.3030   -4.9610 cc        1 AFZ      0.271200
     11 C13         3.6290    0.9050   -6.1630 cd        1 AFZ     -0.186300
     12 O11         5.2130   -0.3390   -5.0880 os        1 AFZ     -0.337800
     13 C12         5.6410   -0.1310   -6.3840 cc        1 AFZ      0.326600
     14 C14         4.7110    0.6290   -7.0880 cd        1 AFZ     -0.221300
     15 C15         4.8020    1.0580   -8.4600 ca        1 AFZ      0.065000
     16 C16         4.0550    2.1560   -8.9230 ca        1 AFZ     -0.120000
     17 C17         4.1470    2.5670  -10.2480 ca        1 AFZ     -0.081000
     18 C20         4.9870    1.8810  -11.1350 ca        1 AFZ     -0.274900
     19 C21         5.0430    2.2710  -12.5580 ce        1 AFZ      0.589800
     20 N22         5.8120    3.5530  -12.7570 nz        1 AFZ     -0.824600
     21 N23         4.5730    1.7220  -13.6100 n2        1 AFZ     -0.701100
     22 C19         5.7360    0.7860  -10.6890 ca        1 AFZ     -0.081000
     23 C18         5.6430    0.3800   -9.3610 ca        1 AFZ     -0.120000
     24 H24        -0.3130   -0.6960   -0.6100 hn        1 AFZ      0.458800
     25 H25         0.6400   -1.8480    0.1190 hn        1 AFZ      0.458800
     26 H27         1.4730    0.7470    2.0750 hn        1 AFZ      0.471400
     27 H30         3.9710   -0.7480   -0.4490 ha        1 AFZ      0.152500
     28 H31         5.0560   -0.6580   -2.6880 ha        1 AFZ      0.168500
     29 H28         0.3700    1.0080   -2.1420 ha        1 AFZ      0.152500
     30 H29         1.4570    1.0920   -4.3670 ha        1 AFZ      0.168500
     31 H33         2.7300    1.4740   -6.3890 ha        1 AFZ      0.173000
     32 H32         6.6080   -0.5770   -6.6190 h4        1 AFZ      0.076100
     33 H34         3.3930    2.6980   -8.2290 ha        1 AFZ      0.160000
     34 H35         3.5410    3.4190  -10.5960 ha        1 AFZ      0.150000
     35 H39         5.7820    3.8770  -13.7330 hn        1 AFZ      0.471800
     36 H38         5.4040    4.2680  -12.1450 hn        1 AFZ      0.471800
     37 H41         4.0520    0.8730  -13.5210 hn        1 AFZ      0.493400
     38 H37         6.3920    0.2350  -11.3830 ha        1 AFZ      0.150000
     39 H36         6.2290   -0.4880   -9.0170 ha        1 AFZ      0.160000
     40 H13        -0.2770   -0.8150    1.0530 hn        1 AFZ      0.458800
     41 H223        6.7870    3.3910  -12.4830 hn        1 AFZ      0.471800
@<TRIPOS>BOND
     1    1    2 1   
     2    1   24 1   
     3    1   25 1   
     4    1   40 1   
     5    2    3 2   
     6    2    4 1   
     7    3   26 1   
     8    4    5 ar  
     9    4    7 ar  
    10    5    6 ar  
    11    5   27 1   
    12    6    9 ar  
    13    6   28 1   
    14    7    8 ar  
    15    7   29 1   
    16    8    9 ar  
    17    8   30 1   
    18    9   10 1   
    19   10   11 2   
    20   10   12 1   
    21   11   14 1   
    22   11   31 1   
    23   12   13 1   
    24   13   14 2   
    25   13   32 1   
    26   14   15 1   
    27   15   16 ar  
    28   15   23 ar  
    29   16   17 ar  
    30   16   33 1   
    31   17   18 ar  
    32   17   34 1   
    33   18   19 1   
    34   18   22 ar  
    35   19   20 1   
    36   19   21 2   
    37   20   35 1   
    38   20   36 1   
    39   20   41 1   
    40   21   37 1   
    41   22   23 ar  
    42   22   38 1   
    43   23   39 1   
@<TRIPOS>SUBSTRUCTURE
     1 AFZ         1 TEMP              0 ****  ****    0 ROOT
