@<TRIPOS>MOLECULE
AG0
   74    71     1     0     0
SMALL
bcc


@<TRIPOS>ATOM
      1 O19        -2.8480    0.5170   -0.0920 o         1 AG0     -0.303000
      2 C17        -1.6340    0.4860   -0.0960 c1        1 AG0      0.353000
      3 C18        -0.8390    0.4700    1.2690 c2        1 AG0     -0.226000
      4 C13         0.6750    0.8860    1.2120 c1        1 AG0      0.126000
      5 O20         1.3360    1.2930    2.3830 oh        1 AG0     -0.230000
      6 C1         -1.5910    0.5280    2.5830 c3        1 AG0     -0.022000
      7 C9         -2.2510    1.8870    2.7280 c2        1 AG0     -0.044000
      8 N8         -3.6000    1.9300    2.7890 n2        1 AG0     -0.110000
      9 N10        -1.7670    2.9590    3.3970 n2        1 AG0     -0.146000
     10 C4         -2.8260    3.6710    3.8750 c1        1 AG0      0.046000
     11 N5         -3.9550    3.0380    3.5010 n2        1 AG0     -0.103000
     12 C6         -5.1710    3.5460    3.8540 c1        1 AG0      0.102000
     13 C7         -5.2430    4.6970    4.5870 c2        1 AG0     -0.259000
     14 C12        -6.5590    3.1180    3.4340 c2        1 AG0     -0.191000
     15 N3         -2.8990    4.8370    4.6180 n1        1 AG0     -0.107000
     16 C2         -4.0960    5.3390    4.9660 c1        1 AG0      0.045000
     17 C11        -3.9550    6.7200    5.5710 c3        1 AG0     -0.181000
     18 O16        -0.9240    0.8500   -1.2570 o         1 AG0     -0.258000
     19 C15         0.4470    0.6680   -1.2520 c3        1 AG0      0.109000
     20 C14         1.2110    1.2850   -0.1280 c2        1 AG0     -0.204000
     21 C27         1.0200    1.2650   -2.6140 c3        1 AG0     -0.097000
     22 C23         0.9950    2.9080   -2.5640 c3        1 AG0     -0.156500
     23 C26         0.2650    0.9210   -3.5990 c3        1 AG0     -0.156500
     24 C25         0.3150    2.1570   -4.6140 c3        1 AG0     -0.155000
     25 C24         0.9820    3.3160   -3.8250 c3        1 AG0     -0.155000
     26 C21         0.7220   -0.8350   -1.2380 c3        1 AG0     -0.184000
     27 C22         2.1890   -1.0850   -1.5580 c3        1 AG0     -0.122000
     28 C29         2.4700   -2.5820   -1.5190 c2        1 AG0     -0.033000
     29 C30         3.5320   -3.0570   -0.8030 c2        1 AG0     -0.185000
     30 C28         1.7400   -3.4330   -2.3000 c1        1 AG0     -0.184000
     31 C33         2.0780   -4.7770   -2.3640 c1        1 AG0     -0.001000
     32 C34         1.3310   -5.7000   -3.3070 c3        1 AG0     -0.114000
     33 C35         0.9300   -6.9600   -2.5680 c3        1 AG0     -0.207000
     34 N32         3.1390   -5.2500   -1.6490 n1        1 AG0     -0.142000
     35 C31         3.8680   -4.4030   -0.8690 c1        1 AG0     -0.002000
     36 C36         5.1040   -4.9100   -0.1530 c3        1 AG0     -0.113000
     37 C37         4.6970   -5.9040    0.9140 c3        1 AG0     -0.207000
     38 H1         -0.9660    0.3890    3.3220 hc        1 AG0      0.126000
     39 H1A        -2.2750   -0.1700    2.5980 hc        1 AG0      0.126000
     40 H7         -6.1140    5.0620    4.8400 ha        1 AG0      0.160000
     41 H12        -6.6810    3.2950    2.4770 ha        1 AG0      0.109333
     42 H12A       -6.6720    2.1600    3.6060 ha        1 AG0      0.109333
     43 H12B       -7.2260    3.6220    3.9460 ha        1 AG0      0.109333
     44 H11        -3.1890    6.7330    6.1820 hc        1 AG0      0.102000
     45 H11A       -3.8140    7.3770    4.8570 hc        1 AG0      0.102000
     46 H11B       -4.7710    6.9450    6.0650 hc        1 AG0      0.102000
     47 H14         2.1560    1.0670   -0.2560 ha        1 AG0      0.121500
     48 H14A        1.2370    2.2620   -0.1840 ha        1 AG0      0.121500
     49 H27         1.9320    0.9470   -2.7630 hc        1 AG0      0.089000
     50 H23         0.1890    3.2190   -2.1000 hc        1 AG0      0.091250
     51 H23A        1.7970    3.2430   -2.1100 hc        1 AG0      0.091250
     52 H26         0.6130    0.1140   -4.0290 hc        1 AG0      0.091250
     53 H26A       -0.6530    0.7730   -3.2890 hc        1 AG0      0.091250
     54 H25         0.8530    1.9290   -5.3990 hc        1 AG0      0.081500
     55 H25A       -0.5910    2.4100   -4.8860 hc        1 AG0      0.081500
     56 H24         1.8950    3.4640   -4.1450 hc        1 AG0      0.081500
     57 H24A        0.4530    4.1350   -3.9120 hc        1 AG0      0.081500
     58 H21         0.5150   -1.1960   -0.3530 hc        1 AG0      0.106000
     59 H21A        0.1630   -1.2750   -1.9090 hc        1 AG0      0.106000
     60 H22         2.7490   -0.6310   -0.8970 hc        1 AG0      0.090500
     61 H22A        2.3920   -0.7390   -2.4500 hc        1 AG0      0.090500
     62 H30         4.0540   -2.4500   -0.2440 ha        1 AG0      0.140000
     63 H28         0.9660   -3.1000   -2.7910 ha        1 AG0      0.143000
     64 H34         0.5310   -5.2480   -3.6390 hc        1 AG0      0.092000
     65 H34A        1.9100   -5.9340   -4.0610 hc        1 AG0      0.092000
     66 H35         1.7320   -7.4110   -2.2320 hc        1 AG0      0.079667
     67 H35A        0.4500   -7.5580   -3.1790 hc        1 AG0      0.079667
     68 H35B        0.3470   -6.7250   -1.8160 hc        1 AG0      0.079667
     69 H36         5.6980   -5.3470   -0.7960 hc        1 AG0      0.091500
     70 H36A        5.5720   -4.1580    0.2630 hc        1 AG0      0.091500
     71 H37         5.4480   -6.0500    1.5280 hc        1 AG0      0.079333
     72 H37A        3.9310   -5.5520    1.4130 hc        1 AG0      0.079333
     73 H37B        4.4500   -6.7530    0.4920 hc        1 AG0      0.079333
     74 H38         2.0290    0.7540    2.5360 ho        1 AG0      0.229000
@<TRIPOS>BOND
     1    1    2 1   
     2    2    3 1   
     3    3    4 1   
     4    3    6 1   
     5    4    5 1   
     6    5   74 1   
     7    6    7 1   
     8    6   38 1   
     9    6   39 1   
    10    7    8 1   
    11    7    9 1   
    12    8   11 1   
    13    9   10 1   
    14   10   15 1   
    15   11   12 1   
    16   12   13 1   
    17   13   16 1   
    18   13   40 1   
    19   14   41 1   
    20   14   42 1   
    21   14   43 1   
    22   16   17 1   
    23   17   44 1   
    24   17   45 1   
    25   17   46 1   
    26   18   19 1   
    27   19   20 1   
    28   19   21 1   
    29   19   26 1   
    30   20   47 1   
    31   20   48 1   
    32   21   22 1   
    33   21   23 1   
    34   21   49 1   
    35   22   25 1   
    36   22   50 1   
    37   22   51 1   
    38   23   24 1   
    39   23   52 1   
    40   23   53 1   
    41   24   25 1   
    42   24   54 1   
    43   24   55 1   
    44   25   56 1   
    45   25   57 1   
    46   26   27 1   
    47   26   58 1   
    48   26   59 1   
    49   27   28 1   
    50   27   60 1   
    51   27   61 1   
    52   28   29 1   
    53   28   30 1   
    54   29   35 1   
    55   29   62 1   
    56   30   63 1   
    57   31   32 1   
    58   31   34 1   
    59   32   33 1   
    60   32   64 1   
    61   32   65 1   
    62   33   66 1   
    63   33   67 1   
    64   33   68 1   
    65   35   36 1   
    66   36   37 1   
    67   36   69 1   
    68   36   70 1   
    69   37   71 1   
    70   37   72 1   
    71   37   73 1   
@<TRIPOS>SUBSTRUCTURE
     1 AG0         1 TEMP              0 ****  ****    0 ROOT
