@<TRIPOS>MOLECULE
AG0
   74    78     1     0     0
SMALL
bcc


@<TRIPOS>ATOM
      1 O19        -0.0860    0.0570   -0.8460 o         1 AG0     -0.578500
      2 C17         1.0620   -0.0480   -0.4100 c         1 AG0      0.737800
      3 C18         1.5040    0.0610    0.9830 ce        1 AG0     -0.249400
      4 C13         2.8350    0.0750    1.2460 c2        1 AG0      0.165900
      5 O20         3.2710    0.0940    2.5430 oh        1 AG0     -0.475100
      6 C1          0.4610    0.1910    2.0300 c3        1 AG0     -0.014500
      7 C9          0.3110    1.6040    2.5080 cc        1 AG0      0.538300
      8 N8         -0.8640    2.0880    3.0440 nd        1 AG0     -0.577100
      9 N10         1.3600    2.5400    2.4720 nc        1 AG0     -0.365300
     10 C4          0.8090    3.6740    3.0140 cd        1 AG0      0.397500
     11 N5         -0.5850    3.3590    3.3630 na        1 AG0      0.012200
     12 C6         -1.3880    4.3410    3.9260 cc        1 AG0      0.070400
     13 C7         -0.8180    5.5830    4.1390 cd        1 AG0     -0.324300
     14 C12        -2.8040    4.0440    4.2780 c3        1 AG0     -0.065800
     15 N3          1.3580    4.9260    3.2380 nd        1 AG0     -0.633000
     16 C2          0.5540    5.8370    3.7830 cc        1 AG0      0.467600
     17 C11         1.0670    7.2160    4.0570 c3        1 AG0     -0.157400
     18 O16         1.9760   -0.2560   -1.4240 os        1 AG0     -0.419900
     19 C15         3.3060   -0.6980   -1.0800 c3        1 AG0      0.180800
     20 C14         3.8420    0.0480    0.1470 c3        1 AG0     -0.121200
     21 C27         4.1800   -0.3800   -2.3030 c3        1 AG0     -0.057700
     22 C23         4.1910    1.1030   -2.6820 c3        1 AG0     -0.077900
     23 C26         3.7310   -1.1170   -3.5660 c3        1 AG0     -0.077900
     24 C25         4.1170   -0.2320   -4.7430 c3        1 AG0     -0.076400
     25 C24         4.3610    1.1680   -4.1940 c3        1 AG0     -0.076400
     26 C21         3.2160   -2.2090   -0.8170 c3        1 AG0     -0.105400
     27 C22         4.5540   -2.9070   -0.6840 c3        1 AG0     -0.037100
     28 C29         4.3720   -4.3580   -0.4010 ca        1 AG0     -0.040300
     29 C30         3.9310   -5.2280   -1.4040 ca        1 AG0     -0.249800
     30 C28         4.6490   -4.8850    0.8640 ca        1 AG0     -0.249800
     31 C33         4.4750   -6.2690    1.0830 ca        1 AG0      0.421100
     32 C34         4.7790   -6.8250    2.4480 c3        1 AG0     -0.129200
     33 C35         3.5290   -7.2850    3.1570 c3        1 AG0     -0.089100
     34 N32         4.0490   -7.1150    0.1160 nb        1 AG0     -0.668000
     35 C31         3.7820   -6.5990   -1.1070 ca        1 AG0      0.421100
     36 C36         3.3020   -7.5230   -2.1920 c3        1 AG0     -0.129200
     37 C37         4.3750   -8.4920   -2.6230 c3        1 AG0     -0.089100
     38 H1         -0.5260   -0.1720    1.6280 hc        1 AG0      0.086700
     39 H1A         0.7380   -0.4410    2.9200 hc        1 AG0      0.086700
     40 H7         -1.4130    6.3920    4.5830 ha        1 AG0      0.160000
     41 H12        -3.2850    4.9520    4.7170 hc        1 AG0      0.070033
     42 H12A       -3.3750    3.7340    3.3660 hc        1 AG0      0.070033
     43 H12B       -2.8550    3.2090    5.0210 hc        1 AG0      0.070033
     44 H11         2.1380    7.3400    3.7650 hc        1 AG0      0.062700
     45 H11A        0.4510    7.9530    3.4840 hc        1 AG0      0.062700
     46 H11B        0.9660    7.4320    5.1500 hc        1 AG0      0.062700
     47 H14         4.0790    1.1110   -0.1340 hc        1 AG0      0.082200
     48 H14A        4.7930   -0.4370    0.4900 hc        1 AG0      0.082200
     49 H27         5.2270   -0.6950   -2.0390 hc        1 AG0      0.049700
     50 H23         5.0210    1.6410   -2.1620 hc        1 AG0      0.051950
     51 H23A        3.2250    1.5820   -2.3800 hc        1 AG0      0.051950
     52 H26         4.2130   -2.1230   -3.6340 hc        1 AG0      0.051950
     53 H26A        2.6210   -1.2670   -3.5430 hc        1 AG0      0.051950
     54 H25         3.3040   -0.2250   -5.5110 hc        1 AG0      0.042200
     55 H25A        5.0410   -0.6220   -5.2390 hc        1 AG0      0.042200
     56 H24         3.6370    1.8990   -4.6350 hc        1 AG0      0.042200
     57 H24A        5.3900    1.5170   -4.4590 hc        1 AG0      0.042200
     58 H21         2.6410   -2.6720   -1.6640 hc        1 AG0      0.066700
     59 H21A        2.6150   -2.3640    0.1190 hc        1 AG0      0.066700
     60 H22         5.1590   -2.4350    0.1350 hc        1 AG0      0.051200
     61 H22A        5.1360   -2.7960   -1.6390 hc        1 AG0      0.051200
     62 H30         3.7040   -4.8480   -2.4090 ha        1 AG0      0.141500
     63 H28         4.9950   -4.2370    1.6790 ha        1 AG0      0.141500
     64 H34         5.4940   -7.6860    2.3500 hc        1 AG0      0.052950
     65 H34A        5.2900   -6.0330    3.0570 hc        1 AG0      0.052950
     66 H35         3.7880   -7.6580    4.1770 hc        1 AG0      0.040033
     67 H35A        3.0340   -8.1110    2.5920 hc        1 AG0      0.040033
     68 H35B        2.8010   -6.4450    3.2610 hc        1 AG0      0.040033
     69 H36         2.9710   -6.9090   -3.0720 hc        1 AG0      0.052950
     70 H36A        2.4050   -8.0930   -1.8260 hc        1 AG0      0.052950
     71 H37         4.6780   -9.1510   -1.7740 hc        1 AG0      0.040033
     72 H37A        5.2790   -7.9460   -2.9850 hc        1 AG0      0.040033
     73 H37B        3.9940   -9.1350   -3.4530 hc        1 AG0      0.040033
     74 H38         4.1730    0.4500    2.5510 ho        1 AG0      0.430000
@<TRIPOS>BOND
     1    1    2 2   
     2    2    3 1   
     3    2   18 1   
     4    3    4 2   
     5    3    6 1   
     6    4    5 1   
     7    4   20 1   
     8    5   74 1   
     9    6    7 1   
    10    6   38 1   
    11    6   39 1   
    12    7    8 2   
    13    7    9 1   
    14    8   11 1   
    15    9   10 2   
    16   10   11 1   
    17   10   15 1   
    18   11   12 1   
    19   12   13 2   
    20   12   14 1   
    21   13   16 1   
    22   13   40 1   
    23   14   41 1   
    24   14   42 1   
    25   14   43 1   
    26   15   16 2   
    27   16   17 1   
    28   17   44 1   
    29   17   45 1   
    30   17   46 1   
    31   18   19 1   
    32   19   20 1   
    33   19   21 1   
    34   19   26 1   
    35   20   47 1   
    36   20   48 1   
    37   21   22 1   
    38   21   23 1   
    39   21   49 1   
    40   22   25 1   
    41   22   50 1   
    42   22   51 1   
    43   23   24 1   
    44   23   52 1   
    45   23   53 1   
    46   24   25 1   
    47   24   54 1   
    48   24   55 1   
    49   25   56 1   
    50   25   57 1   
    51   26   27 1   
    52   26   58 1   
    53   26   59 1   
    54   27   28 1   
    55   27   60 1   
    56   27   61 1   
    57   28   29 ar  
    58   28   30 ar  
    59   29   35 ar  
    60   29   62 1   
    61   30   31 ar  
    62   30   63 1   
    63   31   32 1   
    64   31   34 ar  
    65   32   33 1   
    66   32   64 1   
    67   32   65 1   
    68   33   66 1   
    69   33   67 1   
    70   33   68 1   
    71   34   35 ar  
    72   35   36 1   
    73   36   37 1   
    74   36   69 1   
    75   36   70 1   
    76   37   71 1   
    77   37   72 1   
    78   37   73 1   
@<TRIPOS>SUBSTRUCTURE
     1 AG0         1 TEMP              0 ****  ****    0 ROOT
