@<TRIPOS>MOLECULE
AG0
   74    78     1     0     0
SMALL
bcc


@<TRIPOS>ATOM
      1 O19        -0.0880    0.0490   -0.8430 o         1 AG0     -0.578500
      2 C17         1.0620   -0.0530   -0.4100 c         1 AG0      0.737800
      3 C18         1.5070    0.0620    0.9810 ce        1 AG0     -0.249400
      4 C13         2.8380    0.0790    1.2410 c2        1 AG0      0.165900
      5 O20         3.2770    0.1020    2.5370 oh        1 AG0     -0.475100
      6 C1          0.4650    0.1940    2.0310 c3        1 AG0     -0.014500
      7 C9          0.3150    1.6080    2.5050 cc        1 AG0      0.538300
      8 N8         -0.8600    2.0920    3.0410 nd        1 AG0     -0.577100
      9 N10         1.3620    2.5460    2.4630 nc        1 AG0     -0.365300
     10 C4          0.8110    3.6800    3.0020 cd        1 AG0      0.397500
     11 N5         -0.5810    3.3640    3.3550 na        1 AG0      0.012200
     12 C6         -1.3850    4.3470    3.9180 cc        1 AG0      0.070400
     13 C7         -0.8160    5.5910    4.1250 cd        1 AG0     -0.324300
     14 C12        -2.7990    4.0500    4.2740 c3        1 AG0     -0.065800
     15 N3          1.3590    4.9340    3.2200 nd        1 AG0     -0.633000
     16 C2          0.5560    5.8450    3.7650 cc        1 AG0      0.467600
     17 C11         1.0670    7.2260    4.0330 c3        1 AG0     -0.157400
     18 O16         1.9730   -0.2640   -1.4250 os        1 AG0     -0.419900
     19 C15         3.3040   -0.7030   -1.0830 c3        1 AG0      0.180800
     20 C14         3.8420    0.0490    0.1410 c3        1 AG0     -0.121200
     21 C27         4.1750   -0.3870   -2.3090 c3        1 AG0     -0.057700
     22 C23         4.1830    1.0940   -2.6930 c3        1 AG0     -0.077900
     23 C26         3.7240   -1.1300   -3.5680 c3        1 AG0     -0.077900
     24 C25         4.1060   -0.2490   -4.7500 c3        1 AG0     -0.076400
     25 C24         4.3480    1.1540   -4.2070 c3        1 AG0     -0.076400
     26 C21         3.2170   -2.2130   -0.8140 c3        1 AG0     -0.105400
     27 C22         4.5560   -2.9080   -0.6810 c3        1 AG0     -0.037100
     28 C29         4.3780   -4.3590   -0.3940 ca        1 AG0     -0.040300
     29 C30         3.9390   -5.2320   -1.3950 ca        1 AG0     -0.249800
     30 C28         4.6550   -4.8810    0.8720 ca        1 AG0     -0.249800
     31 C33         4.4840   -6.2650    1.0960 ca        1 AG0      0.421100
     32 C34         4.7870   -6.8160    2.4620 c3        1 AG0     -0.129200
     33 C35         3.5380   -7.2750    3.1720 c3        1 AG0     -0.089100
     34 N32         4.0600   -7.1150    0.1310 nb        1 AG0     -0.668000
     35 C31         3.7920   -6.6030   -1.0940 ca        1 AG0      0.421100
     36 C36         3.3150   -7.5310   -2.1770 c3        1 AG0     -0.129200
     37 C37         4.3910   -8.4980   -2.6050 c3        1 AG0     -0.089100
     38 H1         -0.5220   -0.1720    1.6330 hc        1 AG0      0.086700
     39 H1A         0.7450   -0.4350    2.9220 hc        1 AG0      0.086700
     40 H7         -1.4100    6.4010    4.5670 ha        1 AG0      0.160000
     41 H12        -3.3720    3.7360    3.3650 hc        1 AG0      0.070033
     42 H12A       -3.2810    4.9580    4.7110 hc        1 AG0      0.070033
     43 H12B       -2.8470    3.2170    5.0200 hc        1 AG0      0.070033
     44 H11         0.9670    7.4460    5.1250 hc        1 AG0      0.062700
     45 H11A        2.1380    7.3500    3.7380 hc        1 AG0      0.062700
     46 H11B        0.4490    7.9600    3.4580 hc        1 AG0      0.062700
     47 H14         4.0770    1.1120   -0.1450 hc        1 AG0      0.082200
     48 H14A        4.7950   -0.4330    0.4820 hc        1 AG0      0.082200
     49 H27         5.2230   -0.6990   -2.0460 hc        1 AG0      0.049700
     50 H23         5.0130    1.6360   -2.1770 hc        1 AG0      0.051950
     51 H23A        3.2160    1.5720   -2.3910 hc        1 AG0      0.051950
     52 H26         4.2080   -2.1350   -3.6340 hc        1 AG0      0.051950
     53 H26A        2.6140   -1.2810   -3.5420 hc        1 AG0      0.051950
     54 H25         3.2920   -0.2460   -5.5160 hc        1 AG0      0.042200
     55 H25A        5.0300   -0.6390   -5.2460 hc        1 AG0      0.042200
     56 H24         3.6230    1.8810   -4.6490 hc        1 AG0      0.042200
     57 H24A        5.3760    1.5040   -4.4750 hc        1 AG0      0.042200
     58 H21         2.6190   -2.3650    0.1230 hc        1 AG0      0.066700
     59 H21A        2.6410   -2.6800   -1.6590 hc        1 AG0      0.066700
     60 H22         5.1380   -2.7990   -1.6380 hc        1 AG0      0.051200
     61 H22A        5.1620   -2.4330    0.1350 hc        1 AG0      0.051200
     62 H30         3.7120   -4.8560   -2.4010 ha        1 AG0      0.141500
     63 H28         4.9990   -4.2300    1.6860 ha        1 AG0      0.141500
     64 H34         5.2970   -6.0220    3.0690 hc        1 AG0      0.052950
     65 H34A        5.5040   -7.6770    2.3680 hc        1 AG0      0.052950
     66 H35         2.8080   -6.4360    3.2740 hc        1 AG0      0.040033
     67 H35A        3.0450   -8.1040    2.6090 hc        1 AG0      0.040033
     68 H35B        3.7970   -7.6450    4.1940 hc        1 AG0      0.040033
     69 H36         2.4200   -8.1030   -1.8100 hc        1 AG0      0.052950
     70 H36A        2.9830   -6.9200   -3.0580 hc        1 AG0      0.052950
     71 H37         4.6960   -9.1540   -1.7540 hc        1 AG0      0.040033
     72 H37A        4.0120   -9.1440   -3.4330 hc        1 AG0      0.040033
     73 H37B        5.2940   -7.9500   -2.9690 hc        1 AG0      0.040033
     74 H38         4.1790    0.4600    2.5420 ho        1 AG0      0.430000
@<TRIPOS>BOND
     1    1    2 2   
     2    2    3 1   
     3    2   18 1   
     4    3    4 2   
     5    3    6 1   
     6    4    5 1   
     7    4   20 1   
     8    5   74 1   
     9    6    7 1   
    10    6   38 1   
    11    6   39 1   
    12    7    8 2   
    13    7    9 1   
    14    8   11 1   
    15    9   10 2   
    16   10   11 1   
    17   10   15 1   
    18   11   12 1   
    19   12   13 2   
    20   12   14 1   
    21   13   16 1   
    22   13   40 1   
    23   14   41 1   
    24   14   42 1   
    25   14   43 1   
    26   15   16 2   
    27   16   17 1   
    28   17   44 1   
    29   17   45 1   
    30   17   46 1   
    31   18   19 1   
    32   19   20 1   
    33   19   21 1   
    34   19   26 1   
    35   20   47 1   
    36   20   48 1   
    37   21   22 1   
    38   21   23 1   
    39   21   49 1   
    40   22   25 1   
    41   22   50 1   
    42   22   51 1   
    43   23   24 1   
    44   23   52 1   
    45   23   53 1   
    46   24   25 1   
    47   24   54 1   
    48   24   55 1   
    49   25   56 1   
    50   25   57 1   
    51   26   27 1   
    52   26   58 1   
    53   26   59 1   
    54   27   28 1   
    55   27   60 1   
    56   27   61 1   
    57   28   29 ar  
    58   28   30 ar  
    59   29   35 ar  
    60   29   62 1   
    61   30   31 ar  
    62   30   63 1   
    63   31   32 1   
    64   31   34 ar  
    65   32   33 1   
    66   32   64 1   
    67   32   65 1   
    68   33   66 1   
    69   33   67 1   
    70   33   68 1   
    71   34   35 ar  
    72   35   36 1   
    73   36   37 1   
    74   36   69 1   
    75   36   70 1   
    76   37   71 1   
    77   37   72 1   
    78   37   73 1   
@<TRIPOS>SUBSTRUCTURE
     1 AG0         1 TEMP              0 ****  ****    0 ROOT
