@<TRIPOS>MOLECULE
AG0
   74    78     1     0     0
SMALL
bcc


@<TRIPOS>ATOM
      1 O19        -1.0180    1.2840   -2.3830 o         1 AG0     -0.581500
      2 C17        -0.6500    1.0260   -1.2350 c         1 AG0      0.741800
      3 C18        -1.0530   -0.1080   -0.3990 ce        1 AG0     -0.330400
      4 C13        -0.6840   -0.1140    0.9090 c2        1 AG0      0.194900
      5 O20        -0.9550   -1.0820    1.8230 oh        1 AG0     -0.482100
      6 C1         -1.8430   -1.1760   -1.0630 c3        1 AG0     -0.019500
      7 C9         -3.3080   -1.0620   -0.7680 cc        1 AG0      0.520300
      8 N8         -4.2600   -0.7870   -1.7230 nd        1 AG0     -0.551100
      9 N10        -3.8240   -1.2370    0.5290 nc        1 AG0     -0.395300
     10 C4         -5.1740   -1.0570    0.3770 cd        1 AG0      0.407500
     11 N5         -5.4160   -0.7770   -1.0460 na        1 AG0      0.009200
     12 C6         -6.7130   -0.5420   -1.4860 cc        1 AG0      0.073400
     13 C7         -7.7230   -0.5940   -0.5430 cd        1 AG0     -0.323300
     14 C12        -6.9760   -0.2460   -2.9210 c3        1 AG0     -0.067800
     15 N3         -6.2030   -1.1050    1.3040 nd        1 AG0     -0.631000
     16 C2         -7.4300   -0.8790    0.8390 cc        1 AG0      0.471600
     17 C11        -8.5990   -0.9110    1.7720 c3        1 AG0     -0.159400
     18 O16         0.2180    1.9840   -0.7510 os        1 AG0     -0.419900
     19 C15         0.9830    1.6850    0.4360 c3        1 AG0      0.175800
     20 C14         0.1100    1.0070    1.4960 c3        1 AG0     -0.089200
     21 C27         1.4820    3.0390    0.9640 c3        1 AG0     -0.057700
     22 C23         0.3570    4.0240    1.2900 c3        1 AG0     -0.077900
     23 C26         2.3860    3.7700   -0.0300 c3        1 AG0     -0.077900
     24 C25         2.1960    5.2590    0.2280 c3        1 AG0     -0.076400
     25 C24         0.9050    5.4200    1.0220 c3        1 AG0     -0.076400
     26 C21         2.1440    0.7770    0.0030 c3        1 AG0     -0.102400
     27 C22         3.1990    0.5560    1.0680 c3        1 AG0     -0.038100
     28 C29         4.2440   -0.3940    0.5960 ca        1 AG0     -0.040300
     29 C30         5.1590   -0.0130   -0.3900 ca        1 AG0     -0.250300
     30 C28         4.3430   -1.6790    1.1370 ca        1 AG0     -0.250300
     31 C33         5.3580   -2.5430    0.6710 ca        1 AG0      0.420100
     32 C34         5.4580   -3.9220    1.2630 c3        1 AG0     -0.129200
     33 C35         5.1020   -4.9920    0.2610 c3        1 AG0     -0.089100
     34 N32         6.2470   -2.1800   -0.2840 nb        1 AG0     -0.669000
     35 C31         6.1450   -0.9330   -0.8050 ca        1 AG0      0.420100
     36 C36         7.1200   -0.5140   -1.8700 c3        1 AG0     -0.129200
     37 C37         8.5220   -0.3810   -1.3290 c3        1 AG0     -0.089100
     38 H1         -1.6820   -1.1140   -2.1770 hc        1 AG0      0.081200
     39 H1A        -1.4910   -2.1890   -0.7220 hc        1 AG0      0.081200
     40 H7         -8.7640   -0.4160   -0.8420 ha        1 AG0      0.162000
     41 H12        -6.6400   -1.0990   -3.5640 hc        1 AG0      0.072367
     42 H12A       -8.0690   -0.0790   -3.0810 hc        1 AG0      0.072367
     43 H12B       -6.4170    0.6700   -3.2400 hc        1 AG0      0.072367
     44 H11        -9.3200   -1.6920    1.4260 hc        1 AG0      0.064033
     45 H11A       -8.3000   -1.1400    2.8250 hc        1 AG0      0.064033
     46 H11B       -9.1070    0.0850    1.7530 hc        1 AG0      0.064033
     47 H14        -0.6180    1.7500    1.9250 hc        1 AG0      0.090700
     48 H14A        0.7480    0.6330    2.3380 hc        1 AG0      0.090700
     49 H27         2.0580    2.8220    1.9050 hc        1 AG0      0.051700
     50 H23        -0.5280    3.8240    0.6340 hc        1 AG0      0.051200
     51 H23A        0.0300    3.9180    2.3530 hc        1 AG0      0.051200
     52 H26         3.4530    3.4660    0.1020 hc        1 AG0      0.051200
     53 H26A        2.0800    3.5180   -1.0780 hc        1 AG0      0.051200
     54 H25         3.0620    5.6690    0.8060 hc        1 AG0      0.041950
     55 H25A        2.1440    5.8200   -0.7380 hc        1 AG0      0.041950
     56 H24         0.1610    6.0270    0.4500 hc        1 AG0      0.041950
     57 H24A        1.1040    5.9550    1.9840 hc        1 AG0      0.041950
     58 H21         1.7140   -0.2110   -0.3120 hc        1 AG0      0.064200
     59 H21A        2.6230    1.2380   -0.9030 hc        1 AG0      0.064200
     60 H22         3.6900    1.5350    1.3230 hc        1 AG0      0.054200
     61 H22A        2.7260    0.1640    2.0070 hc        1 AG0      0.054200
     62 H30         5.1110    0.9890   -0.8370 ha        1 AG0      0.142500
     63 H28         3.6440   -2.0170    1.9130 ha        1 AG0      0.142500
     64 H34         6.5030   -4.0920    1.6390 hc        1 AG0      0.052950
     65 H34A        4.7690   -3.9870    2.1480 hc        1 AG0      0.052950
     66 H35         4.0670   -4.8390   -0.1310 hc        1 AG0      0.039533
     67 H35A        5.8110   -4.9780   -0.6020 hc        1 AG0      0.039533
     68 H35B        5.1520   -5.9970    0.7460 hc        1 AG0      0.039533
     69 H36         7.1080   -1.2670   -2.7040 hc        1 AG0      0.052950
     70 H36A        6.7860    0.4670   -2.3020 hc        1 AG0      0.052950
     71 H37         8.5560    0.3600   -0.4950 hc        1 AG0      0.039533
     72 H37A        8.8940   -1.3610   -0.9460 hc        1 AG0      0.039533
     73 H37B        9.2090   -0.0330   -2.1390 hc        1 AG0      0.039533
     74 H38        -1.5940   -1.7150    1.4560 ho        1 AG0      0.456000
@<TRIPOS>BOND
     1    1    2 2   
     2    2    3 1   
     3    2   18 1   
     4    3    4 2   
     5    3    6 1   
     6    4    5 1   
     7    4   20 1   
     8    5   74 1   
     9    6    7 1   
    10    6   38 1   
    11    6   39 1   
    12    7    8 2   
    13    7    9 1   
    14    8   11 1   
    15    9   10 2   
    16   10   11 1   
    17   10   15 1   
    18   11   12 1   
    19   12   13 2   
    20   12   14 1   
    21   13   16 1   
    22   13   40 1   
    23   14   41 1   
    24   14   42 1   
    25   14   43 1   
    26   15   16 2   
    27   16   17 1   
    28   17   44 1   
    29   17   45 1   
    30   17   46 1   
    31   18   19 1   
    32   19   20 1   
    33   19   21 1   
    34   19   26 1   
    35   20   47 1   
    36   20   48 1   
    37   21   22 1   
    38   21   23 1   
    39   21   49 1   
    40   22   25 1   
    41   22   50 1   
    42   22   51 1   
    43   23   24 1   
    44   23   52 1   
    45   23   53 1   
    46   24   25 1   
    47   24   54 1   
    48   24   55 1   
    49   25   56 1   
    50   25   57 1   
    51   26   27 1   
    52   26   58 1   
    53   26   59 1   
    54   27   28 1   
    55   27   60 1   
    56   27   61 1   
    57   28   29 ar  
    58   28   30 ar  
    59   29   35 ar  
    60   29   62 1   
    61   30   31 ar  
    62   30   63 1   
    63   31   32 1   
    64   31   34 ar  
    65   32   33 1   
    66   32   64 1   
    67   32   65 1   
    68   33   66 1   
    69   33   67 1   
    70   33   68 1   
    71   34   35 ar  
    72   35   36 1   
    73   36   37 1   
    74   36   69 1   
    75   36   70 1   
    76   37   71 1   
    77   37   72 1   
    78   37   73 1   
@<TRIPOS>SUBSTRUCTURE
     1 AG0         1 TEMP              0 ****  ****    0 ROOT
