@<TRIPOS>MOLECULE
AG2
   23    21     1     0     0
SMALL
bcc


@<TRIPOS>ATOM
      1 N          -3.6300    0.0750   -2.0340 n3        1 AG2     -0.916800
      2 CA         -2.2000   -0.0470   -2.0670 c3        1 AG2      0.160800
      3 CB         -1.6600   -0.0270   -0.6580 c3        1 AG2     -0.082400
      4 CG         -0.1320   -0.1800   -0.6920 c3        1 AG2     -0.088400
      5 CD          0.4380    0.0140    0.7430 c3        1 AG2      0.177800
      6 NE          1.8680   -0.2260    0.7320 nh        1 AG2     -0.771000
      7 CZ          2.6380   -0.0750    1.9490 c2        1 AG2      0.314000
      8 NH1         2.7650   -1.0910    2.7790 n1        1 AG2     -0.344000
      9 NH2         3.2640    1.1790    2.2510 nh        1 AG2     -0.811600
     10 HN1        -4.0070   -0.7060   -2.3050 hn        1 AG2      0.349800
     11 HN2        -3.8910    0.7490   -2.5930 hn        1 AG2      0.349800
     12 HA1        -1.8210    0.6990   -2.5720 h1        1 AG2      0.025200
     13 HA2        -1.9550   -0.8930   -2.4980 h1        1 AG2      0.025200
     14 HB1        -1.8900    0.8140   -0.2360 hc        1 AG2      0.050700
     15 HB2        -2.0490   -0.7610   -0.1520 hc        1 AG2      0.050700
     16 HG1         0.1020   -1.0810   -1.0220 hc        1 AG2      0.049200
     17 HG2         0.2520    0.4980   -1.2910 hc        1 AG2      0.049200
     18 HD1         0.2620    0.9350    1.0450 h1        1 AG2      0.041200
     19 HD2         0.0070   -0.6160    1.3520 h1        1 AG2      0.041200
     20 HE1         2.2820   -0.4930   -0.0400 hn        1 AG2      0.398800
     21 HH11        2.3670   -1.8930    2.5860 DU        1 AG2      0.149000
     22 HH21        3.7450    1.6170    1.6060 hn        1 AG2      0.390300
     23 HH22        3.2440    1.5090    3.1170 hn        1 AG2      0.390300
@<TRIPOS>BOND
     1    1    2 1   
     2    1   10 1   
     3    1   11 1   
     4    2    3 1   
     5    2   12 1   
     6    2   13 1   
     7    3    4 1   
     8    3   14 1   
     9    3   15 1   
    10    4    5 1   
    11    4   16 1   
    12    4   17 1   
    13    5    6 1   
    14    5   18 1   
    15    5   19 1   
    16    6    7 1   
    17    6   20 1   
    18    7    8 2   
    19    7    9 1   
    20    9   22 1   
    21    9   23 1   
@<TRIPOS>SUBSTRUCTURE
     1 AG2         1 TEMP              0 ****  ****    0 ROOT
