@<TRIPOS>MOLECULE
AG2
   26    25     1     0     0
SMALL
bcc


@<TRIPOS>ATOM
      1 N          -0.1080   -0.0000   -0.0400 nz        1 AG2     -0.837600
      2 CA          1.3810    0.0020    0.0110 c3        1 AG2      0.101800
      3 CB          1.9500   -0.0010    1.4330 c3        1 AG2     -0.106400
      4 CG          3.4710    0.0000    1.3670 c3        1 AG2     -0.107400
      5 CD          4.0460   -0.0000    2.7870 c3        1 AG2      0.105800
      6 NE          5.5580   -0.0000    2.7820 ny        1 AG2     -0.788000
      7 CZ          6.1570   -0.0000    4.1760 c2        1 AG2      0.615100
      8 NH1         5.5700   -0.0010    5.3000 n2        1 AG2     -0.575100
      9 NH2         7.6640   -0.0000    4.1940 nz        1 AG2     -0.821600
     10 HN1        -0.4910   -0.8370    0.4190 hn        1 AG2      0.481800
     11 HN2        -0.4160    0.0020   -1.0250 hn        1 AG2      0.481800
     12 HA1         1.7380    0.9200   -0.5440 hx        1 AG2      0.127700
     13 HA2         1.7400   -0.9140   -0.5470 hx        1 AG2      0.127700
     14 HB1         1.5930    0.9070    1.9920 hc        1 AG2      0.089700
     15 HB2         1.5950   -0.9100    1.9890 hc        1 AG2      0.089700
     16 HG1         3.8180    0.9110    0.8050 hc        1 AG2      0.095700
     17 HG2         3.8190   -0.9090    0.8040 hc        1 AG2      0.095700
     18 HD1         3.6990    0.9250    3.3350 hx        1 AG2      0.128700
     19 HD2         3.6990   -0.9260    3.3340 hx        1 AG2      0.128700
     20 HE1         5.8760    0.8390    2.2680 hn        1 AG2      0.486800
     21 HH11        4.5810   -0.0000    5.4650 hn        1 AG2      0.547400
     22 HH21        8.0410    0.8480    3.7400 hn        1 AG2      0.520800
     23 HH22        7.9960   -0.0010    5.1890 hn        1 AG2      0.520800
     24 HN3        -0.4930    0.8330    0.4230 hn        1 AG2      0.481800
     25 HE3         5.8760   -0.8390    2.2680 hn        1 AG2      0.486800
     26 HH23        8.0410   -0.8480    3.7390 hn        1 AG2      0.520800
@<TRIPOS>BOND
     1    1    2 1   
     2    1   10 1   
     3    1   11 1   
     4    1   24 1   
     5    2    3 1   
     6    2   12 1   
     7    2   13 1   
     8    3    4 1   
     9    3   14 1   
    10    3   15 1   
    11    4    5 1   
    12    4   16 1   
    13    4   17 1   
    14    5    6 1   
    15    5   18 1   
    16    5   19 1   
    17    6    7 1   
    18    6   20 1   
    19    6   25 1   
    20    7    8 2   
    21    7    9 1   
    22    8   21 1   
    23    9   22 1   
    24    9   23 1   
    25    9   26 1   
@<TRIPOS>SUBSTRUCTURE
     1 AG2         1 TEMP              0 ****  ****    0 ROOT
