@<TRIPOS>MOLECULE
AG2
   23    22     1     0     0
SMALL
bcc


@<TRIPOS>ATOM
      1 N          -0.3050   -0.0510    4.6490 n3        1 AG2     -0.916800
      2 CA          0.4950    0.0390    3.4510 c3        1 AG2      0.159800
      3 CB         -0.3310    0.0020    2.1660 c3        1 AG2     -0.082400
      4 CG          0.5840    0.0250    0.9610 c3        1 AG2     -0.089400
      5 CD         -0.2530    0.0150   -0.3200 c3        1 AG2      0.182800
      6 NE          0.5720    0.0670   -1.5120 nh        1 AG2     -0.795200
      7 CZ         -0.1040   -0.0220   -2.7800 c2        1 AG2      0.744100
      8 NH1        -1.4130   -0.0060   -2.8460 n2        1 AG2     -0.871100
      9 NH2         0.7700   -0.1360   -3.9160 nh        1 AG2     -0.934800
     10 HN1         0.2590    0.1160    5.4570 hn        1 AG2      0.348800
     11 HN2        -1.0580    0.6070    4.6310 hn        1 AG2      0.348800
     12 HA1         1.1340    0.9730    3.4260 h1        1 AG2      0.024200
     13 HA2         1.2010   -0.8410    3.4550 h1        1 AG2      0.024200
     14 HB1        -0.9640   -0.9240    2.1460 hc        1 AG2      0.051200
     15 HB2        -1.0250    0.8820    2.1300 hc        1 AG2      0.051200
     16 HG1         1.2310    0.9400    0.9920 hc        1 AG2      0.044700
     17 HG2         1.2630   -0.8680    0.9880 hc        1 AG2      0.044700
     18 HD1        -0.9190   -0.8970   -0.3050 h1        1 AG2      0.055700
     19 HD2        -0.9230    0.9210   -0.3290 h1        1 AG2      0.055700
     20 HE1         1.3390   -0.5770   -1.4570 hn        1 AG2      0.387800
     21 HH11       -1.7970    0.0220   -3.7650 hn        1 AG2      0.389400
     22 HH21        0.3980    0.2840   -4.7410 hn        1 AG2      0.388800
     23 HH22        1.7130    0.1430   -3.7550 hn        1 AG2      0.388800
@<TRIPOS>BOND
     1    1    2 1   
     2    1   10 1   
     3    1   11 1   
     4    2    3 1   
     5    2   12 1   
     6    2   13 1   
     7    3    4 1   
     8    3   14 1   
     9    3   15 1   
    10    4    5 1   
    11    4   16 1   
    12    4   17 1   
    13    5    6 1   
    14    5   18 1   
    15    5   19 1   
    16    6    7 1   
    17    6   20 1   
    18    7    8 2   
    19    7    9 1   
    20    8   21 1   
    21    9   22 1   
    22    9   23 1   
@<TRIPOS>SUBSTRUCTURE
     1 AG2         1 TEMP              0 ****  ****    0 ROOT
