@<TRIPOS>MOLECULE
AG3
   38    37     1     0     0
SMALL
bcc


@<TRIPOS>ATOM
      1 N          -0.1780   -0.6220    0.6020 ny        1 AG3     -0.765000
      2 CA          1.2560   -0.1850    0.5210 c3        1 AG3      0.107800
      3 CB          2.0090   -0.3240    1.8500 c3        1 AG3     -0.106400
      4 CG          3.4510    0.1410    1.6780 c3        1 AG3     -0.105400
      5 CD          4.2040    0.0010    3.0080 c3        1 AG3      0.105800
      6 NE          5.6440    0.4480    2.9010 ny        1 AG3     -0.789000
      7 CZ          6.4100    0.3180    4.2100 c2        1 AG3      0.619100
      8 NH1         7.8480    0.7600    4.1220 nz        1 AG3     -0.820600
      9 NH2         6.0050   -0.1030    5.3340 n2        1 AG3     -0.572100
     10 C7         -0.8820   -0.4720   -0.7160 c3        1 AG3      0.109800
     11 C8         -2.3490   -0.9110   -0.6650 c3        1 AG3     -0.138400
     12 C9         -2.9660   -0.7170   -2.0540 c3        1 AG3      0.105800
     13 N10        -4.4000   -1.1100   -2.1360 nz        1 AG3     -0.837600
     14 HN         -0.6670   -0.0600    1.3130 hn        1 AG3      0.466800
     15 HA1         1.2650    0.8940    0.1860 hx        1 AG3      0.125700
     16 HA2         1.7590   -0.8130   -0.2720 hx        1 AG3      0.125700
     17 HB1         1.9970   -1.3950    2.1890 hc        1 AG3      0.090700
     18 HB2         1.5070    0.2950    2.6430 hc        1 AG3      0.090700
     19 HG1         3.4590    1.2130    1.3380 hc        1 AG3      0.095700
     20 HG2         3.9490   -0.4790    0.8830 hc        1 AG3      0.095700
     21 HD1         4.1990   -1.0820    3.3310 hx        1 AG3      0.129700
     22 HD2         3.7000    0.6390    3.7940 hx        1 AG3      0.129700
     23 HNE         5.6530    1.4350    2.5950 hn        1 AG3      0.485800
     24 HH11        7.9170    1.7600    3.8710 hn        1 AG3      0.523467
     25 HH12        8.3750    0.1830    3.4460 hn        1 AG3      0.523467
     26 HNH2        5.0880   -0.4330    5.5700 hn        1 AG3      0.547400
     27 H71        -0.3220   -1.0940   -1.4760 hx        1 AG3      0.128700
     28 H72        -0.8160    0.6150   -1.0180 hx        1 AG3      0.128700
     29 H81        -2.4220   -1.9910   -0.3600 hc        1 AG3      0.099700
     30 H82        -2.9120   -0.2980    0.0930 hc        1 AG3      0.099700
     31 H91        -2.8960    0.3710   -2.3580 hx        1 AG3      0.131700
     32 H92        -2.4020   -1.3370   -2.8150 hx        1 AG3      0.131700
     33 H101       -4.5270   -2.1050   -1.9090 hn        1 AG3      0.486800
     34 H102       -4.7420   -0.9510   -3.0990 hn        1 AG3      0.486800
     35 HN3        -0.2180   -1.6070    0.8980 hn        1 AG3      0.466800
     36 HE3         6.1060   -0.1250    2.1750 hn        1 AG3      0.485800
     37 HH13        8.3020    0.6390    5.0620 hn        1 AG3      0.523467
     38 H103       -4.9760   -0.5500   -1.4930 hn        1 AG3      0.486800
@<TRIPOS>BOND
     1    1    2 1   
     2    1   10 1   
     3    1   14 1   
     4    1   35 1   
     5    2    3 1   
     6    2   15 1   
     7    2   16 1   
     8    3    4 1   
     9    3   17 1   
    10    3   18 1   
    11    4    5 1   
    12    4   19 1   
    13    4   20 1   
    14    5    6 1   
    15    5   21 1   
    16    5   22 1   
    17    6    7 1   
    18    6   23 1   
    19    6   36 1   
    20    7    8 1   
    21    7    9 2   
    22    8   24 1   
    23    8   25 1   
    24    8   37 1   
    25    9   26 1   
    26   10   11 1   
    27   10   27 1   
    28   10   28 1   
    29   11   12 1   
    30   11   29 1   
    31   11   30 1   
    32   12   13 1   
    33   12   31 1   
    34   12   32 1   
    35   13   33 1   
    36   13   34 1   
    37   13   38 1   
@<TRIPOS>SUBSTRUCTURE
     1 AG3         1 TEMP              0 ****  ****    0 ROOT
