@<TRIPOS>MOLECULE
AG3
   38    37     1     0     0
SMALL
bcc


@<TRIPOS>ATOM
      1 N          -0.1870   -0.6010    0.6190 n4        1 AG3     -0.765000
      2 CA          1.2550   -0.1960    0.5210 c3        1 AG3      0.107800
      3 CB          2.0090   -0.3090    1.8520 c3        1 AG3     -0.106400
      4 CG          3.4600    0.1210    1.6610 c3        1 AG3     -0.105400
      5 CD          4.2150    0.0070    2.9940 c3        1 AG3      0.105800
      6 NE          5.6620    0.4200    2.8690 n4        1 AG3     -0.789000
      7 CZ          6.4300    0.3150    4.1790 c2        1 AG3      0.619100
      8 NH1         7.8770    0.7240    4.0740 n4        1 AG3     -0.820600
      9 NH2         6.0200   -0.0620    5.3170 n2        1 AG3     -0.572100
     10 C7         -0.8920   -0.4770   -0.7010 c3        1 AG3      0.109800
     11 C8         -2.3680   -0.8850   -0.6330 c3        1 AG3     -0.138400
     12 C9         -2.9850   -0.7210   -2.0260 c3        1 AG3      0.105800
     13 N10        -4.4270   -1.0870   -2.0920 n4        1 AG3     -0.837600
     14 HN         -0.6620   -0.0080    1.3140 hn        1 AG3      0.466800
     15 HA1         1.2840    0.8730    0.1540 hx        1 AG3      0.125700
     16 HA2         1.7430   -0.8570   -0.2540 hx        1 AG3      0.125700
     17 HB1         1.9770   -1.3700    2.2230 hc        1 AG3      0.090700
     18 HB2         1.5230    0.3440    2.6270 hc        1 AG3      0.090700
     19 HG1         3.4880    1.1810    1.2890 hc        1 AG3      0.095700
     20 HG2         3.9430   -0.5330    0.8850 hc        1 AG3      0.095700
     21 HD1         4.1890   -1.0660    3.3490 hx        1 AG3      0.129700
     22 HD2         3.7260    0.6780    3.7600 hx        1 AG3      0.129700
     23 HNE         5.6910    1.3970    2.5330 hn        1 AG3      0.485800
     24 HH11        7.9650    1.7140    3.7920 hn        1 AG3      0.523467
     25 HH12        8.3900    0.1150    3.4150 hn        1 AG3      0.523467
     26 HNH2        5.0970   -0.3650    5.5650 hn        1 AG3      0.547400
     27 H71        -0.3470   -1.1320   -1.4440 hx        1 AG3      0.128700
     28 H72        -0.8060    0.5990   -1.0360 hx        1 AG3      0.128700
     29 H81        -2.4610   -1.9540   -0.2960 hc        1 AG3      0.099700
     30 H82        -2.9160   -0.2400    0.1080 hc        1 AG3      0.099700
     31 H91        -2.8940    0.3560   -2.3620 hx        1 AG3      0.131700
     32 H92        -2.4360   -1.3730   -2.7700 hx        1 AG3      0.131700
     33 H101       -4.5720   -2.0730   -1.8360 hn        1 AG3      0.486800
     34 H102       -4.7690   -0.9510   -3.0590 hn        1 AG3      0.486800
     35 HN3        -0.2460   -1.5760    0.9440 hn        1 AG3      0.466800
     36 HE3         6.1100   -0.1830    2.1600 hn        1 AG3      0.485800
     37 HH13        8.3310    0.6220    5.0160 hn        1 AG3      0.523467
     38 H103       -4.9900   -0.4980   -1.4650 hn        1 AG3      0.486800
@<TRIPOS>BOND
     1    1    2 1   
     2    1   10 1   
     3    1   14 1   
     4    1   35 1   
     5    2    3 1   
     6    2   15 1   
     7    2   16 1   
     8    3    4 1   
     9    3   17 1   
    10    3   18 1   
    11    4    5 1   
    12    4   19 1   
    13    4   20 1   
    14    5    6 1   
    15    5   21 1   
    16    5   22 1   
    17    6    7 1   
    18    6   23 1   
    19    6   36 1   
    20    7    8 1   
    21    7    9 2   
    22    8   24 1   
    23    8   25 1   
    24    8   37 1   
    25    9   26 1   
    26   10   11 1   
    27   10   27 1   
    28   10   28 1   
    29   11   12 1   
    30   11   29 1   
    31   11   30 1   
    32   12   13 1   
    33   12   31 1   
    34   12   32 1   
    35   13   33 1   
    36   13   34 1   
    37   13   38 1   
@<TRIPOS>SUBSTRUCTURE
     1 AG3         1 TEMP              0 ****  ****    0 ROOT
