@<TRIPOS>MOLECULE
AG3
   34    33     1     0     0
SMALL
bcc


@<TRIPOS>ATOM
      1 N           2.2460   -0.6110   -3.2900 n3        1 AG3     -0.826200
      2 CA          1.3700   -0.8660   -2.1640 c3        1 AG3      0.165800
      3 CB          1.9080   -0.3010   -0.8510 c3        1 AG3     -0.082400
      4 CG          0.9130   -0.5510    0.2630 c3        1 AG3     -0.090400
      5 CD          1.4550    0.0160    1.5770 c3        1 AG3      0.185800
      6 NE          0.5810   -0.2370    2.7000 nh        1 AG3     -0.847200
      7 CZ          0.7920    0.4790    3.9300 c2        1 AG3      0.750100
      8 NH1         2.0940    1.0420    4.1310 nh        1 AG3     -0.879800
      9 NH2        -0.1110    0.6230    4.8710 n2        1 AG3     -0.883100
     10 C7          1.8190   -1.2800   -4.5030 c3        1 AG3      0.169800
     11 C8          2.8300   -1.1970   -5.6410 c3        1 AG3     -0.122400
     12 C9          2.9930    0.2370   -6.1470 c3        1 AG3      0.151800
     13 N10         3.8690    0.4190   -7.2750 n3        1 AG3     -0.906800
     14 HN          3.1930   -0.8520   -3.0660 hn        1 AG3      0.356800
     15 HA1         1.1690   -1.9700   -2.0210 h1        1 AG3      0.029200
     16 HA2         0.3800   -0.3780   -2.3950 h1        1 AG3      0.029200
     17 HB1         2.0930    0.8000   -0.9550 hc        1 AG3      0.050200
     18 HB2         2.8880   -0.7840   -0.5970 hc        1 AG3      0.050200
     19 HG1         0.7270   -1.6520    0.3650 hc        1 AG3      0.048200
     20 HG2        -0.0660   -0.0660    0.0090 hc        1 AG3      0.048200
     21 HD1         1.6490    1.1190    1.4340 h1        1 AG3      0.043200
     22 HD2         2.4460   -0.4760    1.7960 h1        1 AG3      0.043200
     23 HNE        -0.3840   -0.2620    2.4360 hn        1 AG3      0.393800
     24 HH11        2.8290    0.4200    3.8660 hn        1 AG3      0.394300
     25 HH12        2.2220    1.3900    5.0600 hn        1 AG3      0.394300
     26 HNH2       -1.0290    0.3100    4.6460 hn        1 AG3      0.390400
     27 H71         1.5910   -2.3740   -4.3220 h1        1 AG3      0.029700
     28 H72         0.8560   -0.7920   -4.8300 h1        1 AG3      0.029700
     29 H81         3.8220   -1.6020   -5.3110 hc        1 AG3      0.039200
     30 H82         2.4600   -1.8550   -6.4710 hc        1 AG3      0.039200
     31 H91         1.9770    0.6320   -6.4340 h1        1 AG3      0.060700
     32 H92         3.3780    0.8790   -5.3040 h1        1 AG3      0.060700
     33 H101        3.5550   -0.1110   -8.0640 hn        1 AG3      0.342300
     34 H102        4.8040    0.1400   -7.0530 hn        1 AG3      0.342300
@<TRIPOS>BOND
     1    1    2 1   
     2    1   10 1   
     3    1   14 1   
     4    2    3 1   
     5    2   15 1   
     6    2   16 1   
     7    3    4 1   
     8    3   17 1   
     9    3   18 1   
    10    4    5 1   
    11    4   19 1   
    12    4   20 1   
    13    5    6 1   
    14    5   21 1   
    15    5   22 1   
    16    6    7 1   
    17    6   23 1   
    18    7    8 1   
    19    7    9 2   
    20    8   24 1   
    21    8   25 1   
    22    9   26 1   
    23   10   11 1   
    24   10   27 1   
    25   10   28 1   
    26   11   12 1   
    27   11   29 1   
    28   11   30 1   
    29   12   13 1   
    30   12   31 1   
    31   12   32 1   
    32   13   33 1   
    33   13   34 1   
@<TRIPOS>SUBSTRUCTURE
     1 AG3         1 TEMP              0 ****  ****    0 ROOT
