@<TRIPOS>MOLECULE
AG3
   38    37     1     0     0
SMALL
bcc


@<TRIPOS>ATOM
      1 N          -0.0710    0.0830    0.2960 n4        1 AG3     -0.765000
      2 CA          1.1750   -0.6290    0.7370 c3        1 AG3      0.107800
      3 CB          2.1120    0.2500    1.5740 c3        1 AG3     -0.106400
      4 CG          3.3460   -0.5500    1.9780 c3        1 AG3     -0.105400
      5 CD          4.2850    0.3310    2.8140 c3        1 AG3      0.105800
      6 NE          5.5300   -0.4080    3.2470 n4        1 AG3     -0.789000
      7 CZ          6.4760    0.4460    4.0780 c2        1 AG3      0.619100
      8 NH1         7.7230   -0.2750    4.5210 n4        1 AG3     -0.820600
      9 NH2         6.3530    1.6560    4.4370 n2        1 AG3     -0.572100
     10 C7         -0.9630   -0.8070   -0.5200 c3        1 AG3      0.109800
     11 C8         -2.2450   -0.1080   -0.9850 c3        1 AG3     -0.138400
     12 C9         -3.0750   -1.1020   -1.8040 c3        1 AG3      0.105800
     13 N10        -4.3550   -0.5390   -2.3160 n4        1 AG3     -0.837600
     14 HN          0.1870    0.9080   -0.2630 hn        1 AG3      0.466800
     15 HA1         0.8570   -1.5320    1.3390 hx        1 AG3      0.125700
     16 HA2         1.7100   -0.9860   -0.1920 hx        1 AG3      0.125700
     17 HB1         2.4270    1.1510    0.9800 hc        1 AG3      0.090700
     18 HB2         1.5810    0.6110    2.4960 hc        1 AG3      0.090700
     19 HG1         3.8750   -0.9120    1.0540 hc        1 AG3      0.095700
     20 HG2         3.0280   -1.4510    2.5720 hc        1 AG3      0.095700
     21 HD1         3.7460    0.6770    3.7450 hx        1 AG3      0.129700
     22 HD2         4.6070    1.2240    2.2010 hx        1 AG3      0.129700
     23 HNE         6.0210   -0.7380    2.4000 hn        1 AG3      0.485800
     24 HH11        8.3180    0.3820    5.0850 hn        1 AG3      0.523467
     25 HH12        8.2840   -0.5820    3.7090 hn        1 AG3      0.523467
     26 HNH2        5.5950    2.2800    4.2340 hn        1 AG3      0.547400
     27 H71        -1.2240   -1.7060    0.1140 hx        1 AG3      0.128700
     28 H72        -0.3700   -1.1580   -1.4170 hx        1 AG3      0.128700
     29 H81        -1.9920    0.7900   -1.6130 hc        1 AG3      0.099700
     30 H82        -2.8380    0.2460   -0.0970 hc        1 AG3      0.099700
     31 H91        -2.4790   -1.4540   -2.7000 hx        1 AG3      0.131700
     32 H92        -3.3320   -2.0040   -1.1700 hx        1 AG3      0.131700
     33 H101       -4.9630   -0.2360   -1.5430 hn        1 AG3      0.486800
     34 H102       -4.8550   -1.2660   -2.8560 hn        1 AG3      0.486800
     35 HN3        -0.5870    0.4120    1.1240 hn        1 AG3      0.466800
     36 HE3         5.2400   -1.2330    3.7980 hn        1 AG3      0.485800
     37 HH13        7.4930   -1.0810    5.1250 hn        1 AG3      0.523467
     38 H103       -4.1870    0.2640   -2.9360 hn        1 AG3      0.486800
@<TRIPOS>BOND
     1    1    2 1   
     2    1   10 1   
     3    1   14 1   
     4    1   35 1   
     5    2    3 1   
     6    2   15 1   
     7    2   16 1   
     8    3    4 1   
     9    3   17 1   
    10    3   18 1   
    11    4    5 1   
    12    4   19 1   
    13    4   20 1   
    14    5    6 1   
    15    5   21 1   
    16    5   22 1   
    17    6    7 1   
    18    6   23 1   
    19    6   36 1   
    20    7    8 1   
    21    7    9 2   
    22    8   24 1   
    23    8   25 1   
    24    8   37 1   
    25    9   26 1   
    26   10   11 1   
    27   10   27 1   
    28   10   28 1   
    29   11   12 1   
    30   11   29 1   
    31   11   30 1   
    32   12   13 1   
    33   12   31 1   
    34   12   32 1   
    35   13   33 1   
    36   13   34 1   
    37   13   38 1   
@<TRIPOS>SUBSTRUCTURE
     1 AG3         1 TEMP              0 ****  ****    0 ROOT
