@<TRIPOS>MOLECULE
AG3
   34    32     1     0     0
SMALL
bcc


@<TRIPOS>ATOM
      1 N          -1.6540   -0.0970   -0.7460 n3        1 AG3     -0.824200
      2 CA         -0.2070   -0.1300   -0.7380 c3        1 AG3      0.165800
      3 CB          0.2930   -0.1830    0.7140 c3        1 AG3     -0.083400
      4 CG          1.8590   -0.3310    0.7270 c3        1 AG3     -0.083400
      5 CD          2.3710   -0.2340    2.1580 c3        1 AG3      0.165800
      6 NE          3.7420   -0.6280    2.1980 nh        1 AG3     -0.754000
      7 CZ          4.5480   -0.2910    3.3260 c2        1 AG3      0.291000
      8 NH1         4.7120   -1.2290    4.3940 nh        1 AG3     -0.836600
      9 NH2         5.1360    0.8760    3.3840 n1        1 AG3     -0.287000
     10 C7         -2.1100    0.2810   -2.0280 c3        1 AG3      0.164800
     11 C8         -3.6180    0.3270   -2.0290 c3        1 AG3     -0.088400
     12 C9         -4.1170    0.8260   -3.3970 c3        1 AG3      0.159800
     13 N10        -5.5520    0.8400   -3.4010 n3        1 AG3     -0.916800
     14 HN         -1.9780   -0.9250   -0.5390 hn        1 AG3      0.356800
     15 HA1         0.1040   -0.9240   -1.2200 h1        1 AG3      0.029700
     16 HA2         0.1410    0.6760   -1.1760 h1        1 AG3      0.029700
     17 HB1        -0.1100   -0.9500    1.1690 hc        1 AG3      0.048200
     18 HB2         0.0380    0.6440    1.1770 hc        1 AG3      0.048200
     19 HG1         2.2610    0.3870    0.1870 hc        1 AG3      0.051200
     20 HG2         2.1070   -1.1990    0.3520 hc        1 AG3      0.051200
     21 HD1         1.8460   -0.8230    2.7330 h1        1 AG3      0.032200
     22 HD2         2.2890    0.6720    2.4670 h1        1 AG3      0.032200
     23 HNE         4.0950   -1.1480    1.5140 hn        1 AG3      0.383800
     24 HH11        4.0100   -1.4150    4.9520 hn        1 AG3      0.391300
     25 HH12        5.5140   -1.6440    4.5180 hn        1 AG3      0.391300
     26 HNH2        5.0290    1.4850    2.6910 DU        1 AG3      0.167000
     27 H71        -1.7560    1.1660   -2.2530 h1        1 AG3      0.029200
     28 H72        -1.8040   -0.3690   -2.6850 h1        1 AG3      0.029200
     29 H81        -3.9250    0.9380   -1.3280 hc        1 AG3      0.053200
     30 H82        -3.9750   -0.5760   -1.8570 hc        1 AG3      0.053200
     31 H91        -3.7800    1.7300   -3.5580 h1        1 AG3      0.025200
     32 H92        -3.7940    0.2250   -4.1040 h1        1 AG3      0.025200
     33 H101       -5.8650    0.3230   -4.1040 hn        1 AG3      0.349800
     34 H102       -5.8490    1.6990   -3.4980 hn        1 AG3      0.349800
@<TRIPOS>BOND
     1    1    2 1   
     2    1   10 1   
     3    1   14 1   
     4    2    3 1   
     5    2   15 1   
     6    2   16 1   
     7    3    4 1   
     8    3   17 1   
     9    3   18 1   
    10    4    5 1   
    11    4   19 1   
    12    4   20 1   
    13    5    6 1   
    14    5   21 1   
    15    5   22 1   
    16    6    7 1   
    17    6   23 1   
    18    7    8 1   
    19    7    9 2   
    20    8   24 1   
    21    8   25 1   
    22   10   11 1   
    23   10   27 1   
    24   10   28 1   
    25   11   12 1   
    26   11   29 1   
    27   11   30 1   
    28   12   13 1   
    29   12   31 1   
    30   12   32 1   
    31   13   33 1   
    32   13   34 1   
@<TRIPOS>SUBSTRUCTURE
     1 AG3         1 TEMP              0 ****  ****    0 ROOT
