@<TRIPOS>MOLECULE
AG4
   46    47     1     0     0
SMALL
bcc


@<TRIPOS>ATOM
      1 O14        -0.8080   -0.8330   -0.3030 o         1 AG4     -0.391100
      2 C1          0.2970   -0.3110   -0.2660 c         1 AG4      0.570700
      3 N15         0.8360   -0.0100    1.1140 n4        1 AG4     -0.675800
      4 C16        -0.1000    0.8720    1.8870 c3        1 AG4      0.126800
      5 C17         0.4540    1.2710    3.2440 c3        1 AG4     -0.124400
      6 C19         1.8250    1.9280    3.1880 c3        1 AG4      0.107400
      7 O18         2.0350    2.4520    1.8750 os        1 AG4     -0.510600
      8 C20         2.9010    3.5860    1.8600 c3        1 AG4      0.110700
      9 C6          1.1630    0.0590   -1.3910 ca        1 AG4     -0.367900
     10 C7          1.7350    1.3190   -1.4570 ca        1 AG4      0.132000
     11 C5          1.3590   -0.8740   -2.4880 ca        1 AG4      0.501600
     12 N4          2.1420   -0.4830   -3.5620 nb        1 AG4     -0.677000
     13 C3          2.6750    0.7140   -3.5930 ca        1 AG4      0.586200
     14 C2          2.5090    1.7190   -2.5700 ca        1 AG4     -0.756800
     15 S8          3.2640    3.1120   -2.6550 sy        1 AG4      1.510200
     16 O12         4.3610    3.1290   -3.4860 o         1 AG4     -0.568300
     17 O11         3.1920    3.8430   -1.4840 o         1 AG4     -0.568300
     18 N9          2.0330    4.0860   -3.7400 n4        1 AG4     -0.792500
     19 S10         0.7000   -2.3600   -2.4390 ss        1 AG4      0.227800
     20 C13         1.0850   -3.2360   -3.8100 ca        1 AG4     -0.202100
     21 C21         2.3600   -3.7810   -4.0260 ca        1 AG4     -0.038000
     22 C22         2.5790   -4.6480   -5.0920 ca        1 AG4     -0.132500
     23 C23         1.5310   -4.9710   -5.9580 ca        1 AG4     -0.033000
     24 C24         0.2620   -4.4200   -5.7580 ca        1 AG4     -0.132500
     25 C25         0.0410   -3.5470   -4.6980 ca        1 AG4     -0.038000
     26 HN15        0.9550   -0.8940    1.6240 hn        1 AG4      0.470300
     27 H16        -0.2690    1.7990    1.2650 hx        1 AG4      0.114200
     28 H16A       -1.0770    0.3180    2.0060 hx        1 AG4      0.114200
     29 H17         0.5030    0.3870    3.9340 hc        1 AG4      0.101700
     30 H17A       -0.2910    1.9920    3.6840 hc        1 AG4      0.101700
     31 H19         1.8900    2.7410    3.9600 h1        1 AG4      0.068200
     32 H19A        2.6400    1.1800    3.3880 h1        1 AG4      0.068200
     33 H20         2.4490    4.4230    2.4480 h1        1 AG4      0.061700
     34 H20A        3.9000    3.3120    2.2780 h1        1 AG4      0.061700
     35 H20B        2.9810    3.8620    0.7780 h1        1 AG4      0.061700
     36 H7          1.6010    2.0470   -0.6260 ha        1 AG4      0.176000
     37 H3          3.3140    0.9330   -4.4810 h4        1 AG4      0.074100
     38 HN9         2.4960    4.4130   -4.5910 hn        1 AG4      0.462467
     39 HN9A        1.2240    3.5390   -4.0230 hn        1 AG4      0.462467
     40 H21         3.1920   -3.5290   -3.3500 ha        1 AG4      0.147500
     41 H22         3.5800   -5.0820   -5.2510 ha        1 AG4      0.170000
     42 H23         1.7060   -5.6620   -6.8010 ha        1 AG4      0.171000
     43 H24        -0.5650   -4.6750   -6.4420 ha        1 AG4      0.170000
     44 H25        -0.9620   -3.1120   -4.5490 ha        1 AG4      0.147500
     45 H152        1.7530    0.4570    1.0490 hn        1 AG4      0.470300
     46 H93         1.6920    4.9110   -3.2460 hn        1 AG4      0.462467
@<TRIPOS>BOND
     1    1    2 2   
     2    2    3 1   
     3    2    9 1   
     4    3    4 1   
     5    3   26 1   
     6    3   45 1   
     7    4    5 1   
     8    4   27 1   
     9    4   28 1   
    10    5    6 1   
    11    5   29 1   
    12    5   30 1   
    13    6    7 1   
    14    6   31 1   
    15    6   32 1   
    16    7    8 1   
    17    8   33 1   
    18    8   34 1   
    19    8   35 1   
    20    9   10 ar  
    21    9   11 ar  
    22   10   14 ar  
    23   10   36 1   
    24   11   12 ar  
    25   11   19 1   
    26   12   13 ar  
    27   13   14 ar  
    28   13   37 1   
    29   14   15 1   
    30   15   16 2   
    31   15   17 2   
    32   15   18 1   
    33   18   38 1   
    34   18   39 1   
    35   18   46 1   
    36   19   20 1   
    37   20   21 ar  
    38   20   25 ar  
    39   21   22 ar  
    40   21   40 1   
    41   22   23 ar  
    42   22   41 1   
    43   23   24 ar  
    44   23   42 1   
    45   24   25 ar  
    46   24   43 1   
    47   25   44 1   
@<TRIPOS>SUBSTRUCTURE
     1 AG4         1 TEMP              0 ****  ****    0 ROOT
