@<TRIPOS>MOLECULE
AG4
   46    47     1     0     0
SMALL
bcc


@<TRIPOS>ATOM
      1 O14        -0.8460   -0.8000   -0.3550 o         1 AG4     -0.391100
      2 C1          0.2680   -0.2990   -0.2950 c         1 AG4      0.570700
      3 N15         0.7920   -0.0280    1.0970 n4        1 AG4     -0.675800
      4 C16        -0.1400    0.8600    1.8690 c3        1 AG4      0.126800
      5 C17         0.4020    1.2310    3.2390 c3        1 AG4     -0.124400
      6 C19         1.7850    1.8650    3.2120 c3        1 AG4      0.107400
      7 O18         2.0220    2.4020    1.9090 os        1 AG4     -0.510600
      8 C20         2.9080    3.5210    1.9220 c3        1 AG4      0.110700
      9 C6          1.1590    0.0680   -1.4010 ca        1 AG4     -0.367900
     10 C7          1.7540    1.3190   -1.4420 ca        1 AG4      0.132000
     11 C5          1.3560   -0.8540   -2.5060 ca        1 AG4      0.501600
     12 N4          2.1620   -0.4630   -3.5640 nb        1 AG4     -0.677000
     13 C3          2.7160    0.7250   -3.5710 ca        1 AG4      0.586200
     14 C2          2.5520    1.7190   -2.5370 ca        1 AG4     -0.755800
     15 S8          3.3320    3.1000   -2.5940 sy        1 AG4      1.510200
     16 O12         4.4420    3.1070   -3.4080 o         1 AG4     -0.568300
     17 O11         3.2550    3.8170   -1.4140 o         1 AG4     -0.568300
     18 N9          2.1350    4.1090   -3.6850 n4        1 AG4     -0.792500
     19 S10         0.6710   -2.3300   -2.4860 ss        1 AG4      0.225800
     20 C13         1.0630   -3.1960   -3.8610 ca        1 AG4     -0.202100
     21 C21         2.3270   -3.7730   -4.0540 ca        1 AG4     -0.038000
     22 C22         2.5480   -4.6310   -5.1270 ca        1 AG4     -0.132500
     23 C23         1.5130   -4.9120   -6.0230 ca        1 AG4     -0.033000
     24 C24         0.2560   -4.3270   -5.8470 ca        1 AG4     -0.132500
     25 C25         0.0330   -3.4640   -4.7790 ca        1 AG4     -0.038000
     26 HN15        0.8880   -0.9210    1.5970 hn        1 AG4      0.470300
     27 H16        -1.1270    0.3220    1.9670 hx        1 AG4      0.114200
     28 H16A       -0.2840    1.7980    1.2580 hx        1 AG4      0.114200
     29 H17         0.4260    0.3370    3.9180 hc        1 AG4      0.101700
     30 H17A       -0.3370    1.9590    3.6790 hc        1 AG4      0.101700
     31 H19         1.8530    2.6660    3.9950 h1        1 AG4      0.068200
     32 H19A        2.5840    1.1000    3.4130 h1        1 AG4      0.068200
     33 H20         2.4620    4.3580    2.5140 h1        1 AG4      0.061700
     34 H20A        3.0080    3.8090    0.8450 h1        1 AG4      0.061700
     35 H20B        3.8960    3.2240    2.3500 h1        1 AG4      0.061700
     36 H7          1.6190    2.0380   -0.6040 ha        1 AG4      0.176000
     37 H3          3.3720    0.9440   -4.4460 h4        1 AG4      0.074100
     38 HN9         1.8020    4.9330   -3.1850 hn        1 AG4      0.462467
     39 HN9A        2.6170    4.4380   -4.5230 hn        1 AG4      0.462467
     40 H21         3.1490   -3.5550   -3.3530 ha        1 AG4      0.147500
     41 H22         3.5400   -5.0910   -5.2680 ha        1 AG4      0.170000
     42 H23         1.6900   -5.5950   -6.8720 ha        1 AG4      0.171000
     43 H24        -0.5600   -4.5490   -6.5540 ha        1 AG4      0.170000
     44 H25        -0.9600   -3.0020   -4.6480 ha        1 AG4      0.147500
     45 H152        1.7180    0.4230    1.0530 hn        1 AG4      0.470300
     46 H93         1.3220    3.5800   -3.9860 hn        1 AG4      0.462467
@<TRIPOS>BOND
     1    1    2 2   
     2    2    3 1   
     3    2    9 1   
     4    3    4 1   
     5    3   26 1   
     6    3   45 1   
     7    4    5 1   
     8    4   27 1   
     9    4   28 1   
    10    5    6 1   
    11    5   29 1   
    12    5   30 1   
    13    6    7 1   
    14    6   31 1   
    15    6   32 1   
    16    7    8 1   
    17    8   33 1   
    18    8   34 1   
    19    8   35 1   
    20    9   10 ar  
    21    9   11 ar  
    22   10   14 ar  
    23   10   36 1   
    24   11   12 ar  
    25   11   19 1   
    26   12   13 ar  
    27   13   14 ar  
    28   13   37 1   
    29   14   15 1   
    30   15   16 2   
    31   15   17 2   
    32   15   18 1   
    33   18   38 1   
    34   18   39 1   
    35   18   46 1   
    36   19   20 1   
    37   20   21 ar  
    38   20   25 ar  
    39   21   22 ar  
    40   21   40 1   
    41   22   23 ar  
    42   22   41 1   
    43   23   24 ar  
    44   23   42 1   
    45   24   25 ar  
    46   24   43 1   
    47   25   44 1   
@<TRIPOS>SUBSTRUCTURE
     1 AG4         1 TEMP              0 ****  ****    0 ROOT
