@<TRIPOS>MOLECULE
AG4
   44    39     1     0     0
SMALL
bcc


@<TRIPOS>ATOM
      1 O14        -1.6370    2.2100    1.2800 o         1 AG4     -0.348000
      2 C1         -0.5350    1.7210    1.1290 c1        1 AG4      0.345000
      3 N15         0.1270    1.0800    2.2380 n2        1 AG4     -0.366000
      4 C16        -0.6520    0.3800    3.2430 c3        1 AG4     -0.031000
      5 C17        -0.0050   -0.9430    3.5450 c3        1 AG4     -0.221000
      6 C19        -0.8900   -1.7410    4.5110 c3        1 AG4     -0.021000
      7 O18        -0.8420   -3.1220    4.1640 os        1 AG4     -0.271000
      8 C20        -0.5190   -3.9850    5.2530 c3        1 AG4     -0.077000
      9 C6          0.1750    1.8560   -0.1970 c2        1 AG4     -0.200000
     10 C7          1.1310    2.8130   -0.3650 c1        1 AG4      0.082000
     11 C5         -0.1170    0.9780   -1.2320 c2        1 AG4     -0.108000
     12 N4          0.5540    1.0730   -2.4180 n1        1 AG4     -0.179000
     13 C3          1.5070    2.0260   -2.5880 c1        1 AG4      0.072000
     14 C2          1.8020    2.9070   -1.5530 c1        1 AG4     -0.910000
     15 S8          3.1480    4.0620   -1.7220 s4        1 AG4      2.092800
     16 O12         3.3830    4.7720   -0.4910 o         1 AG4     -0.542400
     17 O11         2.8060    5.1370   -2.6040 o         1 AG4     -0.542400
     18 N9          4.4860    3.2960   -2.2230 n2        1 AG4     -0.955000
     19 S10        -1.4930   -0.1130   -1.0910 ss        1 AG4      0.397000
     20 C13        -1.6970   -1.0070   -2.6120 c2        1 AG4     -0.287000
     21 C21        -1.0030   -2.1980   -2.8170 c2        1 AG4     -0.080000
     22 C22        -1.2290   -2.9450   -3.9710 c1        1 AG4     -0.142000
     23 C23        -2.1520   -2.5020   -4.9220 c1        1 AG4     -0.117500
     24 C24        -2.8460   -1.3130   -4.7190 c1        1 AG4     -0.117500
     25 C25        -2.6220   -0.5640   -3.5670 c1        1 AG4     -0.054000
     26 HN15        1.0530    1.1280    2.3180 hn        1 AG4      0.227000
     27 H16        -0.6910    0.9160    4.0560 h1        1 AG4      0.104500
     28 H16A       -1.5590    0.2300    2.9070 h1        1 AG4      0.104500
     29 H17         0.1060   -1.4430    2.7210 hc        1 AG4      0.094500
     30 H17A        0.8760   -0.7900    3.9570 hc        1 AG4      0.094500
     31 H19        -1.8140   -1.4200    4.4490 h1        1 AG4      0.089500
     32 H19A       -0.5650   -1.6220    5.4240 h1        1 AG4      0.089500
     33 H20        -1.2060   -3.9060    5.9480 h1        1 AG4      0.071667
     34 H20A        0.3460   -3.7330    5.6230 h1        1 AG4      0.071667
     35 H20B       -0.4810   -4.9120    4.9350 h1        1 AG4      0.071667
     36 H7          1.3380    3.4320    0.3660 ha        1 AG4      0.177000
     37 H3          1.9870    2.0920   -3.4410 ha        1 AG4      0.190000
     38 HN9         4.7580    3.3730   -3.0920 hn        1 AG4      0.243500
     39 HN9A        4.9850    2.8210   -1.6320 hn        1 AG4      0.243500
     40 H21        -0.3470   -2.5140   -2.1410 ha        1 AG4      0.139000
     41 H22        -0.7430   -3.7800   -4.1150 ha        1 AG4      0.138000
     42 H23        -2.3090   -3.0250   -5.7270 ha        1 AG4      0.139500
     43 H24        -3.5060   -0.9970   -5.4010 ha        1 AG4      0.139500
     44 H25        -3.1100    0.2710   -3.4240 ha        1 AG4      0.150000
@<TRIPOS>BOND
     1    1    2 1   
     2    2    9 1   
     3    3    4 1   
     4    3   26 1   
     5    4    5 1   
     6    4   27 1   
     7    4   28 1   
     8    5    6 1   
     9    5   29 1   
    10    5   30 1   
    11    6    7 1   
    12    6   31 1   
    13    6   32 1   
    14    7    8 1   
    15    8   33 1   
    16    8   34 1   
    17    8   35 1   
    18    9   10 1   
    19    9   11 1   
    20   10   36 1   
    21   11   12 1   
    22   11   19 1   
    23   13   14 1   
    24   13   37 1   
    25   14   15 1   
    26   15   16 1   
    27   15   17 1   
    28   18   38 1   
    29   18   39 1   
    30   19   20 1   
    31   20   21 1   
    32   20   25 1   
    33   21   22 1   
    34   21   40 1   
    35   22   41 1   
    36   23   24 1   
    37   23   42 1   
    38   24   43 1   
    39   25   44 1   
@<TRIPOS>SUBSTRUCTURE
     1 AG4         1 TEMP              0 ****  ****    0 ROOT
