@<TRIPOS>MOLECULE
AG4
   44    45     1     0     0
SMALL
bcc


@<TRIPOS>ATOM
      1 O14        67.3240   72.7660   97.1120 o         1 AG4     -0.609100
      2 C1         67.6370   72.7920   98.3220 c         1 AG4      0.677700
      3 N15        68.8710   72.3580   98.7570 n         1 AG4     -0.558900
      4 C16        69.8400   71.7810   97.8640 c3        1 AG4      0.085000
      5 C17        69.8820   70.2540   97.8340 c3        1 AG4     -0.140400
      6 C19        68.6660   69.6280   97.1710 c3        1 AG4      0.126400
      7 O18        68.8890   69.3300   95.7990 os        1 AG4     -0.422600
      8 C20        68.8620   70.4610   94.9440 c3        1 AG4      0.106700
      9 C6         66.6670   73.2920   99.3390 ca        1 AG4     -0.293900
     10 C7         65.3280   72.9270   99.1650 ca        1 AG4      0.084000
     11 C5         67.0030   74.1390  100.4290 ca        1 AG4      0.546600
     12 N4         66.0590   74.5610  101.3140 nb        1 AG4     -0.707000
     13 C3         64.7920   74.1830  101.1310 ca        1 AG4      0.540200
     14 C2         64.3500   73.3690  100.0610 ca        1 AG4     -0.533800
     15 S8         62.7290   72.9280   99.9110 sy        1 AG4      1.538200
     16 O12        62.0980   73.2000  101.1440 o         1 AG4     -0.657300
     17 O11        62.6780   71.6080   99.4190 o         1 AG4     -0.657300
     18 N9         62.1730   73.9300   98.7950 n3        1 AG4     -1.026700
     19 S10        68.6170   74.6320  100.5970 ss        1 AG4     -0.133200
     20 C13        68.7390   75.6740  101.9360 ca        1 AG4     -0.068100
     21 C21        68.3930   75.3060  103.2390 ca        1 AG4     -0.067000
     22 C22        68.6350   76.1780  104.3010 ca        1 AG4     -0.141500
     23 C23        69.2310   77.4160  104.0680 ca        1 AG4     -0.095000
     24 C24        69.5780   77.7890  102.7680 ca        1 AG4     -0.141500
     25 C25        69.3220   76.9270  101.7040 ca        1 AG4     -0.067000
     26 HN15       69.0330   72.2620   99.7330 hn        1 AG4      0.317500
     27 H16        69.6310   72.1590   96.8210 h1        1 AG4      0.064200
     28 H16A       70.8550   72.1570   98.1830 h1        1 AG4      0.064200
     29 H17        70.8030   69.9500   97.2690 hc        1 AG4      0.057700
     30 H17A       69.9750   69.8520   98.8760 hc        1 AG4      0.057700
     31 H19        68.4570   68.6190   97.6210 h1        1 AG4      0.053700
     32 H19A       67.7610   70.2840   97.2820 h1        1 AG4      0.053700
     33 H20        69.8480   70.9880   94.9860 h1        1 AG4      0.037700
     34 H20A       68.6970   70.0360   93.9220 h1        1 AG4      0.037700
     35 H20B       68.0390   71.1670   95.2180 h1        1 AG4      0.037700
     36 H7         65.0530   72.2780   98.3120 ha        1 AG4      0.173000
     37 H3         64.0670   74.5400  101.8940 h4        1 AG4      0.054100
     38 HN9        61.7830   74.8150   98.9990 hn        1 AG4      0.450300
     39 HN9A       62.1680   73.7240   97.8280 hn        1 AG4      0.450300
     40 H21        67.9210   74.3300  103.4310 ha        1 AG4      0.145000
     41 H22        68.3540   75.8840  105.3230 ha        1 AG4      0.139500
     42 H23        69.4250   78.1020  104.9060 ha        1 AG4      0.137000
     43 H24        70.0460   78.7660  102.5800 ha        1 AG4      0.139500
     44 H25        69.5790   77.2280  100.6760 ha        1 AG4      0.145000
@<TRIPOS>BOND
     1    1    2 2   
     2    2    3 1   
     3    2    9 1   
     4    3    4 1   
     5    3   26 1   
     6    4    5 1   
     7    4   27 1   
     8    4   28 1   
     9    5    6 1   
    10    5   29 1   
    11    5   30 1   
    12    6    7 1   
    13    6   31 1   
    14    6   32 1   
    15    7    8 1   
    16    8   33 1   
    17    8   34 1   
    18    8   35 1   
    19    9   10 ar  
    20    9   11 ar  
    21   10   14 ar  
    22   10   36 1   
    23   11   12 ar  
    24   11   19 1   
    25   12   13 ar  
    26   13   14 ar  
    27   13   37 1   
    28   14   15 1   
    29   15   16 2   
    30   15   17 2   
    31   15   18 1   
    32   18   38 1   
    33   18   39 1   
    34   19   20 1   
    35   20   21 ar  
    36   20   25 ar  
    37   21   22 ar  
    38   21   40 1   
    39   22   23 ar  
    40   22   41 1   
    41   23   24 ar  
    42   23   42 1   
    43   24   25 ar  
    44   24   43 1   
    45   25   44 1   
@<TRIPOS>SUBSTRUCTURE
     1 AG4         1 TEMP              0 ****  ****    0 ROOT
