@<TRIPOS>MOLECULE
AG4
   46    47     1     0     0
SMALL
bcc


@<TRIPOS>ATOM
      1 O14        -0.8100   -0.8070   -0.2800 o         1 AG4     -0.391100
      2 C1          0.2990   -0.2930   -0.2540 c         1 AG4      0.570700
      3 N15         0.8500    0.0130    1.1200 ny        1 AG4     -0.675800
      4 C16        -0.0750    0.9070    1.8940 c3        1 AG4      0.126800
      5 C17         0.4920    1.3110    3.2440 c3        1 AG4     -0.124400
      6 C19         1.8670    1.9580    3.1740 c3        1 AG4      0.107400
      7 O18         2.0710    2.4720    1.8560 os        1 AG4     -0.510600
      8 C20         2.9440    3.6000    1.8270 c3        1 AG4      0.110700
      9 C6          1.1610    0.0620   -1.3870 ca        1 AG4     -0.367900
     10 C7          1.7410    1.3180   -1.4660 ca        1 AG4      0.132000
     11 C5          1.3440   -0.8800   -2.4780 ca        1 AG4      0.501600
     12 N4          2.1220   -0.5020   -3.5610 nb        1 AG4     -0.677000
     13 C3          2.6630    0.6920   -3.6040 ca        1 AG4      0.586200
     14 C2          2.5110    1.7050   -2.5860 ca        1 AG4     -0.756800
     15 S8          3.2740    3.0920   -2.6870 sy        1 AG4      1.510200
     16 O12         4.3650    3.0950   -3.5250 o         1 AG4     -0.568300
     17 O11         3.2150    3.8320   -1.5200 o         1 AG4     -0.568300
     18 N9          2.0420    4.0660   -3.7710 nz        1 AG4     -0.792500
     19 S10         0.6750   -2.3620   -2.4140 ss        1 AG4      0.226800
     20 C13         1.0460   -3.2500   -3.7810 ca        1 AG4     -0.202100
     21 C21         2.3150   -3.8080   -3.9980 ca        1 AG4     -0.038000
     22 C22         2.5210   -4.6840   -5.0590 ca        1 AG4     -0.132500
     23 C23         1.4660   -5.0040   -5.9190 ca        1 AG4     -0.033000
     24 C24         0.2040   -4.4400   -5.7180 ca        1 AG4     -0.132500
     25 C25        -0.0050   -3.5580   -4.6620 ca        1 AG4     -0.038000
     26 HN15        0.9670   -0.8690    1.6360 hn        1 AG4      0.470300
     27 H16        -0.2420    1.8300    1.2670 hx        1 AG4      0.114200
     28 H16A       -1.0540    0.3600    2.0240 hx        1 AG4      0.114200
     29 H17         0.5400    0.4310    3.9400 hc        1 AG4      0.101700
     30 H17A       -0.2450    2.0400    3.6850 hc        1 AG4      0.101700
     31 H19         1.9430    2.7760    3.9400 h1        1 AG4      0.068200
     32 H19A        2.6790    1.2060    3.3740 h1        1 AG4      0.068200
     33 H20         2.5020    4.4440    2.4120 h1        1 AG4      0.061700
     34 H20A        3.9440    3.3220    2.2400 h1        1 AG4      0.061700
     35 H20B        3.0180    3.8680    0.7430 h1        1 AG4      0.061700
     36 H7          1.6170    2.0520   -0.6390 ha        1 AG4      0.176000
     37 H3          3.2980    0.9000   -4.4970 h4        1 AG4      0.074100
     38 HN9         2.5020    4.3840   -4.6270 hn        1 AG4      0.462467
     39 HN9A        1.2280    3.5230   -4.0440 hn        1 AG4      0.462467
     40 H21         3.1520   -3.5590   -3.3270 ha        1 AG4      0.147500
     41 H22         3.5180   -5.1280   -5.2200 ha        1 AG4      0.170000
     42 H23         1.6310   -5.7020   -6.7580 ha        1 AG4      0.171000
     43 H24        -0.6280   -4.6920   -6.3960 ha        1 AG4      0.170000
     44 H25        -1.0030   -3.1120   -4.5120 ha        1 AG4      0.147500
     45 H152        1.7700    0.4730    1.0460 hn        1 AG4      0.470300
     46 H93         1.7110    4.8970   -3.2800 hn        1 AG4      0.462467
@<TRIPOS>BOND
     1    1    2 2   
     2    2    3 1   
     3    2    9 1   
     4    3    4 1   
     5    3   26 1   
     6    3   45 1   
     7    4    5 1   
     8    4   27 1   
     9    4   28 1   
    10    5    6 1   
    11    5   29 1   
    12    5   30 1   
    13    6    7 1   
    14    6   31 1   
    15    6   32 1   
    16    7    8 1   
    17    8   33 1   
    18    8   34 1   
    19    8   35 1   
    20    9   10 ar  
    21    9   11 ar  
    22   10   14 ar  
    23   10   36 1   
    24   11   12 ar  
    25   11   19 1   
    26   12   13 ar  
    27   13   14 ar  
    28   13   37 1   
    29   14   15 1   
    30   15   16 2   
    31   15   17 2   
    32   15   18 1   
    33   18   38 1   
    34   18   39 1   
    35   18   46 1   
    36   19   20 1   
    37   20   21 ar  
    38   20   25 ar  
    39   21   22 ar  
    40   21   40 1   
    41   22   23 ar  
    42   22   41 1   
    43   23   24 ar  
    44   23   42 1   
    45   24   25 ar  
    46   24   43 1   
    47   25   44 1   
@<TRIPOS>SUBSTRUCTURE
     1 AG4         1 TEMP              0 ****  ****    0 ROOT
