@<TRIPOS>MOLECULE
AG5
   49    51     1     0     0
SMALL
bcc


@<TRIPOS>ATOM
      1 O14         4.0650   -1.4860    1.0830 o         1 AG5     -0.396100
      2 C1          3.5570   -0.5780    0.4390 c         1 AG5      0.568700
      3 N15         2.8650    0.4950    1.2380 n4        1 AG5     -0.672800
      4 C16         1.7520   -0.0630    2.0800 c3        1 AG5      0.103800
      5 C17         1.2000    0.9640    3.0700 c3        1 AG5     -0.042100
      6 C18         0.1140    0.3220    3.8600 ca        1 AG5     -0.142300
      7 C24         0.4340   -0.5200    4.9320 ca        1 AG5     -0.115500
      8 C25        -0.5810   -1.0950    5.6940 ca        1 AG5     -0.114000
      9 C26        -1.9180   -0.8300    5.3920 ca        1 AG5     -0.090000
     10 C27        -2.2390    0.0120    4.3270 ca        1 AG5     -0.114000
     11 C28        -1.2260    0.5880    3.5600 ca        1 AG5     -0.115500
     12 C6          3.6370   -0.4150   -1.0190 ca        1 AG5     -0.365900
     13 C7          4.8540   -0.7600   -1.6090 ca        1 AG5      0.150000
     14 C5          2.5470   -0.0030   -1.8610 ca        1 AG5      0.550600
     15 N4          2.7440    0.1270   -3.2150 nb        1 AG5     -0.670000
     16 C3          3.9170   -0.1640   -3.7440 ca        1 AG5      0.595200
     17 C2          5.0490   -0.6480   -3.0000 ca        1 AG5     -0.713800
     18 S8          6.4720   -0.8890   -3.7030 sy        1 AG5      1.496200
     19 O11         6.5780   -0.3140   -4.9490 o         1 AG5     -0.551300
     20 O12         7.5100   -0.9850   -2.8030 o         1 AG5     -0.551300
     21 N9          6.2870   -2.7150   -4.1990 n4        1 AG5     -0.795500
     22 S10         1.0590    0.2880   -1.1960 ss        1 AG5     -0.002200
     23 C13        -0.0510    0.7800   -2.3600 ca        1 AG5     -0.148100
     24 C19        -0.9510   -0.1600   -2.8840 ca        1 AG5     -0.043000
     25 C20        -1.9840    0.2570   -3.7190 ca        1 AG5     -0.131500
     26 C21        -2.1120    1.6080   -4.0530 ca        1 AG5     -0.033000
     27 C22        -1.2040    2.5440   -3.5500 ca        1 AG5     -0.131500
     28 C23        -0.1720    2.1330   -2.7130 ca        1 AG5     -0.043000
     29 HN15        2.4910    1.2230    0.6160 hn        1 AG5      0.465300
     30 H16         2.1570   -0.9550    2.6430 hx        1 AG5      0.117700
     31 H16A        0.9370   -0.4070    1.3790 hx        1 AG5      0.117700
     32 H17         0.8030    1.8610    2.5230 hc        1 AG5      0.071700
     33 H17A        2.0140    1.3130    3.7630 hc        1 AG5      0.071700
     34 H24         1.4860   -0.7170    5.1860 ha        1 AG5      0.130000
     35 H25        -0.3270   -1.7510    6.5420 ha        1 AG5      0.156500
     36 H26        -2.7200   -1.2790    6.0010 ha        1 AG5      0.161000
     37 H27        -3.2930    0.2310    4.0960 ha        1 AG5      0.156500
     38 H28        -1.4870    1.2650    2.7340 ha        1 AG5      0.130000
     39 H7          5.6910   -1.1120   -0.9680 ha        1 AG5      0.191000
     40 H3          4.0030    0.0040   -4.8440 h4        1 AG5      0.082100
     41 HN9         5.3920   -3.1200   -3.9410 hn        1 AG5      0.465467
     42 HN9A        6.3900   -2.8180   -5.2120 hn        1 AG5      0.465467
     43 H19        -0.8520   -1.2270   -2.6280 ha        1 AG5      0.146500
     44 H20        -2.7010   -0.4810   -4.1170 ha        1 AG5      0.171000
     45 H21        -2.9300    1.9360   -4.7190 ha        1 AG5      0.173000
     46 H22        -1.3040    3.6090   -3.8180 ha        1 AG5      0.171000
     47 H23         0.5440    2.8760   -2.3260 ha        1 AG5      0.146500
     48 H152        3.5580    0.9270    1.8660 hn        1 AG5      0.465300
     49 H93         7.0190   -3.2780   -3.7630 hn        1 AG5      0.465467
@<TRIPOS>BOND
     1    1    2 2   
     2    2    3 1   
     3    2   12 1   
     4    3    4 1   
     5    3   29 1   
     6    3   48 1   
     7    4    5 1   
     8    4   30 1   
     9    4   31 1   
    10    5    6 1   
    11    5   32 1   
    12    5   33 1   
    13    6    7 ar  
    14    6   11 ar  
    15    7    8 ar  
    16    7   34 1   
    17    8    9 ar  
    18    8   35 1   
    19    9   10 ar  
    20    9   36 1   
    21   10   11 ar  
    22   10   37 1   
    23   11   38 1   
    24   12   13 ar  
    25   12   14 ar  
    26   13   17 ar  
    27   13   39 1   
    28   14   15 ar  
    29   14   22 1   
    30   15   16 ar  
    31   16   17 ar  
    32   16   40 1   
    33   17   18 1   
    34   18   19 2   
    35   18   20 2   
    36   18   21 1   
    37   21   41 1   
    38   21   42 1   
    39   21   49 1   
    40   22   23 1   
    41   23   24 ar  
    42   23   28 ar  
    43   24   25 ar  
    44   24   43 1   
    45   25   26 ar  
    46   25   44 1   
    47   26   27 ar  
    48   26   45 1   
    49   27   28 ar  
    50   27   46 1   
    51   28   47 1   
@<TRIPOS>SUBSTRUCTURE
     1 AG5         1 TEMP              0 ****  ****    0 ROOT
