@<TRIPOS>MOLECULE
AG5
   47    41     1     0     0
SMALL
bcc


@<TRIPOS>ATOM
      1 O14        -0.7070   -1.6130    0.5990 o         1 AG5     -0.355000
      2 C1          0.2270   -0.8450    0.4740 c1        1 AG5      0.349000
      3 N15         0.6220   -0.0120    1.5730 n2        1 AG5     -0.374000
      4 C16        -0.3530    0.3890    2.5640 c3        1 AG5     -0.025000
      5 C17         0.3420    0.5720    3.9200 c3        1 AG5     -0.147000
      6 C18        -0.6940    1.0030    4.9780 c2        1 AG5     -0.077000
      7 C24        -1.4850    0.0470    5.6080 c2        1 AG5     -0.124000
      8 C25        -2.4700    0.4420    6.5040 c1        1 AG5     -0.127000
      9 C26        -2.6660    1.7990    6.7720 c1        1 AG5     -0.123750
     10 C27        -1.8790    2.7480    6.1440 c1        1 AG5     -0.123750
     11 C28        -0.8900    2.3510    5.2450 c1        1 AG5     -0.127000
     12 C6          1.0150   -0.8240   -0.8040 c2        1 AG5     -0.206000
     13 C7          2.3790   -0.8960   -0.7650 c2        1 AG5      0.083000
     14 C5          0.3490   -0.8460   -2.0340 c1        1 AG5     -0.110000
     15 N4          1.0640   -0.9400   -3.1980 n1        1 AG5     -0.181000
     16 C3          2.4300   -1.0130   -3.1600 c1        1 AG5      0.074000
     17 C2          3.0950   -0.9910   -1.9340 c1        1 AG5     -0.914000
     18 S8          4.9160   -0.9850   -1.8830 s4        1 AG5      2.093800
     19 O11         5.4000   -0.6450   -0.5730 o         1 AG5     -0.542900
     20 O12         5.4540   -2.3310   -2.0410 o         1 AG5     -0.542900
     21 N9          5.5190    0.0400   -3.0280 n2        1 AG5     -0.955000
     22 S10        -1.4560   -0.8550   -2.0830 ss        1 AG5      0.418000
     23 C13        -2.0080   -0.6760   -3.7800 c2        1 AG5     -0.293000
     24 C19        -2.7010   -1.7060   -4.3920 c2        1 AG5     -0.074000
     25 C20        -3.2270   -1.5290   -5.6790 c1        1 AG5     -0.141000
     26 C21        -3.0530   -0.3280   -6.3350 c1        1 AG5     -0.123750
     27 C22        -2.3530    0.7120   -5.7170 c1        1 AG5     -0.123750
     28 C23        -1.8330    0.5370   -4.4450 c1        1 AG5     -0.059000
     29 HN15        1.5000    0.2780    1.6420 hn        1 AG5      0.229000
     30 H16        -1.0430   -0.3040    2.6420 h1        1 AG5      0.108000
     31 H16A       -0.7730    1.2460    2.2880 h1        1 AG5      0.108000
     32 H17         1.0330    1.2610    3.8420 hc        1 AG5      0.091000
     33 H17A        0.7540   -0.2750    4.1920 hc        1 AG5      0.091000
     34 H24        -1.3470   -0.8940    5.4210 ha        1 AG5      0.139000
     35 H25        -3.0290   -0.2330    6.9490 ha        1 AG5      0.134000
     36 H26        -3.3650    2.0810    7.4070 ha        1 AG5      0.134750
     37 H27        -2.0160    3.6970    6.3320 ha        1 AG5      0.134750
     38 H28        -0.3350    3.0200    4.8020 ha        1 AG5      0.129000
     39 H7          2.8650   -0.8790    0.1270 ha        1 AG5      0.176000
     40 H3          2.9420   -1.0810   -3.9970 ha        1 AG5      0.191000
     41 HN9         5.5700   -0.2310   -3.8970 hn        1 AG5      0.243500
     42 HN9A        5.7440    0.9030   -2.8000 hn        1 AG5      0.243500
     43 H19        -2.8250   -2.5720   -3.9190 ha        1 AG5      0.147000
     44 H20        -3.7190   -2.2600   -6.1140 ha        1 AG5      0.140000
     45 H21        -3.4200   -0.2040   -7.2370 ha        1 AG5      0.134750
     46 H22        -2.2270    1.5830   -6.1940 ha        1 AG5      0.134750
     47 H23        -1.3450    1.2620   -4.0160 ha        1 AG5      0.142000
@<TRIPOS>BOND
     1    1    2 1   
     2    2   12 1   
     3    3    4 1   
     4    3   29 1   
     5    4    5 1   
     6    4   30 1   
     7    4   31 1   
     8    5    6 1   
     9    5   32 1   
    10    5   33 1   
    11    6    7 1   
    12    6   11 1   
    13    7    8 1   
    14    7   34 1   
    15    8   35 1   
    16    9   10 1   
    17    9   36 1   
    18   10   37 1   
    19   11   38 1   
    20   12   13 1   
    21   12   14 1   
    22   13   17 1   
    23   13   39 1   
    24   14   22 1   
    25   15   16 1   
    26   16   40 1   
    27   17   18 1   
    28   18   19 1   
    29   18   20 1   
    30   21   41 1   
    31   21   42 1   
    32   22   23 1   
    33   23   24 1   
    34   23   28 1   
    35   24   25 1   
    36   24   43 1   
    37   25   44 1   
    38   26   27 1   
    39   26   45 1   
    40   27   46 1   
    41   28   47 1   
@<TRIPOS>SUBSTRUCTURE
     1 AG5         1 TEMP              0 ****  ****    0 ROOT
