@<TRIPOS>MOLECULE
AG5
   49    51     1     0     0
SMALL
bcc


@<TRIPOS>ATOM
      1 O14         3.9890   -1.5900    1.1080 o         1 AG5     -0.396100
      2 C1          3.5250   -0.6560    0.4670 c         1 AG5      0.568700
      3 N15         2.8560    0.4290    1.2680 ny        1 AG5     -0.672800
      4 C16         1.7080   -0.0990    2.0820 c3        1 AG5      0.103800
      5 C17         1.1740    0.9330    3.0760 c3        1 AG5     -0.042100
      6 C18         0.0510    0.3190    3.8360 ca        1 AG5     -0.142300
      7 C24         0.3200   -0.5490    4.9010 ca        1 AG5     -0.115500
      8 C25        -0.7300   -1.0970    5.6360 ca        1 AG5     -0.114000
      9 C26        -2.0500   -0.7800    5.3130 ca        1 AG5     -0.090000
     10 C27        -2.3200    0.0880    4.2540 ca        1 AG5     -0.114000
     11 C28        -1.2730    0.6370    3.5150 ca        1 AG5     -0.115500
     12 C6          3.6380   -0.4760   -0.9870 ca        1 AG5     -0.365900
     13 C7          4.8530   -0.8560   -1.5590 ca        1 AG5      0.150000
     14 C5          2.5780   -0.0140   -1.8420 ca        1 AG5      0.550600
     15 N4          2.8050    0.1260   -3.1900 nb        1 AG5     -0.670000
     16 C3          3.9770   -0.1990   -3.7020 ca        1 AG5      0.595200
     17 C2          5.0770   -0.7330   -2.9440 ca        1 AG5     -0.713800
     18 S8          6.5040   -1.0140   -3.6250 sy        1 AG5      1.496200
     19 O11         6.6530   -0.4260   -4.8600 o         1 AG5     -0.551300
     20 O12         7.5210   -1.1590   -2.7080 o         1 AG5     -0.551300
     21 N9          6.2640   -2.8250   -4.1510 nz        1 AG5     -0.795500
     22 S10         1.0890    0.3200   -1.2000 ss        1 AG5     -0.002200
     23 C13         0.0200    0.8660   -2.3770 ca        1 AG5     -0.148100
     24 C19        -0.9030   -0.0340   -2.9300 ca        1 AG5     -0.043000
     25 C20        -1.9060    0.4300   -3.7770 ca        1 AG5     -0.131500
     26 C21        -1.9800    1.7880   -4.0950 ca        1 AG5     -0.033000
     27 C22        -1.0490    2.6850   -3.5630 ca        1 AG5     -0.131500
     28 C23        -0.0470    2.2270   -2.7130 ca        1 AG5     -0.043000
     29 HN15        2.5200    1.1790    0.6510 hn        1 AG5      0.465300
     30 H16         2.0710   -1.0130    2.6390 hx        1 AG5      0.117700
     31 H16A        0.8950   -0.4050    1.3610 hx        1 AG5      0.117700
     32 H17         0.8210    1.8510    2.5360 hc        1 AG5      0.071700
     33 H17A        1.9870    1.2420    3.7890 hc        1 AG5      0.071700
     34 H24         1.3590   -0.7870    5.1720 ha        1 AG5      0.130000
     35 H25        -0.5160   -1.7740    6.4790 ha        1 AG5      0.156500
     36 H26        -2.8790   -1.2080    5.9000 ha        1 AG5      0.161000
     37 H27        -3.3620    0.3480    4.0060 ha        1 AG5      0.156500
     38 H28        -1.4930    1.3350    2.6940 ha        1 AG5      0.130000
     39 H7          5.6650   -1.2460   -0.9080 ha        1 AG5      0.191000
     40 H3          4.0890   -0.0200   -4.7980 h4        1 AG5      0.082100
     41 HN9         5.3510   -3.2030   -3.9140 hn        1 AG5      0.465467
     42 HN9A        6.3830   -2.9190   -5.1620 hn        1 AG5      0.465467
     43 H19        -0.8460   -1.1080   -2.6880 ha        1 AG5      0.146500
     44 H20        -2.6400   -0.2770   -4.1980 ha        1 AG5      0.171000
     45 H21        -2.7730    2.1540   -4.7710 ha        1 AG5      0.173000
     46 H22        -1.1070    3.7570   -3.8180 ha        1 AG5      0.171000
     47 H23         0.6860    2.9390   -2.3030 ha        1 AG5      0.146500
     48 H152        3.5520    0.8280    1.9160 hn        1 AG5      0.465300
     49 H93         6.9670   -3.4200   -3.7090 hn        1 AG5      0.465467
@<TRIPOS>BOND
     1    1    2 2   
     2    2    3 1   
     3    2   12 1   
     4    3    4 1   
     5    3   29 1   
     6    3   48 1   
     7    4    5 1   
     8    4   30 1   
     9    4   31 1   
    10    5    6 1   
    11    5   32 1   
    12    5   33 1   
    13    6    7 ar  
    14    6   11 ar  
    15    7    8 ar  
    16    7   34 1   
    17    8    9 ar  
    18    8   35 1   
    19    9   10 ar  
    20    9   36 1   
    21   10   11 ar  
    22   10   37 1   
    23   11   38 1   
    24   12   13 ar  
    25   12   14 ar  
    26   13   17 ar  
    27   13   39 1   
    28   14   15 ar  
    29   14   22 1   
    30   15   16 ar  
    31   16   17 ar  
    32   16   40 1   
    33   17   18 1   
    34   18   19 2   
    35   18   20 2   
    36   18   21 1   
    37   21   41 1   
    38   21   42 1   
    39   21   49 1   
    40   22   23 1   
    41   23   24 ar  
    42   23   28 ar  
    43   24   25 ar  
    44   24   43 1   
    45   25   26 ar  
    46   25   44 1   
    47   26   27 ar  
    48   26   45 1   
    49   27   28 ar  
    50   27   46 1   
    51   28   47 1   
@<TRIPOS>SUBSTRUCTURE
     1 AG5         1 TEMP              0 ****  ****    0 ROOT
