@<TRIPOS>MOLECULE
AG5
   49    51     1     0     0
SMALL
bcc


@<TRIPOS>ATOM
      1 O14         4.0510   -1.5040    1.0940 o         1 AG5     -0.396100
      2 C1          3.5530   -0.5940    0.4450 c         1 AG5      0.568700
      3 N15         2.8700    0.4900    1.2370 n4        1 AG5     -0.672800
      4 C16         1.7500   -0.0520    2.0810 c3        1 AG5      0.103800
      5 C17         1.2080    0.9860    3.0640 c3        1 AG5     -0.042100
      6 C18         0.1130    0.3590    3.8540 ca        1 AG5     -0.142300
      7 C24         0.4200   -0.4810    4.9310 ca        1 AG5     -0.115500
      8 C25        -0.6040   -1.0410    5.6930 ca        1 AG5     -0.114000
      9 C26        -1.9370   -0.7630    5.3860 ca        1 AG5     -0.090000
     10 C27        -2.2450    0.0770    4.3160 ca        1 AG5     -0.114000
     11 C28        -1.2240    0.6380    3.5490 ca        1 AG5     -0.115500
     12 C6          3.6360   -0.4390   -1.0140 ca        1 AG5     -0.365900
     13 C7          4.8500   -0.8000   -1.6010 ca        1 AG5      0.150000
     14 C5          2.5500   -0.0200   -1.8590 ca        1 AG5      0.550600
     15 N4          2.7500    0.1000   -3.2130 nb        1 AG5     -0.670000
     16 C3          3.9210   -0.2060   -3.7390 ca        1 AG5      0.595200
     17 C2          5.0470   -0.6970   -2.9920 ca        1 AG5     -0.713800
     18 S8          6.4680   -0.9560   -3.6930 sy        1 AG5      1.496200
     19 O11         6.5810   -0.3880   -4.9410 o         1 AG5     -0.551300
     20 O12         7.5050   -1.0570   -2.7910 o         1 AG5     -0.551300
     21 N9          6.2650   -2.7820   -4.1790 n4        1 AG5     -0.795500
     22 S10         1.0650    0.2890   -1.1970 ss        1 AG5     -0.002200
     23 C13        -0.0390    0.7860   -2.3640 ca        1 AG5     -0.148100
     24 C19        -0.9480   -0.1480   -2.8850 ca        1 AG5     -0.043000
     25 C20        -1.9760    0.2750   -3.7220 ca        1 AG5     -0.131500
     26 C21        -2.0910    1.6250   -4.0640 ca        1 AG5     -0.033000
     27 C22        -1.1740    2.5550   -3.5650 ca        1 AG5     -0.131500
     28 C23        -0.1460    2.1380   -2.7240 ca        1 AG5     -0.043000
     29 HN15        3.5670    0.9170    1.8650 hn        1 AG5      0.465300
     30 H16         2.1450   -0.9460    2.6480 hx        1 AG5      0.117700
     31 H16A        0.9330   -0.3910    1.3790 hx        1 AG5      0.117700
     32 H17         2.0240    1.3270    3.7580 hc        1 AG5      0.071700
     33 H17A        0.8230    1.8850    2.5130 hc        1 AG5      0.071700
     34 H24         1.4690   -0.6890    5.1890 ha        1 AG5      0.130000
     35 H25        -0.3590   -1.6960    6.5450 ha        1 AG5      0.156500
     36 H26        -2.7450   -1.2000    5.9950 ha        1 AG5      0.161000
     37 H27        -3.2970    0.3070    4.0800 ha        1 AG5      0.156500
     38 H28        -1.4750    1.3140    2.7190 ha        1 AG5      0.130000
     39 H7          5.6830   -1.1560   -0.9570 ha        1 AG5      0.191000
     40 H3          4.0090   -0.0440   -4.8400 h4        1 AG5      0.082100
     41 HN9         5.3670   -3.1780   -3.9200 hn        1 AG5      0.465467
     42 HN9A        6.3690   -2.8920   -5.1910 hn        1 AG5      0.465467
     43 H19        -0.8590   -1.2150   -2.6230 ha        1 AG5      0.146500
     44 H20        -2.7000   -0.4580   -4.1170 ha        1 AG5      0.171000
     45 H21        -2.9040    1.9580   -4.7320 ha        1 AG5      0.173000
     46 H22        -1.2630    3.6190   -3.8380 ha        1 AG5      0.171000
     47 H23         0.5760    2.8760   -2.3400 ha        1 AG5      0.146500
     48 H152        2.5050    1.2190    0.6120 hn        1 AG5      0.465300
     49 H93         6.9920   -3.3500   -3.7390 hn        1 AG5      0.465467
@<TRIPOS>BOND
     1    1    2 2   
     2    2    3 1   
     3    2   12 1   
     4    3    4 1   
     5    3   29 1   
     6    3   48 1   
     7    4    5 1   
     8    4   30 1   
     9    4   31 1   
    10    5    6 1   
    11    5   32 1   
    12    5   33 1   
    13    6    7 ar  
    14    6   11 ar  
    15    7    8 ar  
    16    7   34 1   
    17    8    9 ar  
    18    8   35 1   
    19    9   10 ar  
    20    9   36 1   
    21   10   11 ar  
    22   10   37 1   
    23   11   38 1   
    24   12   13 ar  
    25   12   14 ar  
    26   13   17 ar  
    27   13   39 1   
    28   14   15 ar  
    29   14   22 1   
    30   15   16 ar  
    31   16   17 ar  
    32   16   40 1   
    33   17   18 1   
    34   18   19 2   
    35   18   20 2   
    36   18   21 1   
    37   21   41 1   
    38   21   42 1   
    39   21   49 1   
    40   22   23 1   
    41   23   24 ar  
    42   23   28 ar  
    43   24   25 ar  
    44   24   43 1   
    45   25   26 ar  
    46   25   44 1   
    47   26   27 ar  
    48   26   45 1   
    49   27   28 ar  
    50   27   46 1   
    51   28   47 1   
@<TRIPOS>SUBSTRUCTURE
     1 AG5         1 TEMP              0 ****  ****    0 ROOT
