@<TRIPOS>MOLECULE
AG5
   47    49     1     0     0
SMALL
bcc


@<TRIPOS>ATOM
      1 O14         1.5610    1.0740   -1.9000 o         1 AG5     -0.600100
      2 C1          0.9590    0.5650   -0.9320 c         1 AG5      0.677700
      3 N15         1.5310   -0.4250   -0.1610 n         1 AG5     -0.559900
      4 C16         2.8890   -0.8590   -0.3480 c3        1 AG5      0.090000
      5 C17         3.8700   -0.3300    0.7070 c3        1 AG5     -0.062100
      6 C18         5.2410   -0.8390    0.4340 ca        1 AG5     -0.083300
      7 C24         5.9780   -0.3290   -0.6420 ca        1 AG5     -0.125000
      8 C25         7.2660   -0.7940   -0.8950 ca        1 AG5     -0.128000
      9 C26         7.8310   -1.7720   -0.0760 ca        1 AG5     -0.129000
     10 C27         7.1030   -2.2830    0.9980 ca        1 AG5     -0.128000
     11 C28         5.8130   -1.8190    1.2530 ca        1 AG5     -0.125000
     12 C6         -0.4140    1.0270   -0.5730 ca        1 AG5     -0.291900
     13 C7         -0.6530    2.4030   -0.6410 ca        1 AG5      0.083000
     14 C5         -1.4880    0.1680   -0.2190 ca        1 AG5      0.545600
     15 N4         -2.7190    0.6640    0.0880 nb        1 AG5     -0.707000
     16 C3         -2.9120    1.9840    0.0300 ca        1 AG5      0.539200
     17 C2         -1.9180    2.9190   -0.3420 ca        1 AG5     -0.534800
     18 S8         -2.2440    4.5720   -0.3810 sy        1 AG5      1.538200
     19 O11        -3.4470    4.7860    0.3280 o         1 AG5     -0.657800
     20 O12        -1.0920    5.2580    0.0530 o         1 AG5     -0.657800
     21 N9         -2.4820    4.8680   -1.9340 n3        1 AG5     -1.026700
     22 S10        -1.2070   -1.5040   -0.2040 ss        1 AG5     -0.133200
     23 C13        -2.6550   -2.3040    0.1970 ca        1 AG5     -0.067100
     24 C19        -3.0860   -3.2990   -0.6900 ca        1 AG5     -0.068000
     25 C20        -4.1870   -4.0900   -0.3750 ca        1 AG5     -0.141500
     26 C21        -4.8820   -3.8770    0.8170 ca        1 AG5     -0.096000
     27 C22        -4.4670   -2.8770    1.6950 ca        1 AG5     -0.141500
     28 C23        -3.3540   -2.0940    1.3890 ca        1 AG5     -0.068000
     29 HN15        1.0660   -0.7240    0.6640 hn        1 AG5      0.316500
     30 H16         2.8970   -1.9860   -0.3160 h1        1 AG5      0.068200
     31 H16A        3.2400   -0.5300   -1.3680 h1        1 AG5      0.068200
     32 H17         3.8790    0.7930    0.6870 hc        1 AG5      0.054200
     33 H17A        3.5370   -0.6450    1.7320 hc        1 AG5      0.054200
     34 H24         5.5330    0.4440   -1.2880 ha        1 AG5      0.134500
     35 H25         7.8390   -0.3890   -1.7430 ha        1 AG5      0.132000
     36 H26         8.8480   -2.1380   -0.2760 ha        1 AG5      0.132000
     37 H27         7.5460   -3.0520    1.6470 ha        1 AG5      0.132000
     38 H28         5.2440   -2.2240    2.1030 ha        1 AG5      0.134500
     39 H7          0.1740    3.0800   -0.9280 ha        1 AG5      0.173000
     40 H3         -3.9290    2.3350    0.3100 h4        1 AG5      0.053100
     41 HN9        -1.7630    5.1400   -2.5570 hn        1 AG5      0.450300
     42 HN9A       -3.3660    4.8130   -2.3740 hn        1 AG5      0.450300
     43 H19        -2.5490   -3.4550   -1.6390 ha        1 AG5      0.145000
     44 H20        -4.5140   -4.8770   -1.0710 ha        1 AG5      0.139500
     45 H21        -5.7580   -4.4960    1.0610 ha        1 AG5      0.137000
     46 H22        -5.0160   -2.7010    2.6320 ha        1 AG5      0.139500
     47 H23        -3.0330   -1.3050    2.0870 ha        1 AG5      0.145000
@<TRIPOS>BOND
     1    1    2 2   
     2    2    3 1   
     3    2   12 1   
     4    3    4 1   
     5    3   29 1   
     6    4    5 1   
     7    4   30 1   
     8    4   31 1   
     9    5    6 1   
    10    5   32 1   
    11    5   33 1   
    12    6    7 ar  
    13    6   11 ar  
    14    7    8 ar  
    15    7   34 1   
    16    8    9 ar  
    17    8   35 1   
    18    9   10 ar  
    19    9   36 1   
    20   10   11 ar  
    21   10   37 1   
    22   11   38 1   
    23   12   13 ar  
    24   12   14 ar  
    25   13   17 ar  
    26   13   39 1   
    27   14   15 ar  
    28   14   22 1   
    29   15   16 ar  
    30   16   17 ar  
    31   16   40 1   
    32   17   18 1   
    33   18   19 2   
    34   18   20 2   
    35   18   21 1   
    36   21   41 1   
    37   21   42 1   
    38   22   23 1   
    39   23   24 ar  
    40   23   28 ar  
    41   24   25 ar  
    42   24   43 1   
    43   25   26 ar  
    44   25   44 1   
    45   26   27 ar  
    46   26   45 1   
    47   27   28 ar  
    48   27   46 1   
    49   28   47 1   
@<TRIPOS>SUBSTRUCTURE
     1 AG5         1 TEMP              0 ****  ****    0 ROOT
