@<TRIPOS>MOLECULE
AG6
   83    77     1     0     0
SMALL
bcc


@<TRIPOS>ATOM
      1 N2          3.8480    0.8810   -1.1830 n         1 AG6     -0.387000
      2 N3          5.5160   -1.7040   -1.6260 n         1 AG6     -0.427000
      3 O5          5.1960    0.9480   -3.0480 o         1 AG6     -0.468000
      4 O6          4.4550   -2.0080    0.3730 o         1 AG6     -0.392000
      5 C7          4.0790    1.1380   -2.5080 c2        1 AG6      0.245000
      6 O7         -1.0690   -4.5600    0.5220 o         1 AG6     -0.311000
      7 C8          4.8700    0.3160   -0.3380 c3        1 AG6     -0.028000
      8 C9          4.9530    0.6600    1.0780 c1        1 AG6     -0.027000
      9 C10         4.9220   -1.2310   -0.4830 c2        1 AG6      0.325000
     10 C11         0.7460   -4.4700   -2.8800 c1        1 AG6     -0.160000
     11 C12         0.9040   -3.3940   -3.3910 c1        1 AG6      0.023000
     12 C13         1.0810   -2.1400   -3.8640 c1        1 AG6     -0.135000
     13 C14         1.2370   -0.9950   -4.1900 c1        1 AG6     -0.091000
     14 C15         0.5740   -5.7020   -2.2390 c2        1 AG6     -0.006000
     15 C22         0.2760   -5.8470   -0.9390 c2        1 AG6     -0.203000
     16 C23         0.0510   -4.7430    0.0230 c2        1 AG6      0.307000
     17 C24         2.7590    1.6570    1.7550 ca        1 AG6     -0.069500
     18 C25         2.0660    2.5230    2.6010 ca        1 AG6     -0.161000
     19 C26         4.1630    1.5780    1.8180 ca        1 AG6     -0.128000
     20 C27         2.7560    3.3420    3.4920 ca        1 AG6     -0.106000
     21 C28         4.8460    2.3860    2.7560 ca        1 AG6     -0.069500
     22 C29         4.1490    3.2760    3.5630 ca        1 AG6     -0.161000
     23 C30         1.2280   -3.9240    0.3840 c2        1 AG6     -0.250000
     24 C31         2.4470   -4.6730    0.8030 c3        1 AG6     -0.185000
     25 C32         1.1950   -2.5870    0.3150 c2        1 AG6     -0.096000
     26 C33         2.4620   -5.3140    2.1060 c1        1 AG6     -0.022000
     27 C34         1.4230   -5.5670    4.2750 c1        1 AG6      0.293000
     28 C35         1.4190   -5.0810    3.0500 c2        1 AG6     -0.528000
     29 HN2         2.8880    0.8580   -0.8720 hn        1 AG6      0.295000
     30 HN3         5.7290   -1.0770   -2.3690 hn        1 AG6      0.230000
     31 C241       -3.3690    0.3070   -1.0250 c3        1 AG6     -0.013000
     32 H8          5.8780    0.7240   -0.7160 h1        1 AG6      0.164000
     33 H19        -3.3880    0.0500    3.2650 ha        1 AG6      0.001250
     34 H29        -3.8690   -0.4260    3.2460 ha        1 AG6      0.001250
     35 H11         5.4560   -2.6700   -1.8300 hn        1 AG6      0.230000
     36 H112        6.3400   -1.0890   -4.5550 ha        1 AG6      0.001250
     37 H212        5.8990   -0.5800   -4.6360 ha        1 AG6      0.001250
     38 H113        1.5930    2.3460   -4.5240 ha        1 AG6      0.001250
     39 H213        2.0150    2.1530   -5.0190 ha        1 AG6      0.001250
     40 H114        4.0050    0.5160   -5.1190 ha        1 AG6      0.001250
     41 H214        3.4540    0.3990   -5.4950 ha        1 AG6      0.001250
     42 H314        1.3670    0.0480   -4.3900 ha        1 AG6      0.263000
     43 H24         2.1840    1.0160    1.0560 ha        1 AG6      0.168000
     44 H25         0.9680    2.5660    2.5450 ha        1 AG6      0.130000
     45 H27         2.2050    4.0380    4.1410 ha        1 AG6      0.120000
     46 H28         5.9410    2.3070    2.8290 ha        1 AG6      0.168000
     47 H29A        4.6930    3.9190    4.2690 ha        1 AG6      0.130000
     48 H31         2.6910   -5.4630    0.0340 hc        1 AG6      0.159500
     49 H32         0.3080   -2.0150    0.0010 ha        1 AG6      0.150500
     50 H33         3.3420   -3.9660    0.8190 hc        1 AG6      0.159500
     51 H34         2.0780   -1.9650    0.5350 ha        1 AG6      0.150500
     52 H35         0.5440   -4.4500    2.7460 ha        1 AG6      0.201000
     53 N31        -4.0710    0.3040    0.2450 n         1 AG6     -0.306000
     54 C251       -1.8810    0.2660   -0.9070 c2        1 AG6     -0.225000
     55 H241       -3.7100   -0.6260   -1.5670 h1        1 AG6      0.105000
     56 C261       -1.0650    1.0420   -1.6220 c2        1 AG6     -0.153000
     57 H251        3.1910    1.5430   -3.0580 h5        1 AG6      0.191000
     58 H26        -1.4610   -0.4820   -0.2120 ha        1 AG6      0.141000
     59 H271       -3.7000    1.2010   -1.6290 h1        1 AG6      0.105000
     60 C271        0.4280    0.9240   -1.5440 c2        1 AG6      0.353000
     61 H281       -1.4340    1.8020   -2.3290 ha        1 AG6      0.117000
     62 O4          1.1260    1.4070   -2.4870 o         1 AG6     -0.596000
     63 O51         0.9670    0.3440   -0.5500 o         1 AG6     -0.596000
     64 H291       -3.6340   -0.2220    0.9760 hn        1 AG6      0.229000
     65 C281       -4.7280    1.4470    0.6570 c2        1 AG6      0.381000
     66 O61        -4.9340    1.4810    2.0290 os        1 AG6     -0.286000
     67 O71        -5.2050    2.3660   -0.0330 o         1 AG6     -0.422000
     68 C291       -5.7960    2.5120    2.5210 c3        1 AG6      0.020000
     69 H311       -5.5790    3.4840    2.0030 h1        1 AG6      0.114000
     70 H321       -5.5040    2.5780    3.6070 h1        1 AG6      0.114000
     71 C301       -7.2240    2.1210    2.3890 c2        1 AG6     -0.177000
     72 C311       -7.0640    5.6710   -0.7570 c1        1 AG6      0.193000
     73 C321       -7.1950    4.9320    0.3200 c2        1 AG6     -0.467000
     74 C331       -7.7470    5.2850    1.6050 c2        1 AG6     -0.060000
     75 C341       -8.1900    4.4170    2.5250 c2        1 AG6     -0.156000
     76 C351       -8.2540    2.9720    2.3940 c2        1 AG6     -0.133000
     77 H115        0.7000   -6.5940   -2.8810 ha        1 AG6      0.130000
     78 H122        0.1480   -6.8530   -0.5040 ha        1 AG6      0.141000
     79 H351       -7.3960    1.0350    2.2910 ha        1 AG6      0.137000
     80 H36        -6.8100    3.8790    0.2210 ha        1 AG6      0.242000
     81 H37        -7.7970    6.3680    1.8160 ha        1 AG6      0.119000
     82 H38        -8.5980    4.8000    3.4780 ha        1 AG6      0.124000
     83 H39        -9.2850    2.5800    2.3200 ha        1 AG6      0.125000
@<TRIPOS>BOND
     1    1    5 1   
     2    1    7 1   
     3    1   29 1   
     4    2    9 1   
     5    2   30 1   
     6    2   35 1   
     7    3    5 1   
     8    4    9 1   
     9    5   57 1   
    10    6   16 1   
    11    7    8 1   
    12    7    9 1   
    13    7   32 1   
    14    8   19 1   
    15   10   11 1   
    16   10   14 1   
    17   11   12 1   
    18   12   13 1   
    19   13   42 1   
    20   14   15 1   
    21   14   77 1   
    22   15   16 1   
    23   15   78 1   
    24   16   23 1   
    25   17   18 1   
    26   17   19 1   
    27   17   43 1   
    28   18   20 1   
    29   18   44 1   
    30   19   21 1   
    31   20   22 1   
    32   20   45 1   
    33   21   22 1   
    34   21   46 1   
    35   22   47 1   
    36   23   24 1   
    37   23   25 1   
    38   24   26 1   
    39   24   48 1   
    40   24   50 1   
    41   25   49 1   
    42   25   51 1   
    43   26   28 1   
    44   27   28 1   
    45   28   52 1   
    46   31   53 1   
    47   31   54 1   
    48   31   55 1   
    49   31   59 1   
    50   33   34 1   
    51   36   37 1   
    52   38   39 1   
    53   40   41 1   
    54   53   64 1   
    55   53   65 1   
    56   54   56 1   
    57   54   58 1   
    58   56   60 1   
    59   56   61 1   
    60   60   62 1   
    61   60   63 1   
    62   65   66 1   
    63   65   67 1   
    64   66   68 1   
    65   68   69 1   
    66   68   70 1   
    67   68   71 1   
    68   71   76 1   
    69   71   79 1   
    70   72   73 1   
    71   73   74 1   
    72   73   80 1   
    73   74   75 1   
    74   74   81 1   
    75   75   76 1   
    76   75   82 1   
    77   76   83 1   
@<TRIPOS>SUBSTRUCTURE
     1 AG6         1 TEMP              0 ****  ****    0 ROOT
