@<TRIPOS>MOLECULE
AG6
   83    85     1     0     0
SMALL
bcc


@<TRIPOS>ATOM
      1 N2         -0.2110   -0.5940    0.2380 n         1 AG6     -0.570900
      2 N3          2.7160   -0.3580    1.1780 n         1 AG6     -0.556900
      3 O5          0.0380   -0.0440    2.4470 o         1 AG6     -0.623100
      4 O6          2.8590   -1.1830   -0.9670 o         1 AG6     -0.624100
      5 C7         -0.5180    0.1610    1.3500 c         1 AG6      0.656100
      6 O7          6.1910    1.7600   -0.4550 o         1 AG6     -0.528100
      7 C8          0.7860   -1.6310    0.2550 c3        1 AG6      0.047700
      8 C9          0.5900   -2.6810   -0.8520 c3        1 AG6     -0.040100
      9 C10         2.2130   -1.0280    0.0890 c         1 AG6      0.634100
     10 C11         3.8930    0.4830    1.0930 c3        1 AG6      0.114900
     11 C12         3.7880    1.7530    1.9630 c3        1 AG6     -0.086400
     12 C13         2.5210    2.5410    1.7130 c3        1 AG6     -0.080400
     13 C14         2.5280    3.8530    2.4580 c3        1 AG6     -0.114100
     14 C15         5.1360   -0.2540    1.5280 c2        1 AG6     -0.074200
     15 C22         6.3300   -0.1790    0.9310 ce        1 AG6     -0.273200
     16 C23         6.6570    0.6290   -0.2540 c         1 AG6      0.581900
     17 C24        -1.8690   -3.1460   -1.0310 ca        1 AG6     -0.123000
     18 C25        -2.9700   -3.9730   -0.8150 ca        1 AG6     -0.133500
     19 C26        -0.5950   -3.5440   -0.6070 ca        1 AG6     -0.079300
     20 C27        -2.8120   -5.2020   -0.1770 ca        1 AG6     -0.134000
     21 C28        -0.4430   -4.7800    0.0350 ca        1 AG6     -0.123000
     22 C29        -1.5460   -5.6040    0.2480 ca        1 AG6     -0.133500
     23 C30         7.6300    0.0220   -1.1950 ca        1 AG6     -0.159600
     24 C31         7.7450   -1.3680   -1.3140 ca        1 AG6     -0.083000
     25 C32         8.4300    0.8540   -1.9880 ca        1 AG6     -0.083000
     26 C33         8.6600   -1.9180   -2.2100 ca        1 AG6     -0.147500
     27 C34         9.3500    0.3000   -2.8770 ca        1 AG6     -0.147500
     28 C35         9.4660   -1.0860   -2.9880 ca        1 AG6     -0.113000
     29 HN2        -0.7010   -0.4350   -0.6160 hn        1 AG6      0.344500
     30 HN3         2.1210   -0.2120    1.9680 hn        1 AG6      0.341500
     31 C241       -1.5580    1.2920    1.1450 c3        1 AG6      0.040700
     32 H8          0.7440   -2.1520    1.2610 h1        1 AG6      0.083700
     33 H19         0.5030   -2.1700   -1.8480 hc        1 AG6      0.071700
     34 H29         1.5230   -3.3060   -0.8870 hc        1 AG6      0.071700
     35 H11         4.0200    0.8060    0.0120 h1        1 AG6      0.093700
     36 H112        3.8470    1.4750    3.0470 hc        1 AG6      0.051200
     37 H212        4.6810    2.3870    1.7170 hc        1 AG6      0.051200
     38 H113        2.4070    2.7320    0.6140 hc        1 AG6      0.043700
     39 H213        1.6250    1.9480    2.0450 hc        1 AG6      0.043700
     40 H114        1.5140    4.3350    2.4010 hc        1 AG6      0.051367
     41 H214        2.7740    3.6910    3.5350 hc        1 AG6      0.051367
     42 H314        3.2860    4.5480    2.0250 hc        1 AG6      0.051367
     43 H24        -2.0060   -2.1670   -1.5240 ha        1 AG6      0.142000
     44 H25        -3.9680   -3.6470   -1.1450 ha        1 AG6      0.125000
     45 H27        -3.6830   -5.8510   -0.0060 ha        1 AG6      0.124000
     46 H28         0.5540   -5.0990    0.3740 ha        1 AG6      0.142000
     47 H29A       -1.4170   -6.5710    0.7550 ha        1 AG6      0.125000
     48 H31         7.1010   -2.0250   -0.7090 ha        1 AG6      0.148000
     49 H32         8.3160    1.9470   -1.9050 ha        1 AG6      0.148000
     50 H33         8.7420   -3.0100   -2.3060 ha        1 AG6      0.130000
     51 H34         9.9780    0.9570   -3.4950 ha        1 AG6      0.130000
     52 H35        10.1880   -1.5220   -3.6920 ha        1 AG6      0.126000
     53 N31        -2.8920    0.7320    1.0470 n         1 AG6     -0.509900
     54 C251       -1.4230    2.3120    2.2830 c3        1 AG6     -0.077400
     55 H241       -1.3050    1.8180    0.1720 h1        1 AG6      0.078700
     56 C261       -2.3770    3.4680    2.1290 c3        1 AG6     -0.215400
     57 H251       -1.5680    1.8050    3.2710 hc        1 AG6      0.080200
     58 H26        -0.3670    2.7070    2.2620 hc        1 AG6      0.080200
     59 H271       -3.3890    3.2100    2.5300 hc        1 AG6      0.024200
     60 C271       -1.8510    4.7210    2.8650 c         1 AG6      0.917600
     61 H281       -2.4900    3.7460    1.0500 hc        1 AG6      0.024200
     62 O4         -2.6900    5.4120    3.5040 o         1 AG6     -0.840800
     63 O51        -0.6200    4.9950    2.7670 o         1 AG6     -0.840800
     64 H291       -3.5490    1.0240    1.7390 hn        1 AG6      0.342500
     65 C281       -3.3790    0.3270   -0.1710 c         1 AG6      0.738100
     66 O61        -4.7520    0.1500   -0.1790 os        1 AG6     -0.439900
     67 O71        -2.7460    0.0530   -1.2120 o         1 AG6     -0.629000
     68 C291       -5.2760   -0.4160   -1.3930 c3        1 AG6      0.195700
     69 H311       -5.0060    0.2590   -2.2510 h1        1 AG6      0.061700
     70 H321       -4.8010   -1.4220   -1.5530 h1        1 AG6      0.061700
     71 C301       -6.7570   -0.5220   -1.2470 ca        1 AG6     -0.089300
     72 C311       -7.4750    0.3390   -0.4120 ca        1 AG6     -0.113000
     73 C321       -8.8630    0.2320   -0.3270 ca        1 AG6     -0.133000
     74 C331       -9.5390   -0.7310   -1.0750 ca        1 AG6     -0.132000
     75 C341       -8.8250   -1.5910   -1.9090 ca        1 AG6     -0.133000
     76 C351       -7.4380   -1.4920   -1.9940 ca        1 AG6     -0.113000
     77 H115        5.0140   -0.9020    2.4140 ha        1 AG6      0.126000
     78 H122        7.1840   -0.7550    1.3280 ha        1 AG6      0.131000
     79 H351       -6.9370    1.0960    0.1800 ha        1 AG6      0.142500
     80 H36        -9.4230    0.9100    0.3340 ha        1 AG6      0.129500
     81 H37       -10.6330   -0.8130   -1.0080 ha        1 AG6      0.126000
     82 H38        -9.3550   -2.3520   -2.5000 ha        1 AG6      0.129500
     83 H39        -6.8750   -2.1740   -2.6480 ha        1 AG6      0.142500
@<TRIPOS>BOND
     1    1    5 1   
     2    1    7 1   
     3    1   29 1   
     4    2    9 1   
     5    2   10 1   
     6    2   30 1   
     7    3    5 2   
     8    4    9 2   
     9    5   31 1   
    10    6   16 2   
    11    7    8 1   
    12    7    9 1   
    13    7   32 1   
    14    8   19 1   
    15    8   33 1   
    16    8   34 1   
    17   10   11 1   
    18   10   14 1   
    19   10   35 1   
    20   11   12 1   
    21   11   36 1   
    22   11   37 1   
    23   12   13 1   
    24   12   38 1   
    25   12   39 1   
    26   13   40 1   
    27   13   41 1   
    28   13   42 1   
    29   14   15 2   
    30   14   77 1   
    31   15   16 1   
    32   15   78 1   
    33   16   23 1   
    34   17   18 ar  
    35   17   19 ar  
    36   17   43 1   
    37   18   20 ar  
    38   18   44 1   
    39   19   21 ar  
    40   20   22 ar  
    41   20   45 1   
    42   21   22 ar  
    43   21   46 1   
    44   22   47 1   
    45   23   24 ar  
    46   23   25 ar  
    47   24   26 ar  
    48   24   48 1   
    49   25   27 ar  
    50   25   49 1   
    51   26   28 ar  
    52   26   50 1   
    53   27   28 ar  
    54   27   51 1   
    55   28   52 1   
    56   31   53 1   
    57   31   54 1   
    58   31   55 1   
    59   53   64 1   
    60   53   65 1   
    61   54   56 1   
    62   54   57 1   
    63   54   58 1   
    64   56   59 1   
    65   56   60 1   
    66   56   61 1   
    67   60   62 1   
    68   60   63 1   
    69   65   66 1   
    70   65   67 2   
    71   66   68 1   
    72   68   69 1   
    73   68   70 1   
    74   68   71 1   
    75   71   72 ar  
    76   71   76 ar  
    77   72   73 ar  
    78   72   79 1   
    79   73   74 ar  
    80   73   80 1   
    81   74   75 ar  
    82   74   81 1   
    83   75   76 ar  
    84   75   82 1   
    85   76   83 1   
@<TRIPOS>SUBSTRUCTURE
     1 AG6         1 TEMP              0 ****  ****    0 ROOT
