@<TRIPOS>MOLECULE
AG6
   83    77     1     0     0
SMALL
bcc


@<TRIPOS>ATOM
      1 N2         -0.2940    0.8370    1.2290 n         1 AG6     -0.363000
      2 N3          3.0170   -0.6890    0.2750 n         1 AG6     -0.362000
      3 O5         -0.4160    2.3760   -0.5050 o         1 AG6     -0.404000
      4 O6          0.7880   -1.2940    0.0960 o         1 AG6     -0.387000
      5 C7         -1.0120    1.5690    0.2100 c2        1 AG6      0.276000
      6 O7          3.1940   -4.2230   -1.3080 o         1 AG6     -0.334000
      7 C8          1.1060    0.8070    1.2190 c3        1 AG6      0.010000
      8 C9          1.6170    0.8050    2.6470 c3        1 AG6     -0.125000
      9 C10         1.5940   -0.4780    0.4990 c2        1 AG6      0.277000
     10 C11         3.5040   -1.9900   -0.0530 c3        1 AG6      0.057000
     11 C12         4.9510   -1.8810   -0.5820 c3        1 AG6     -0.160000
     12 C13         5.9340   -1.6920    0.6180 c3        1 AG6     -0.161000
     13 C14         7.3520   -1.4430    0.0820 c3        1 AG6     -0.207000
     14 C15         3.4800   -2.8670    1.1820 c2        1 AG6     -0.121000
     15 C22         3.2380   -4.2610    1.0610 c1        1 AG6     -0.216000
     16 C23         3.0020   -4.8780   -0.3150 c1        1 AG6      0.304000
     17 C24         1.6690    2.9550    4.0180 c1        1 AG6     -0.116000
     18 C25         2.2460    4.1730    4.3650 c2        1 AG6     -0.123000
     19 C26         2.2210    2.1930    2.9930 c2        1 AG6     -0.069000
     20 C27         3.3740    4.6290    3.6860 c1        1 AG6     -0.134000
     21 C28         3.3480    2.6490    2.3150 c2        1 AG6     -0.127000
     22 C29         3.9230    3.8660    2.6630 c2        1 AG6     -0.132000
     23 C30         2.6730   -6.3610   -0.4350 c1        1 AG6     -0.177000
     24 C31         1.3650   -6.8000   -0.2480 c2        1 AG6     -0.076000
     25 C32         3.6930   -7.2840   -0.6410 c1        1 AG6     -0.097000
     26 C33         1.0780   -8.1600   -0.2660 c1        1 AG6     -0.127000
     27 C34         3.4070   -8.6450   -0.6600 c1        1 AG6     -0.138500
     28 C35         2.0970   -9.0830   -0.4720 c1        1 AG6     -0.138500
     29 HN2        -0.7490    0.3690    1.8510 hn        1 AG6      0.239000
     30 HN3         3.5840    0.0080    0.3060 hn        1 AG6      0.249000
     31 C241       -2.5350    1.4060    0.0790 c3        1 AG6      0.015000
     32 H8          1.4490    1.5990    0.7460 h1        1 AG6      0.131000
     33 H19         2.3180    0.1060    2.7440 hc        1 AG6      0.111500
     34 H29         0.8680    0.6080    3.2630 hc        1 AG6      0.111500
     35 H11         2.9170   -2.3990   -0.7660 h1        1 AG6      0.109000
     36 H112        5.1810   -2.6960   -1.0660 hc        1 AG6      0.090500
     37 H212        5.0210   -1.1180   -1.1820 hc        1 AG6      0.090500
     38 H113        5.9310   -2.4960    1.1680 hc        1 AG6      0.092500
     39 H213        5.6550   -0.9430    1.1450 hc        1 AG6      0.092500
     40 H114        7.6110   -2.1780   -0.5070 hc        1 AG6      0.064667
     41 H214        7.3680   -0.5930   -0.4230 hc        1 AG6      0.064667
     42 H314        7.9880   -1.3900    0.8430 hc        1 AG6      0.064667
     43 H24         0.8670    2.6300    4.5010 DU        1 AG6      0.129000
     44 H25         1.8630    4.7060    5.0790 ha        1 AG6      0.132000
     45 H27         3.8320    5.4310    3.9910 DU        1 AG6      0.129000
     46 H28         3.7140    2.1330    1.5920 ha        1 AG6      0.129000
     47 H29A        4.7390    4.1970    2.1730 ha        1 AG6      0.124000
     48 H31         0.6320   -6.1390   -0.1000 ha        1 AG6      0.196000
     49 H32         4.6320   -6.9690   -0.7760 ha        1 AG6      0.131000
     50 H33         0.1620   -8.4670   -0.1350 ha        1 AG6      0.214000
     51 H34         4.1370   -9.2960   -0.7060 ha        1 AG6      0.121750
     52 H35         1.8930  -10.0450   -0.4840 ha        1 AG6      0.121750
     53 N31        -3.0260    2.3400   -0.8550 n         1 AG6     -0.303000
     54 C251       -2.8570   -0.0070   -0.3960 c3        1 AG6     -0.153000
     55 H241       -2.9610    1.5620    0.9610 h1        1 AG6      0.138000
     56 C261       -4.2130   -0.4500    0.1870 c3        1 AG6     -0.224000
     57 H251       -2.1410   -0.6370   -0.0890 hc        1 AG6      0.106500
     58 H26        -2.9040   -0.0190   -1.3740 hc        1 AG6      0.106500
     59 H271       -4.1480   -0.5010    1.1430 hc        1 AG6      0.075500
     60 C271       -4.5840   -1.8180   -0.3720 c2        1 AG6      0.328000
     61 H281       -4.8960    0.1950   -0.0560 hc        1 AG6      0.075500
     62 O4         -4.6200   -2.8230    0.3940 o         1 AG6     -0.584500
     63 O51        -4.9560   -1.9280   -1.5700 o         1 AG6     -0.584500
     64 H291       -2.5210    2.5840   -1.5440 hn        1 AG6      0.246000
     65 C281       -4.2890    2.9630   -0.6460 c2        1 AG6      0.390000
     66 O61        -4.8990    3.7100   -1.6990 os        1 AG6     -0.283000
     67 O71        -4.8240    2.8820    0.4100 o         1 AG6     -0.409000
     68 C291       -6.2300    4.1720   -1.3900 c3        1 AG6      0.037000
     69 H311       -6.1980    4.7570   -0.5960 h1        1 AG6      0.102000
     70 H321       -6.8070    3.4040   -1.2040 h1        1 AG6      0.102000
     71 C301       -6.7950    4.9590   -2.5850 c2        1 AG6     -0.079000
     72 C311       -7.2030    4.2860   -3.7330 c2        1 AG6     -0.100000
     73 C321       -7.6840    5.0000   -4.8240 c1        1 AG6     -0.133000
     74 C331       -7.7570    6.3870   -4.7680 c1        1 AG6     -0.138500
     75 C341       -7.3490    7.0590   -3.6200 c1        1 AG6     -0.138500
     76 C351       -6.8680    6.3430   -2.5300 c1        1 AG6     -0.127000
     77 H115        3.6310   -2.4710    2.0660 ha        1 AG6      0.155000
     78 H122        3.2230   -4.8370    1.8750 ha        1 AG6      0.153000
     79 H351       -7.1390    3.3040   -3.7760 ha        1 AG6      0.154000
     80 H36        -7.8810    4.5310   -5.6700 ha        1 AG6      0.131000
     81 H37        -8.1720    6.8710   -5.4810 ha        1 AG6      0.121750
     82 H38        -7.4770    8.0260   -3.5500 ha        1 AG6      0.121750
     83 H39        -6.6830    6.8610   -1.7150 ha        1 AG6      0.130000
@<TRIPOS>BOND
     1    1    5 1   
     2    1    7 1   
     3    1   29 1   
     4    2    9 1   
     5    2   10 1   
     6    2   30 1   
     7    3    5 1   
     8    4    9 1   
     9    5   31 1   
    10    6   16 1   
    11    7    8 1   
    12    7    9 1   
    13    7   32 1   
    14    8   19 1   
    15    8   33 1   
    16    8   34 1   
    17   10   11 1   
    18   10   14 1   
    19   10   35 1   
    20   11   12 1   
    21   11   36 1   
    22   11   37 1   
    23   12   13 1   
    24   12   38 1   
    25   12   39 1   
    26   13   40 1   
    27   13   41 1   
    28   13   42 1   
    29   14   15 1   
    30   14   77 1   
    31   15   78 1   
    32   17   18 1   
    33   17   19 1   
    34   18   20 1   
    35   18   44 1   
    36   19   21 1   
    37   20   22 1   
    38   21   22 1   
    39   21   46 1   
    40   22   47 1   
    41   23   24 1   
    42   23   25 1   
    43   24   26 1   
    44   24   48 1   
    45   25   49 1   
    46   26   50 1   
    47   27   28 1   
    48   27   51 1   
    49   28   52 1   
    50   31   53 1   
    51   31   54 1   
    52   31   55 1   
    53   53   64 1   
    54   53   65 1   
    55   54   56 1   
    56   54   57 1   
    57   54   58 1   
    58   56   59 1   
    59   56   60 1   
    60   56   61 1   
    61   60   62 1   
    62   60   63 1   
    63   65   66 1   
    64   65   67 1   
    65   66   68 1   
    66   68   69 1   
    67   68   70 1   
    68   68   71 1   
    69   71   72 1   
    70   71   76 1   
    71   72   73 1   
    72   72   79 1   
    73   73   80 1   
    74   74   75 1   
    75   74   81 1   
    76   75   82 1   
    77   76   83 1   
@<TRIPOS>SUBSTRUCTURE
     1 AG6         1 TEMP              0 ****  ****    0 ROOT
