@<TRIPOS>MOLECULE
AG7
   86    88     1     0     0
SMALL
bcc


@<TRIPOS>ATOM
      1 C01         0.4610   -0.4390   -0.4320 c         1 AG7      0.567100
      2 C02         1.9510   -0.3920   -0.3050 c3        1 AG7     -0.177400
      3 O03        -0.3220   -0.7090    0.4800 o         1 AG7     -0.493100
      4 C04         2.4120   -0.4670    1.1480 c3        1 AG7     -0.130700
      5 C05         2.4170   -1.9110    1.6470 c3        1 AG7     -0.043100
      6 C06         2.3340   -2.0210    3.1290 ca        1 AG7     -0.177300
      7 C07         1.2100   -1.5370    3.8120 ca        1 AG7     -0.108000
      8 C08         1.0910   -1.6970    5.1870 ca        1 AG7     -0.165000
      9 C09         2.1080   -2.3670    5.8980 ca        1 AG7      0.158900
     10 C10         3.2340   -2.8700    5.2160 ca        1 AG7     -0.165000
     11 C11         3.3360   -2.6960    3.8400 ca        1 AG7     -0.108000
     12 N12         4.3850    0.0770    2.6470 n4        1 AG7     -0.678800
     13 C13         5.5300    1.0190    2.9160 c3        1 AG7      0.130500
     14 C14         5.2880    1.8540    4.1840 c3        1 AG7     -0.093400
     15 C15         4.4140    3.0690    3.9550 c3        1 AG7     -0.156700
     16 C16         2.9090    2.7540    3.9500 c         1 AG7      0.702500
     17 N17         2.2540    3.5540    4.8430 n         1 AG7     -0.532900
     18 O18         2.3590    1.8950    3.2200 o         1 AG7     -0.745500
     19 C19         6.8660    0.2720    3.0430 c3        1 AG7     -0.099400
     20 C20         7.3480   -0.3540    1.7510 c3        1 AG7     -0.159400
     21 C21         6.9450   -1.7940    1.6220 c         1 AG7      0.652100
     22 O22         7.9470   -2.6030    1.2320 os        1 AG7     -0.395900
     23 O23         5.8120   -2.2650    1.8310 o         1 AG7     -0.641000
     24 C47         3.7840    0.1620    1.2760 c         1 AG7      0.582100
     25 O48         4.4210    0.7210    0.3910 o         1 AG7     -0.460100
     26 C50         7.6790   -4.0110    1.0540 c3        1 AG7      0.136400
     27 C53         7.0840   -4.2710   -0.3050 c3        1 AG7     -0.128100
     28 C57        -0.0830   -0.1520   -1.8430 c3        1 AG7      0.017500
     29 N58        -1.1500   -1.1480   -2.2010 n4        1 AG7     -0.672800
     30 C59        -0.6240   -2.4940   -2.6630 c         1 AG7      0.509600
     31 O60         0.5810   -2.6830   -2.5790 o         1 AG7     -0.421100
     32 C78        -0.6340    1.2940   -1.9030 c3        1 AG7     -0.077700
     33 C81         0.4620    2.2690   -1.5250 c3        1 AG7     -0.117100
     34 F1          2.0020   -2.5270    7.2340 f         1 AG7     -0.109900
     35 C82        -1.1670    1.6210   -3.2840 c3        1 AG7     -0.117100
     36 C83         3.1470    4.4530    5.5500 c3        1 AG7      0.077000
     37 C84         4.5770    4.1130    5.0740 c3        1 AG7     -0.096400
     38 C1         -1.6400   -3.4090   -3.1570 cc        1 AG7      0.187800
     39 C2         -1.3750   -4.7330   -3.7000 cc        1 AG7     -0.298600
     40 C3         -2.6310   -5.2210   -4.0300 cd        1 AG7      0.327000
     41 O4         -3.5780   -4.2080   -3.6840 os        1 AG7     -0.045100
     42 N5         -2.9850   -3.1740   -3.1840 nd        1 AG7     -0.309300
     43 C4         -3.1750   -6.4440   -4.6090 c3        1 AG7     -0.167400
     44 H2          2.3740   -1.2570   -0.8900 hc        1 AG7      0.111200
     45 H3          2.3320    0.5530   -0.7860 hc        1 AG7      0.111200
     46 H27         1.7060    0.1510    1.7900 hc        1 AG7      0.146700
     47 H28         1.5180   -2.4270    1.2070 hc        1 AG7      0.082700
     48 H29         3.3330   -2.4420    1.2650 hc        1 AG7      0.082700
     49 H30         0.4040   -1.0350    3.2520 ha        1 AG7      0.156500
     50 H31         0.2060   -1.3240    5.7250 ha        1 AG7      0.170000
     51 H33         4.0090   -3.4160    5.7750 ha        1 AG7      0.170000
     52 H34         4.2010   -3.1250    3.3020 ha        1 AG7      0.156500
     53 H49         4.6950   -0.9080    2.7830 hn        1 AG7      0.492800
     54 H91         5.6020    1.7220    2.0290 hx        1 AG7      0.119700
     55 H35         4.8710    1.2220    5.0120 hc        1 AG7      0.088700
     56 H36         6.2940    2.2200    4.5360 hc        1 AG7      0.088700
     57 H94         4.6590    3.5380    2.9630 hc        1 AG7      0.094700
     58 H39         1.2740    3.5630    4.9790 hn        1 AG7      0.354500
     59 H191        7.6330    1.0320    3.3630 hc        1 AG7      0.092200
     60 H192        6.8080   -0.4970    3.8590 hc        1 AG7      0.092200
     61 H41         8.4720   -0.2890    1.7010 hc        1 AG7      0.110200
     62 H42         6.9410    0.1940    0.8560 hc        1 AG7      0.110200
     63 H51         8.7070   -4.4590    1.1530 h1        1 AG7      0.081200
     64 H52         7.0100   -4.3730    1.8770 h1        1 AG7      0.081200
     65 H53         6.9910   -5.3730   -0.4620 hc        1 AG7      0.056367
     66 H54         7.7330   -3.8470   -1.1090 hc        1 AG7      0.056367
     67 H56         6.0710   -3.8080   -0.3820 hc        1 AG7      0.056367
     68 H77         0.7510   -0.2630   -2.6000 hx        1 AG7      0.131700
     69 H61        -1.7520   -1.3000   -1.3750 hn        1 AG7      0.483300
     70 H79        -1.4680    1.3890   -1.1490 hc        1 AG7      0.086700
     71 H82         0.7840    2.1160   -0.4660 hc        1 AG7      0.063033
     72 H84         0.0760    3.3160   -1.6170 hc        1 AG7      0.063033
     73 H85         1.3460    2.1640   -2.2000 hc        1 AG7      0.063033
     74 H86        -1.2880    2.7310   -3.3860 hc        1 AG7      0.063033
     75 H87        -2.1740    1.1710   -3.4610 hc        1 AG7      0.063033
     76 H88        -0.4630    1.2820   -4.0810 hc        1 AG7      0.063033
     77 H89         2.8870    5.5210    5.3110 h1        1 AG7      0.076700
     78 H90         3.0420    4.3010    6.6590 h1        1 AG7      0.076700
     79 H92         5.0890    5.0290    4.6900 hc        1 AG7      0.079700
     80 H93         5.1790    3.7100    5.9250 hc        1 AG7      0.079700
     81 H8         -0.4010   -5.2050   -3.8120 ha        1 AG7      0.213000
     82 H5         -2.7550   -6.5980   -5.6380 hc        1 AG7      0.099033
     83 H6         -4.2920   -6.3940   -4.6820 hc        1 AG7      0.099033
     84 H7         -2.8950   -7.3250   -3.9740 hc        1 AG7      0.099033
     85 H122        3.6160    0.2660    3.3190 hn        1 AG7      0.492800
     86 H582       -1.7340   -0.7510   -2.9530 hn        1 AG7      0.483300
@<TRIPOS>BOND
     1    1    2 1   
     2    1    3 2   
     3    1   28 1   
     4    2    4 1   
     5    2   44 1   
     6    2   45 1   
     7    4    5 1   
     8    4   24 1   
     9    4   46 1   
    10    5    6 1   
    11    5   47 1   
    12    5   48 1   
    13    6    7 ar  
    14    6   11 ar  
    15    7    8 ar  
    16    7   49 1   
    17    8    9 ar  
    18    8   50 1   
    19    9   10 ar  
    20    9   34 1   
    21   10   11 ar  
    22   10   51 1   
    23   11   52 1   
    24   12   13 1   
    25   12   24 1   
    26   12   53 1   
    27   12   85 1   
    28   13   14 1   
    29   13   19 1   
    30   13   54 1   
    31   14   15 1   
    32   14   55 1   
    33   14   56 1   
    34   15   16 1   
    35   15   37 1   
    36   15   57 1   
    37   16   17 1   
    38   16   18 2   
    39   17   36 1   
    40   17   58 1   
    41   19   20 1   
    42   19   59 1   
    43   19   60 1   
    44   20   21 1   
    45   20   61 1   
    46   20   62 1   
    47   21   22 1   
    48   21   23 2   
    49   22   26 1   
    50   24   25 2   
    51   26   27 1   
    52   26   63 1   
    53   26   64 1   
    54   27   65 1   
    55   27   66 1   
    56   27   67 1   
    57   28   29 1   
    58   28   32 1   
    59   28   68 1   
    60   29   30 1   
    61   29   69 1   
    62   29   86 1   
    63   30   31 2   
    64   30   38 1   
    65   32   33 1   
    66   32   35 1   
    67   32   70 1   
    68   33   71 1   
    69   33   72 1   
    70   33   73 1   
    71   35   74 1   
    72   35   75 1   
    73   35   76 1   
    74   36   37 1   
    75   36   77 1   
    76   36   78 1   
    77   37   79 1   
    78   37   80 1   
    79   38   39 1   
    80   38   42 2   
    81   39   40 2   
    82   39   81 1   
    83   40   41 1   
    84   40   43 1   
    85   41   42 1   
    86   43   82 1   
    87   43   83 1   
    88   43   84 1   
@<TRIPOS>SUBSTRUCTURE
     1 AG7         1 TEMP              0 ****  ****    0 ROOT
