@<TRIPOS>MOLECULE
AG7
   86    88     1     0     0
SMALL
bcc


@<TRIPOS>ATOM
      1 C01         0.4620   -0.4270   -0.4340 c         1 AG7      0.567100
      2 C02         1.9530   -0.3990   -0.3090 c3        1 AG7     -0.177400
      3 O03        -0.3230   -0.6720    0.4820 o         1 AG7     -0.493100
      4 C04         2.4140   -0.4610    1.1430 c3        1 AG7     -0.130700
      5 C05         2.4000   -1.8990    1.6630 c3        1 AG7     -0.043100
      6 C06         2.3180   -1.9880    3.1460 ca        1 AG7     -0.177300
      7 C07         1.2010   -1.4790    3.8230 ca        1 AG7     -0.108000
      8 C08         1.0810   -1.6190    5.2000 ca        1 AG7     -0.165000
      9 C09         2.0900   -2.2930    5.9190 ca        1 AG7      0.159900
     10 C10         3.2070   -2.8210    5.2430 ca        1 AG7     -0.165000
     11 C11         3.3100   -2.6670    3.8650 ca        1 AG7     -0.108000
     12 N12         4.3960    0.0760    2.6340 ny        1 AG7     -0.678800
     13 C13         5.5540    1.0050    2.8890 c3        1 AG7      0.130500
     14 C14         5.3250    1.8610    4.1470 c3        1 AG7     -0.093400
     15 C15         4.4670    3.0840    3.9030 c3        1 AG7     -0.156700
     16 C16         2.9580    2.7890    3.9030 c         1 AG7      0.702500
     17 N17         2.3150    3.6090    4.7860 ns        1 AG7     -0.532900
     18 O18         2.3960    1.9280    3.1840 o         1 AG7     -0.745500
     19 C19         6.8800    0.2420    3.0250 c3        1 AG7     -0.099400
     20 C20         7.3520   -0.4070    1.7410 c3        1 AG7     -0.159400
     21 C21         6.9290   -1.8430    1.6320 c         1 AG7      0.652100
     22 O22         7.9210   -2.6710    1.2530 os        1 AG7     -0.395900
     23 O23         5.7910   -2.2970    1.8490 o         1 AG7     -0.641000
     24 C47         3.7950    0.1500    1.2620 c         1 AG7      0.582100
     25 O48         4.4380    0.6880    0.3690 o         1 AG7     -0.460100
     26 C50         7.6340   -4.0780    1.0940 c3        1 AG7      0.136400
     27 C53         7.0330   -4.3480   -0.2610 c3        1 AG7     -0.128100
     28 C57        -0.0790   -0.1520   -1.8490 c3        1 AG7      0.017500
     29 N58        -1.1610   -1.1390   -2.1920 ny        1 AG7     -0.672800
     30 C59        -0.6550   -2.4980   -2.6340 c         1 AG7      0.509600
     31 O60         0.5460   -2.7040   -2.5490 o         1 AG7     -0.421100
     32 C78        -0.6090    1.3000   -1.9300 c3        1 AG7     -0.077700
     33 C81         0.5020    2.2650   -1.5670 c3        1 AG7     -0.117100
     34 F1          1.9830   -2.4340    7.2570 f         1 AG7     -0.109900
     35 C82        -1.1380    1.6150   -3.3150 c3        1 AG7     -0.117100
     36 C83         3.2200    4.5050    5.4800 c3        1 AG7      0.077000
     37 C84         4.6450    4.1400    5.0080 c3        1 AG7     -0.096400
     38 C1         -1.6860   -3.4060   -3.1120 cc        1 AG7      0.187800
     39 C2         -1.4400   -4.7420   -3.6360 cc        1 AG7     -0.298600
     40 C3         -2.7040   -5.2160   -3.9570 cd        1 AG7      0.327000
     41 O4         -3.6350   -4.1840   -3.6250 os        1 AG7     -0.045100
     42 N5         -3.0270   -3.1520   -3.1420 nd        1 AG7     -0.309300
     43 C4         -3.2670   -6.4400   -4.5160 c3        1 AG7     -0.167400
     44 H2          2.3630   -1.2790   -0.8830 hc        1 AG7      0.111200
     45 H3          2.3470    0.5330   -0.8040 hc        1 AG7      0.111200
     46 H27         1.7170    0.1740    1.7780 hc        1 AG7      0.146700
     47 H28         3.3080   -2.4480    1.2860 hc        1 AG7      0.082700
     48 H29         1.4940   -2.4080    1.2300 hc        1 AG7      0.082700
     49 H30         0.4010   -0.9740    3.2570 ha        1 AG7      0.156500
     50 H31         0.2020   -1.2270    5.7340 ha        1 AG7      0.170000
     51 H33         3.9760   -3.3690    5.8090 ha        1 AG7      0.170000
     52 H34         4.1690   -3.1140    3.3320 ha        1 AG7      0.156500
     53 H49         3.6310    0.2840    3.3040 hn        1 AG7      0.492800
     54 H91         5.6350    1.6960    1.9930 hx        1 AG7      0.119700
     55 H35         6.3360    2.2180    4.4930 hc        1 AG7      0.088700
     56 H36         4.9000    1.2450    4.9840 hc        1 AG7      0.088700
     57 H94         4.7170    3.5370    2.9040 hc        1 AG7      0.094700
     58 H39         1.3350    3.6330    4.9230 hn        1 AG7      0.354500
     59 H191        6.8130   -0.5150    3.8510 hc        1 AG7      0.092200
     60 H192        7.6570    0.9970    3.3330 hc        1 AG7      0.092200
     61 H41         6.9510    0.1340    0.8400 hc        1 AG7      0.110200
     62 H42         8.4760   -0.3570    1.6890 hc        1 AG7      0.110200
     63 H51         8.6550   -4.5370    1.1990 h1        1 AG7      0.081200
     64 H52         6.9610   -4.4190    1.9220 h1        1 AG7      0.081200
     65 H53         7.6880   -3.9440   -1.0710 hc        1 AG7      0.056367
     66 H54         6.0270   -3.8730   -0.3430 hc        1 AG7      0.056367
     67 H56         6.9270   -5.4510   -0.4020 hc        1 AG7      0.056367
     68 H77         0.7520   -0.2870   -2.6050 hx        1 AG7      0.131700
     69 H61        -1.7400   -0.7440   -2.9480 hn        1 AG7      0.483300
     70 H79        -1.4410    1.4180   -1.1770 hc        1 AG7      0.086700
     71 H82         1.3830    2.1360   -2.2420 hc        1 AG7      0.063033
     72 H84         0.8230    2.1220   -0.5070 hc        1 AG7      0.063033
     73 H85         0.1310    3.3150   -1.6750 hc        1 AG7      0.063033
     74 H86        -0.4410    1.2530   -4.1080 hc        1 AG7      0.063033
     75 H87        -2.1520    1.1770   -3.4840 hc        1 AG7      0.063033
     76 H88        -1.2430    2.7240   -3.4330 hc        1 AG7      0.063033
     77 H89         3.1140    4.3700    6.5920 h1        1 AG7      0.076700
     78 H90         2.9740    5.5740    5.2280 h1        1 AG7      0.076700
     79 H92         5.1680    5.0440    4.6120 hc        1 AG7      0.079700
     80 H93         5.2420    3.7400    5.8640 hc        1 AG7      0.079700
     81 H8         -0.4730   -5.2300   -3.7410 ha        1 AG7      0.213000
     82 H5         -2.8500   -6.6160   -5.5430 hc        1 AG7      0.099033
     83 H6         -3.0000   -7.3140   -3.8670 hc        1 AG7      0.099033
     84 H7         -4.3830   -6.3740   -4.5890 hc        1 AG7      0.099033
     85 H122        4.6930   -0.9120    2.7830 hn        1 AG7      0.492800
     86 H582       -1.7640   -1.2690   -1.3630 hn        1 AG7      0.483300
@<TRIPOS>BOND
     1    1    2 1   
     2    1    3 2   
     3    1   28 1   
     4    2    4 1   
     5    2   44 1   
     6    2   45 1   
     7    4    5 1   
     8    4   24 1   
     9    4   46 1   
    10    5    6 1   
    11    5   47 1   
    12    5   48 1   
    13    6    7 ar  
    14    6   11 ar  
    15    7    8 ar  
    16    7   49 1   
    17    8    9 ar  
    18    8   50 1   
    19    9   10 ar  
    20    9   34 1   
    21   10   11 ar  
    22   10   51 1   
    23   11   52 1   
    24   12   13 1   
    25   12   24 1   
    26   12   53 1   
    27   12   85 1   
    28   13   14 1   
    29   13   19 1   
    30   13   54 1   
    31   14   15 1   
    32   14   55 1   
    33   14   56 1   
    34   15   16 1   
    35   15   37 1   
    36   15   57 1   
    37   16   17 1   
    38   16   18 2   
    39   17   36 1   
    40   17   58 1   
    41   19   20 1   
    42   19   59 1   
    43   19   60 1   
    44   20   21 1   
    45   20   61 1   
    46   20   62 1   
    47   21   22 1   
    48   21   23 2   
    49   22   26 1   
    50   24   25 2   
    51   26   27 1   
    52   26   63 1   
    53   26   64 1   
    54   27   65 1   
    55   27   66 1   
    56   27   67 1   
    57   28   29 1   
    58   28   32 1   
    59   28   68 1   
    60   29   30 1   
    61   29   69 1   
    62   29   86 1   
    63   30   31 2   
    64   30   38 1   
    65   32   33 1   
    66   32   35 1   
    67   32   70 1   
    68   33   71 1   
    69   33   72 1   
    70   33   73 1   
    71   35   74 1   
    72   35   75 1   
    73   35   76 1   
    74   36   37 1   
    75   36   77 1   
    76   36   78 1   
    77   37   79 1   
    78   37   80 1   
    79   38   39 1   
    80   38   42 2   
    81   39   40 2   
    82   39   81 1   
    83   40   41 1   
    84   40   43 1   
    85   41   42 1   
    86   43   82 1   
    87   43   83 1   
    88   43   84 1   
@<TRIPOS>SUBSTRUCTURE
     1 AG7         1 TEMP              0 ****  ****    0 ROOT
