@<TRIPOS>MOLECULE
AG7
   84    81     1     0     0
SMALL
bcc


@<TRIPOS>ATOM
      1 C01        -1.7760   -1.1890   -1.1620 c1        1 AG7      0.220000
      2 C02        -0.2260   -1.1700   -1.1270 c2        1 AG7     -0.213000
      3 O03        -2.4080   -1.5330   -0.1670 o         1 AG7     -0.309000
      4 C04         0.2470   -1.2310    0.3010 c3        1 AG7     -0.113000
      5 C05         1.0830   -2.4750    0.4990 c3        1 AG7     -0.116000
      6 C06         0.1750   -3.6360    1.0800 c2        1 AG7     -0.093000
      7 C07         0.0090   -4.8210    0.3480 c2        1 AG7     -0.104000
      8 C08        -0.6450   -5.9050    0.9180 c1        1 AG7     -0.161000
      9 C09        -1.1350   -5.8180    2.2160 c1        1 AG7      0.089000
     10 C10        -0.9730   -4.6460    2.9450 c1        1 AG7     -0.162000
     11 C11        -0.3130   -3.5500    2.3700 c1        1 AG7     -0.102000
     12 N12         0.9810    0.6670    1.8720 n         1 AG7     -0.381000
     13 C13         1.6860    1.8900    2.1110 c3        1 AG7      0.022000
     14 C14         0.7270    2.9300    2.6170 c3        1 AG7     -0.157000
     15 C15         1.3780    4.3240    2.5050 c3        1 AG7     -0.130000
     16 C16         0.7560    5.1130    1.2650 c2        1 AG7      0.298000
     17 N17        -0.4140    5.5250    1.6230 n         1 AG7     -0.391000
     18 O18         1.2210    5.1430    0.1100 o         1 AG7     -0.347000
     19 C19         2.7700    1.6550    3.1470 c3        1 AG7     -0.170000
     20 C20         4.1370    1.9780    2.5430 c3        1 AG7     -0.159000
     21 C21         5.1790    2.1510    3.6870 c2        1 AG7      0.304000
     22 O22         6.5250    1.6950    3.5060 os        1 AG7     -0.280000
     23 O23         4.8600    2.6880    4.7150 o         1 AG7     -0.368000
     24 C47         1.0990    0.0150    0.6100 c2        1 AG7      0.299000
     25 O48         1.8750    0.4290   -0.2070 o         1 AG7     -0.373000
     26 C50         7.3060    1.6860    4.7140 c3        1 AG7     -0.012000
     27 C53         8.5940    0.9080    4.4780 c3        1 AG7     -0.218000
     28 C57        -2.5130   -0.7130   -2.4050 c3        1 AG7     -0.021000
     29 N58        -2.4620   -1.7260   -3.4030 n         1 AG7     -0.353000
     30 C59        -2.3830   -1.3580   -4.8120 c2        1 AG7      0.383000
     31 O60        -1.6590   -0.4390   -5.1610 o         1 AG7     -0.361000
     32 C78        -3.9690   -0.4170   -2.0500 c3        1 AG7     -0.109000
     33 C81        -4.8490   -1.5730   -2.5090 c3        1 AG7     -0.215500
     34 F1         -1.8370   -6.8730    2.7570 f         1 AG7     -0.106000
     35 C82        -4.4180    0.8910   -2.7560 c3        1 AG7     -0.215500
     36 C83        -0.3150    5.7660    3.0640 c3        1 AG7     -0.029000
     37 C84         0.9980    5.0790    3.5250 c3        1 AG7     -0.172000
     38 C1         -3.3220   -2.0030   -5.8150 c2        1 AG7     -0.153000
     39 C2         -3.5820   -1.5490   -7.1000 c1        1 AG7     -0.181000
     40 C3         -4.4200   -2.4510   -7.7070 c1        1 AG7     -0.030000
     41 O4         -4.6790   -3.4560   -6.8130 os        1 AG7     -0.054000
     42 N5         -3.9950   -3.1730   -5.6390 n2        1 AG7      0.002000
     43 C4         -4.9500   -2.3660   -9.1590 c2        1 AG7     -0.164000
     44 H2          0.1210   -1.9420   -1.6170 ha        1 AG7      0.131000
     45 H3          0.1000   -0.3450   -1.5440 ha        1 AG7      0.131000
     46 H27        -0.5190   -1.2570    0.8960 hc        1 AG7      0.123000
     47 H28         1.4640   -2.7570   -0.3710 hc        1 AG7      0.110500
     48 H29         1.8100   -2.2830    1.1280 hc        1 AG7      0.110500
     49 H30         0.3620   -4.8840   -0.5920 ha        1 AG7      0.139000
     50 H31        -0.7630   -6.7510    0.3930 ha        1 AG7      0.151000
     51 H33        -1.3260   -4.5840    3.8780 ha        1 AG7      0.149000
     52 H34        -0.1940   -2.6880    2.9040 ha        1 AG7      0.138000
     53 H49         0.4920    0.3020    2.5180 hn        1 AG7      0.241000
     54 H91         2.0900    2.1980    1.2830 h1        1 AG7      0.145000
     55 H35        -0.1060    2.9070    2.0730 hc        1 AG7      0.094500
     56 H36         0.5020    2.7380    3.5890 hc        1 AG7      0.094500
     57 H94         2.3010    4.0880    2.4550 hc        1 AG7      0.131000
     58 H39        -1.0530    5.8340    1.0800 hn        1 AG7      0.243000
     59 H191        2.6130    2.2320    3.9180 hc        1 AG7      0.096500
     60 H192        2.7540    0.7300    3.4260 hc        1 AG7      0.096500
     61 H41         4.0780    2.8110    2.0250 hc        1 AG7      0.134500
     62 H42         4.4120    1.2530    1.9610 hc        1 AG7      0.134500
     63 H51         6.8040    1.2670    5.4170 h1        1 AG7      0.089000
     64 H52         7.5230    2.6160    4.9740 h1        1 AG7      0.089000
     65 H53         9.0310    0.7230    5.3450 hc        1 AG7      0.086333
     66 H54         9.1960    1.4370    3.9150 hc        1 AG7      0.086333
     67 H56         8.3870    0.0590    4.0280 hc        1 AG7      0.086333
     68 H77        -2.0790    0.1160   -2.7510 h1        1 AG7      0.143000
     69 H61        -2.4190   -2.6410   -3.1480 hn        1 AG7      0.251000
     70 H79        -4.0520   -0.3110   -1.0990 hc        1 AG7      0.103000
     71 H82        -5.1290   -1.4250   -3.4180 hc        1 AG7      0.082500
     72 H84        -5.6450   -1.6340   -1.9220 hc        1 AG7      0.082500
     73 H85        -4.3540   -2.3890   -2.4580 hc        1 AG7      0.082500
     74 H86        -5.3500    1.0990   -2.5020 hc        1 AG7      0.082500
     75 H87        -4.3630    0.7740   -3.7270 hc        1 AG7      0.082500
     76 H88        -3.8270    1.6340   -2.4800 hc        1 AG7      0.082500
     77 H89        -1.0540    5.3850    3.5100 h1        1 AG7      0.082500
     78 H90        -0.2730    6.7240    3.2420 h1        1 AG7      0.082500
     79 H92         0.8260    4.5150    4.3260 hc        1 AG7      0.099500
     80 H93         1.6880    5.7550    3.7240 hc        1 AG7      0.099500
     81 H8         -3.2350   -0.7420   -7.4960 DU        1 AG7      0.197000
     82 H5         -5.6200   -3.0650   -9.3020 ha        1 AG7      0.108000
     83 H6         -4.1910   -2.4960   -9.8010 ha        1 AG7      0.108000
     84 H7         -5.3670   -1.4660   -9.3110 ha        1 AG7      0.108000
@<TRIPOS>BOND
     1    1    3 1   
     2    1   28 1   
     3    2    4 1   
     4    2   44 1   
     5    2   45 1   
     6    4    5 1   
     7    4   24 1   
     8    4   46 1   
     9    5    6 1   
    10    5   47 1   
    11    5   48 1   
    12    6    7 1   
    13    6   11 1   
    14    7    8 1   
    15    7   49 1   
    16    8   50 1   
    17    9   10 1   
    18    9   34 1   
    19   10   51 1   
    20   11   52 1   
    21   12   13 1   
    22   12   24 1   
    23   12   53 1   
    24   13   14 1   
    25   13   19 1   
    26   13   54 1   
    27   14   15 1   
    28   14   55 1   
    29   14   56 1   
    30   15   16 1   
    31   15   37 1   
    32   15   57 1   
    33   16   17 1   
    34   16   18 1   
    35   17   36 1   
    36   17   58 1   
    37   19   20 1   
    38   19   59 1   
    39   19   60 1   
    40   20   21 1   
    41   20   61 1   
    42   20   62 1   
    43   21   22 1   
    44   21   23 1   
    45   22   26 1   
    46   24   25 1   
    47   26   27 1   
    48   26   63 1   
    49   26   64 1   
    50   27   65 1   
    51   27   66 1   
    52   27   67 1   
    53   28   29 1   
    54   28   32 1   
    55   28   68 1   
    56   29   30 1   
    57   29   69 1   
    58   30   31 1   
    59   30   38 1   
    60   32   33 1   
    61   32   35 1   
    62   32   70 1   
    63   33   71 1   
    64   33   72 1   
    65   33   73 1   
    66   35   74 1   
    67   35   75 1   
    68   35   76 1   
    69   36   37 1   
    70   36   77 1   
    71   36   78 1   
    72   37   79 1   
    73   37   80 1   
    74   38   39 1   
    75   38   42 1   
    76   39   40 1   
    77   40   41 1   
    78   41   42 1   
    79   43   82 1   
    80   43   83 1   
    81   43   84 1   
@<TRIPOS>SUBSTRUCTURE
     1 AG7         1 TEMP              0 ****  ****    0 ROOT
