@<TRIPOS>MOLECULE
AG7
   84    86     1     0     0
SMALL
bcc


@<TRIPOS>ATOM
      1 C01        -1.8210    1.3140    0.9450 c         1 AG7      0.561100
      2 C02        -1.0310    0.6160   -0.1200 c3        1 AG7     -0.189400
      3 O03        -1.7640    1.0470    2.1470 o         1 AG7     -0.531100
      4 C04        -0.0700   -0.4320    0.4180 c3        1 AG7     -0.114700
      5 C05        -0.8040   -1.6640    0.9420 c3        1 AG7     -0.031100
      6 C06         0.0710   -2.4900    1.8190 ca        1 AG7     -0.099300
      7 C07         0.0510   -2.3160    3.2070 ca        1 AG7     -0.104500
      8 C08         0.8810   -3.0720    4.0290 ca        1 AG7     -0.166500
      9 C09         1.7550   -4.0120    3.4530 ca        1 AG7      0.115900
     10 C10         1.7800   -4.1970    2.0590 ca        1 AG7     -0.166500
     11 C11         0.9310   -3.4420    1.2570 ca        1 AG7     -0.104500
     12 N12         2.0190   -0.0550   -0.8630 n         1 AG7     -0.567900
     13 C13         3.0150   -0.3340   -1.8700 c3        1 AG7      0.102700
     14 C14         3.5580    0.9440   -2.5360 c3        1 AG7     -0.081400
     15 C15         2.4850    1.7400   -3.2510 c3        1 AG7     -0.138700
     16 C16         1.9240    2.8740   -2.3820 c         1 AG7      0.704500
     17 N17         2.0510    4.0790   -3.0470 n         1 AG7     -0.579900
     18 O18         1.4090    2.7630   -1.2550 o         1 AG7     -0.667500
     19 C19         4.2170   -1.1230   -1.3130 c3        1 AG7     -0.088400
     20 C20         3.8240   -2.5420   -0.9700 c3        1 AG7     -0.131400
     21 C21         4.9950   -3.3160   -0.4500 c         1 AG7      0.633100
     22 O22         4.6180   -4.3540    0.3550 os        1 AG7     -0.445900
     23 O23         6.1980   -3.1450   -0.6600 o         1 AG7     -0.552000
     24 C47         0.8890   -0.8280   -0.7070 c         1 AG7      0.662100
     25 O48         0.6780   -1.8160   -1.4420 o         1 AG7     -0.631100
     26 C50         5.6710   -5.1550    0.9190 c3        1 AG7      0.138400
     27 C53         5.0010   -6.1330    1.8540 c3        1 AG7     -0.106100
     28 C57        -2.7420    2.4310    0.4180 c3        1 AG7      0.007700
     29 N58        -4.1160    2.1500    0.7560 n         1 AG7     -0.548900
     30 C59        -5.0450    1.7910   -0.1930 c         1 AG7      0.598600
     31 O60        -4.7520    1.6780   -1.4010 o         1 AG7     -0.603100
     32 C78        -2.2370    3.7770    0.9910 c3        1 AG7     -0.076700
     33 C81        -0.7950    3.9940    0.5780 c3        1 AG7     -0.093600
     34 F1          2.5820   -4.7420    4.2430 f         1 AG7     -0.148900
     35 C82        -3.0950    4.9290    0.5160 c3        1 AG7     -0.093600
     36 C83         2.6630    3.9410   -4.3470 c3        1 AG7      0.089000
     37 C84         3.0100    2.4440   -4.5130 c3        1 AG7     -0.094400
     38 C1         -6.4350    1.5290    0.2620 cc        1 AG7      0.264800
     39 C2         -7.4750    0.9940   -0.6160 cc        1 AG7     -0.313600
     40 C3         -8.5920    0.9140    0.1910 cd        1 AG7      0.259000
     41 O4         -8.2190    1.3850    1.4820 os        1 AG7     -0.110100
     42 N5         -6.9570    1.7350    1.4910 nd        1 AG7     -0.333300
     43 C4         -9.9760    0.4780    0.0300 c3        1 AG7     -0.141400
     44 H2         -1.7510    0.1420   -0.8400 hc        1 AG7      0.095200
     45 H3         -0.4500    1.4060   -0.6800 hc        1 AG7      0.095200
     46 H27         0.5060    0.0210    1.2760 hc        1 AG7      0.083700
     47 H28        -1.7020   -1.3170    1.5230 hc        1 AG7      0.070700
     48 H29        -1.1660   -2.2780    0.0730 hc        1 AG7      0.070700
     49 H30        -0.6240   -1.5690    3.6530 ha        1 AG7      0.152000
     50 H31         0.8660   -2.9390    5.1200 ha        1 AG7      0.152000
     51 H33         2.4860   -4.9150    1.6120 ha        1 AG7      0.152000
     52 H34         0.9390   -3.5830    0.1620 ha        1 AG7      0.152000
     53 H49         2.0850    0.8140   -0.3810 hn        1 AG7      0.333500
     54 H91         2.5280   -0.9740   -2.6710 h1        1 AG7      0.078700
     55 H35         4.0700    1.5840   -1.7710 hc        1 AG7      0.060700
     56 H36         4.3350    0.6220   -3.2800 hc        1 AG7      0.060700
     57 H94         1.6250    1.0680   -3.5210 hc        1 AG7      0.093700
     58 H39         1.7410    4.9460   -2.6950 hn        1 AG7      0.335500
     59 H191        5.0290   -1.1430   -2.0870 hc        1 AG7      0.060200
     60 H192        4.6330   -0.6110   -0.4070 hc        1 AG7      0.060200
     61 H41         2.9980   -2.5600   -0.2050 hc        1 AG7      0.090700
     62 H42         3.4360   -3.0740   -1.8810 hc        1 AG7      0.090700
     63 H51         6.2110   -5.6720    0.0840 h1        1 AG7      0.050700
     64 H52         6.3890   -4.4840    1.4590 h1        1 AG7      0.050700
     65 H53         4.4490   -5.5920    2.6620 hc        1 AG7      0.050700
     66 H54         4.2700   -6.7690    1.2980 hc        1 AG7      0.050700
     67 H56         5.7780   -6.7870    2.3150 hc        1 AG7      0.050700
     68 H77        -2.6570    2.4720   -0.7110 h1        1 AG7      0.100700
     69 H61        -4.3640    2.2140    1.7160 hn        1 AG7      0.337500
     70 H79        -2.2840    3.7210    2.1150 hc        1 AG7      0.063700
     71 H82        -0.6910    3.9990   -0.5340 hc        1 AG7      0.041533
     72 H84        -0.4310    4.9730    0.9740 hc        1 AG7      0.041533
     73 H85        -0.1370    3.1850    0.9800 hc        1 AG7      0.041533
     74 H86        -4.1250    4.8660    0.9430 hc        1 AG7      0.041533
     75 H87        -2.6440    5.8980    0.8410 hc        1 AG7      0.041533
     76 H88        -3.1720    4.9300   -0.5980 hc        1 AG7      0.041533
     77 H89         1.9510    4.2770   -5.1500 h1        1 AG7      0.047200
     78 H90         3.5880    4.5760   -4.4100 h1        1 AG7      0.047200
     79 H92         4.1140    2.3190   -4.6230 hc        1 AG7      0.062200
     80 H93         2.5210    2.0310   -5.4270 hc        1 AG7      0.062200
     81 H8         -7.3400    0.7390   -1.6630 ha        1 AG7      0.196000
     82 H5        -10.3930    0.8770   -0.9280 hc        1 AG7      0.068700
     83 H6        -10.0230   -0.6410    0.0030 hc        1 AG7      0.068700
     84 H7        -10.6080    0.8400    0.8800 hc        1 AG7      0.068700
@<TRIPOS>BOND
     1    1    2 1   
     2    1    3 2   
     3    1   28 1   
     4    2    4 1   
     5    2   44 1   
     6    2   45 1   
     7    4    5 1   
     8    4   24 1   
     9    4   46 1   
    10    5    6 1   
    11    5   47 1   
    12    5   48 1   
    13    6    7 ar  
    14    6   11 ar  
    15    7    8 ar  
    16    7   49 1   
    17    8    9 ar  
    18    8   50 1   
    19    9   10 ar  
    20    9   34 1   
    21   10   11 ar  
    22   10   51 1   
    23   11   52 1   
    24   12   13 1   
    25   12   24 1   
    26   12   53 1   
    27   13   14 1   
    28   13   19 1   
    29   13   54 1   
    30   14   15 1   
    31   14   55 1   
    32   14   56 1   
    33   15   16 1   
    34   15   37 1   
    35   15   57 1   
    36   16   17 1   
    37   16   18 2   
    38   17   36 1   
    39   17   58 1   
    40   19   20 1   
    41   19   59 1   
    42   19   60 1   
    43   20   21 1   
    44   20   61 1   
    45   20   62 1   
    46   21   22 1   
    47   21   23 2   
    48   22   26 1   
    49   24   25 2   
    50   26   27 1   
    51   26   63 1   
    52   26   64 1   
    53   27   65 1   
    54   27   66 1   
    55   27   67 1   
    56   28   29 1   
    57   28   32 1   
    58   28   68 1   
    59   29   30 1   
    60   29   69 1   
    61   30   31 2   
    62   30   38 1   
    63   32   33 1   
    64   32   35 1   
    65   32   70 1   
    66   33   71 1   
    67   33   72 1   
    68   33   73 1   
    69   35   74 1   
    70   35   75 1   
    71   35   76 1   
    72   36   37 1   
    73   36   77 1   
    74   36   78 1   
    75   37   79 1   
    76   37   80 1   
    77   38   39 1   
    78   38   42 2   
    79   39   40 2   
    80   39   81 1   
    81   40   41 1   
    82   40   43 1   
    83   41   42 1   
    84   43   82 1   
    85   43   83 1   
    86   43   84 1   
@<TRIPOS>SUBSTRUCTURE
     1 AG7         1 TEMP              0 ****  ****    0 ROOT
