@<TRIPOS>MOLECULE
AG8
   64    66     1     0     0
SMALL
bcc


@<TRIPOS>ATOM
      1 C01         0.0000    0.0000    0.0000 DU        1 AG8     -0.213000
      2 C02         1.5070    0.0000    0.0000 c2        1 AG8     -0.391000
      3 C03         2.1620    0.0000    1.1340 c2        1 AG8     -0.122000
      4 C04         3.6610   -0.1500    1.1390 c3        1 AG8      0.014000
      5 C05         4.3120    1.2340    1.1820 DU        1 AG8     -0.125000
      6 C06         5.8110    1.0840    1.1860 c2        1 AG8     -0.586000
      7 C07         6.5260    1.6120    0.2240 c2        1 AG8      0.031000
      8 C08         8.0310    1.5810    0.2970 c3        1 AG8     -0.087000
      9 C09         8.5530    0.3680   -0.4770 DU        1 AG8     -0.124000
     10 C10        10.0580    0.3370   -0.4020 c2        1 AG8     -0.554000
     11 C11        10.6650   -0.6810    0.1580 c2        1 AG8     -0.014000
     12 C12        12.1700   -0.7360    0.1880 c3        1 AG8     -0.061000
     13 C13        12.6740   -0.1710    1.5180 c3        1 AG8     -0.116000
     14 C14        14.2030   -0.2270    1.5490 c3        1 AG8     -0.210000
     15 N15        14.6870    0.3160    2.8270 nx        1 AG8      0.288000
     16 C16         1.4160    0.1520    2.4350 c3        1 AG8     -0.116000
     17 C17         5.8430    2.2530   -0.9570 c3        1 AG8     -0.153000
     18 C18         9.8570   -1.7950    0.7710 c3        1 AG8     -0.135000
     19 C19        14.2830   -0.5410    3.9490 c3        1 AG8     -0.224000
     20 C20        16.1450    0.4990    2.8020 c3        1 AG8     -0.224000
     21 S21        -0.6040    1.5420   -0.7410 ss        1 AG8     -0.556000
     22 P22        -0.2590    1.2440   -2.8110 p5        1 AG8      1.267000
     23 O23        -0.7470    2.5430   -3.6290 os        1 AG8     -0.946000
     24 P24        -0.7620    2.9410   -5.1880 p5        1 AG8      1.093500
     25 O25        -2.0200    2.2410   -5.9090 o         1 AG8     -0.502500
     26 O26        -1.0820   -0.0460   -3.3120 o         1 AG8     -0.568000
     27 O27         1.1870    1.0290   -3.0450 o         1 AG8     -0.568000
     28 O28        -0.8820    4.5400   -5.3330 o         1 AG8     -0.502500
     29 O29         0.4910    2.4820   -5.8270 o         1 AG8     -0.502500
     30 H01        -0.3610   -0.0770    1.0180 ha        1 AG8      0.087000
     31 H01A       -0.3610   -0.8430   -0.5760 ha        1 AG8      0.087000
     32 H02         0.9420    0.9180    0.1070 DU        1 AG8      0.356000
     33 H04         3.9640   -0.7190    2.0090 hc        1 AG8      0.065000
     34 H04A        3.9740   -0.6690    0.2410 hc        1 AG8      0.065000
     35 H05         4.0090    1.8030    0.3110 ha        1 AG8      0.063000
     36 H05A        3.9990    1.7530    2.0800 ha        1 AG8      0.063000
     37 H06         5.2430    1.9880    1.3710 DU        1 AG8      0.351000
     38 H08         8.4330    2.4880   -0.1380 hc        1 AG8      0.065000
     39 H08A        8.3410    1.5090    1.3330 hc        1 AG8      0.065000
     40 H09         8.1510   -0.5380   -0.0420 ha        1 AG8      0.084500
     41 H09A        8.2440    0.4410   -1.5120 ha        1 AG8      0.084500
     42 H10         9.4260    0.6260    0.4280 DU        1 AG8      0.328000
     43 H12        12.5700   -0.1470   -0.6280 hc        1 AG8      0.060500
     44 H12A       12.4970   -1.7640    0.0860 hc        1 AG8      0.060500
     45 H13        12.2750   -0.7600    2.3350 hc        1 AG8      0.057500
     46 H13A       12.3480    0.8570    1.6210 hc        1 AG8      0.057500
     47 H14        14.6030    0.3620    0.7320 hx        1 AG8      0.059500
     48 H14A       14.5290   -1.2550    1.4470 hx        1 AG8      0.059500
     49 H16         0.8370    1.0680    2.4140 hc        1 AG8      0.042667
     50 H16A        2.1230    0.1910    3.2550 hc        1 AG8      0.042667
     51 H16B        0.7510   -0.6920    2.5710 hc        1 AG8      0.042667
     52 H17         5.2020    1.5270   -1.4410 hc        1 AG8      0.073333
     53 H17A        6.5890    2.6020   -1.6600 hc        1 AG8      0.073333
     54 H17B        5.2470    3.0920   -0.6180 hc        1 AG8      0.073333
     55 H18        10.5220   -2.5870    1.0950 hc        1 AG8      0.055667
     56 H18A        9.3070   -1.4150    1.6230 hc        1 AG8      0.055667
     57 H18B        9.1620   -2.1840    0.0370 hc        1 AG8      0.055667
     58 H19        14.2300   -1.5700    3.6160 hx        1 AG8      0.044833
     59 H19A       15.0090   -0.4560    4.7480 hx        1 AG8      0.044833
     60 H19B       13.3110   -0.2280    4.3100 hx        1 AG8      0.044833
     61 H20        16.4120    1.1610    1.9870 hx        1 AG8      0.044833
     62 H20A       16.6270   -0.4610    2.6600 hx        1 AG8      0.044833
     63 H20B       16.4700    0.9320    3.7400 hx        1 AG8      0.044833
     64 H151       14.2670    1.2150    2.9590 hn        1 AG8      0.006000
@<TRIPOS>BOND
     1    1    2 1   
     2    1   21 1   
     3    1   30 1   
     4    1   31 1   
     5    1   32 1   
     6    2    3 1   
     7    2   32 1   
     8    3    4 1   
     9    3   16 1   
    10    4    5 1   
    11    4   33 1   
    12    4   34 1   
    13    5    6 1   
    14    5   35 1   
    15    5   36 1   
    16    5   37 1   
    17    6    7 1   
    18    6   37 1   
    19    7    8 1   
    20    7   17 1   
    21    8    9 1   
    22    8   38 1   
    23    8   39 1   
    24    9   10 1   
    25    9   40 1   
    26    9   41 1   
    27    9   42 1   
    28   10   11 1   
    29   10   42 1   
    30   11   12 1   
    31   11   18 1   
    32   12   13 1   
    33   12   43 1   
    34   12   44 1   
    35   13   14 1   
    36   13   45 1   
    37   13   46 1   
    38   14   15 1   
    39   14   47 1   
    40   14   48 1   
    41   15   19 1   
    42   15   20 1   
    43   15   64 1   
    44   16   49 1   
    45   16   50 1   
    46   16   51 1   
    47   17   52 1   
    48   17   53 1   
    49   17   54 1   
    50   18   55 1   
    51   18   56 1   
    52   18   57 1   
    53   19   58 1   
    54   19   59 1   
    55   19   60 1   
    56   20   61 1   
    57   20   62 1   
    58   20   63 1   
    59   21   22 1   
    60   22   23 1   
    61   22   26 1   
    62   22   27 1   
    63   23   24 1   
    64   24   25 1   
    65   24   28 1   
    66   24   29 1   
@<TRIPOS>SUBSTRUCTURE
     1 AG8         1 TEMP              0 ****  ****    0 ROOT
