@<TRIPOS>MOLECULE
AG8
   63    61     1     0     0
SMALL
bcc


@<TRIPOS>ATOM
      1 C01         3.5460   -3.2450    0.9640 c3        1 AG8     -0.088000
      2 C02         2.2360   -3.2090    0.2910 c2        1 AG8     -0.076000
      3 C03         1.8130   -3.9220   -0.7670 c2        1 AG8     -0.246000
      4 C04         0.4750   -3.6240   -1.3640 c3        1 AG8     -0.078000
      5 C05         0.3550   -2.1640   -1.7630 c3        1 AG8     -0.173000
      6 C06        -1.0410   -1.7600   -2.0340 c2        1 AG8     -0.161000
      7 C07        -1.4500   -0.4800   -1.9680 c2        1 AG8     -0.125000
      8 C08        -2.8780   -0.1100   -2.1860 c3        1 AG8     -0.105000
      9 C09        -3.5300    0.2970   -0.8770 c3        1 AG8     -0.148000
     10 C10        -4.9310    0.7410   -1.0500 c2        1 AG8     -0.131000
     11 C11        -5.6570    1.2920   -0.0610 c2        1 AG8     -0.160000
     12 C12        -7.0580    1.7460   -0.2820 c3        1 AG8     -0.111000
     13 C13        -8.0600    0.8260    0.3930 c3        1 AG8     -0.159000
     14 C14        -9.4550    1.4410    0.3240 c3        1 AG8     -0.069000
     15 N15       -10.5400    0.5690    0.7610 n3        1 AG8     -0.264000
     16 C16         2.5850   -4.9880   -1.4400 c3        1 AG8     -0.134000
     17 C17        -0.5180    0.6250   -1.6430 c3        1 AG8     -0.219000
     18 C18        -5.0910    1.5100    1.2910 c3        1 AG8     -0.180000
     19 C19       -10.2870   -0.1000    2.0160 c3        1 AG8     -0.118000
     20 C20       -11.8130    1.2520    0.7400 c3        1 AG8     -0.118000
     21 S21         4.1320   -1.5780    1.1180 s         1 AG8     -0.834000
     22 P22         2.3440   -0.0840    1.9460 p3        1 AG8      2.684000
     23 O23         2.9810    1.2970    2.0190 os        1 AG8     -1.230000
     24 P24         3.4010    3.0950    2.2190 p5        1 AG8      1.664500
     25 O25         4.4840    3.0940    3.2520 o         1 AG8     -0.934500
     26 O26         2.0500   -0.7850    3.2130 o         1 AG8     -1.192000
     27 O27         1.3700   -0.3120    0.8440 o         1 AG8     -1.192000
     28 O28         3.8180    3.5150    0.8440 o         1 AG8     -0.934500
     29 O29         2.0690    3.6100    2.6760 o         1 AG8     -0.934500
     30 H01         3.4330   -3.6930    1.9830 h1        1 AG8      0.056500
     31 H01A        4.3130   -3.8340    0.4080 h1        1 AG8      0.056500
     32 H02         1.5770   -2.4070    0.7180 ha        1 AG8      0.204000
     33 H04         0.2910   -4.2800   -2.2580 hc        1 AG8      0.038000
     34 H04A       -0.3260   -3.8670   -0.6130 hc        1 AG8      0.038000
     35 H05         0.7820   -1.5080   -0.9330 hc        1 AG8      0.143000
     36 H05A        0.9860   -1.9700   -2.6720 hc        1 AG8      0.143000
     37 H06        -1.7540   -2.5670   -2.2660 ha        1 AG8      0.073000
     38 H08        -2.9360    0.7440   -2.9130 hc        1 AG8      0.053000
     39 H08A       -3.4490   -0.9670   -2.6360 hc        1 AG8      0.053000
     40 H09        -3.4970   -0.5690   -0.1590 hc        1 AG8      0.118500
     41 H09A       -2.9210    1.1180   -0.4020 hc        1 AG8      0.118500
     42 H10        -5.3670    0.6010   -2.0520 ha        1 AG8      0.101000
     43 H12        -7.1730    2.7870    0.1280 hc        1 AG8      0.071500
     44 H12A       -7.2860    1.7960   -1.3800 hc        1 AG8      0.071500
     45 H13        -8.0470   -0.1760   -0.1090 hc        1 AG8      0.091500
     46 H13A       -7.7600    0.6730    1.4630 hc        1 AG8      0.091500
     47 H14        -9.4440    2.4030    0.9190 h1        1 AG8      0.064000
     48 H14A       -9.6750    1.7120   -0.7480 h1        1 AG8      0.064000
     49 H16         1.9940   -5.9400   -1.4770 hc        1 AG8      0.042000
     50 H16A        2.8220   -4.6940   -2.4940 hc        1 AG8      0.042000
     51 H16B        3.5480   -5.1980   -0.9130 hc        1 AG8      0.042000
     52 H17         0.2840    0.6950   -2.4200 hc        1 AG8      0.113333
     53 H17A       -1.0460    1.6070   -1.5890 hc        1 AG8      0.113333
     54 H17B        0.0070    0.4360   -0.6540 hc        1 AG8      0.113333
     55 H18        -4.2480    2.2470    1.2430 hc        1 AG8      0.085667
     56 H18A       -5.8610    1.8960    2.0020 hc        1 AG8      0.085667
     57 H18B       -4.6740    0.5530    1.6990 hc        1 AG8      0.085667
     58 H19       -10.0720    0.6080    2.8640 h1        1 AG8      0.065167
     59 H19A      -11.1800   -0.7210    2.2920 h1        1 AG8      0.065167
     60 H19B       -9.4050   -0.7820    1.8890 h1        1 AG8      0.065167
     61 H20       -11.9830    1.6750   -0.2850 h1        1 AG8      0.065167
     62 H20A      -12.6270    0.5120    0.9620 h1        1 AG8      0.065167
     63 H20B      -11.8850    2.0920    1.4850 h1        1 AG8      0.065167
@<TRIPOS>BOND
     1    1    2 1   
     2    1   21 1   
     3    1   30 1   
     4    1   31 1   
     5    2    3 1   
     6    2   32 1   
     7    3    4 1   
     8    3   16 1   
     9    4    5 1   
    10    4   33 1   
    11    4   34 1   
    12    5    6 1   
    13    5   35 1   
    14    5   36 1   
    15    6    7 1   
    16    6   37 1   
    17    7    8 1   
    18    7   17 1   
    19    8    9 1   
    20    8   38 1   
    21    8   39 1   
    22    9   10 1   
    23    9   40 1   
    24    9   41 1   
    25   10   11 1   
    26   10   42 1   
    27   11   12 1   
    28   11   18 1   
    29   12   13 1   
    30   12   43 1   
    31   12   44 1   
    32   13   14 1   
    33   13   45 1   
    34   13   46 1   
    35   14   15 1   
    36   14   47 1   
    37   14   48 1   
    38   15   19 1   
    39   15   20 1   
    40   16   49 1   
    41   16   50 1   
    42   16   51 1   
    43   17   52 1   
    44   17   53 1   
    45   17   54 1   
    46   18   55 1   
    47   18   56 1   
    48   18   57 1   
    49   19   58 1   
    50   19   59 1   
    51   19   60 1   
    52   20   61 1   
    53   20   62 1   
    54   20   63 1   
    55   22   23 1   
    56   22   26 1   
    57   22   27 1   
    58   23   24 1   
    59   24   25 1   
    60   24   28 1   
    61   24   29 1   
@<TRIPOS>SUBSTRUCTURE
     1 AG8         1 TEMP              0 ****  ****    0 ROOT
