@<TRIPOS>MOLECULE
AG9
   57    58     1     0     0
SMALL
bcc


@<TRIPOS>ATOM
      1 P          -6.2910    0.4280    0.6760 p5        1 AG9      1.428800
      2 N1         -0.6020    1.1150   -0.2650 nh        1 AG9     -0.675400
      3 C2          0.7260    1.6030   -0.4630 c2        1 AG9      0.823100
      4 N2          1.7950    0.8600    0.1260 nh        1 AG9     -0.818200
      5 N3          1.0220    2.7280   -1.0990 n2        1 AG9     -0.802900
      6 C4         -0.0370    3.6250   -1.5630 c3        1 AG9      0.428900
      7 N4          0.0850    5.0060   -1.0580 n3        1 AG9     -0.910800
      8 C5         -1.4330    3.1050   -1.3340 c2        1 AG9     -0.351200
      9 C6         -1.6440    1.9140   -0.7290 c2        1 AG9      0.105000
     10 CA          3.0910    0.9430   -0.5010 c3        1 AG9      0.214800
     11 CB          4.0670   -0.1060    0.0380 c3        1 AG9     -0.098400
     12 CD          6.4020   -0.9630   -0.0470 c3        1 AG9      0.164800
     13 NE          7.7370   -0.8190   -0.5830 n3        1 AG9     -0.869200
     14 CG          5.4320    0.0900   -0.5860 c3        1 AG9     -0.076400
     15 CZ          8.6820   -1.8790   -0.1540 c3        1 AG9      0.624900
     16 C1'        -0.8430   -0.2940    0.0970 c3        1 AG9      0.404300
     17 OP1        -6.3890   -1.2000    0.5410 oh        1 AG9     -0.781400
     18 C2'        -0.5410   -0.6450    1.5790 c3        1 AG9      0.020100
     19 O2'         0.5400   -1.5480    1.6120 oh        1 AG9     -0.671800
     20 OP2        -7.0260    1.0740   -0.4300 o         1 AG9     -0.846500
     21 C3'        -1.8690   -1.3140    2.1410 c3        1 AG9      0.363800
     22 O3'        -1.6950   -2.5990    2.3610 o         1 AG9     -0.870500
     23 OP3        -6.5280    0.6740    2.1170 o         1 AG9     -0.846500
     24 C4'        -2.9090   -0.9670    1.0230 c3        1 AG9      0.041100
     25 O4'        -2.1870   -0.6560   -0.1840 os        1 AG9     -0.406600
     26 C5'        -3.8060    0.2050    1.4290 c3        1 AG9      0.162400
     27 O5'        -4.6730    0.5940    0.4050 os        1 AG9     -0.585200
     28 NH1         9.9890   -1.7080   -0.8430 n3        1 AG9     -0.932300
     29 NH2         8.8900   -2.0660    1.2980 n3        1 AG9     -0.932300
     30 HN2         1.5570   -0.0630    0.4380 hn        1 AG9      0.441800
     31 H1N4       -0.3060    5.0690   -0.1370 hn        1 AG9      0.330300
     32 H2N4        1.0490    5.2750   -1.0030 hn        1 AG9      0.330300
     33 H5         -2.2680    3.7230   -1.6780 ha        1 AG9      0.142000
     34 H6         -2.6640    1.4910   -0.5640 h4        1 AG9      0.223000
     35 H1A         3.0260    0.8240   -1.6230 h1        1 AG9      0.035200
     36 H2A         3.5110    1.9700   -0.3010 h1        1 AG9      0.035200
     37 H1B         4.1420   -0.0210    1.1540 hc        1 AG9      0.053200
     38 H2B         3.6890   -1.1370   -0.1910 hc        1 AG9      0.053200
     39 H1D         6.0210   -1.9850   -0.3310 h1        1 AG9      0.028200
     40 H2D         6.3800   -0.9010    1.0830 h1        1 AG9      0.028200
     41 HNE         8.0980    0.1000   -0.4170 hn        1 AG9      0.366800
     42 H1G         5.3580    0.0070   -1.7010 hc        1 AG9      0.045200
     43 H2G         5.8100    1.1200   -0.3510 hc        1 AG9      0.045200
     44 H1'        -0.2150   -0.9290   -0.6030 h2        1 AG9      0.036700
     45 H2'        -0.2410    0.2490    2.1800 h1        1 AG9      0.043700
     46 HO2'        0.1610   -2.4270    1.8260 ho        1 AG9      0.444000
     47 H3'        -2.1500   -0.7210    3.0670 h1        1 AG9     -0.055300
     48 HO3'       -6.0300   -1.6440    1.3000 ho        1 AG9      0.422000
     49 H4'        -3.5220   -1.8650    0.7470 h1        1 AG9      0.073700
     50 H15'       -4.3920   -0.0840    2.3470 h1        1 AG9      0.028200
     51 H25'       -3.1500    1.0890    1.6770 h1        1 AG9      0.028200
     52 H1H1       10.5480   -2.5210   -0.6800 hn        1 AG9      0.358550
     53 H2H1        9.8340   -1.6050   -1.8260 hn        1 AG9      0.358550
     54 H1H2        9.3830   -1.3000    1.7110 hn        1 AG9      0.358550
     55 H2H2        8.0100   -2.1840    1.7570 hn        1 AG9      0.358550
     56 HZ          8.1860   -2.8550   -0.4920 h3        1 AG9      0.041700
     57 H4          0.1310    3.7250   -2.6870 h2        1 AG9      0.036700
@<TRIPOS>BOND
     1    1   17 1   
     2    1   20 1   
     3    1   23 1   
     4    1   27 1   
     5    2    3 1   
     6    2    9 1   
     7    2   16 1   
     8    3    4 1   
     9    3    5 2   
    10    4   10 1   
    11    4   30 1   
    12    5    6 1   
    13    6    7 1   
    14    6    8 1   
    15    6   57 1   
    16    7   31 1   
    17    7   32 1   
    18    8    9 2   
    19    8   33 1   
    20    9   34 1   
    21   10   11 1   
    22   10   35 1   
    23   10   36 1   
    24   11   14 1   
    25   11   37 1   
    26   11   38 1   
    27   12   13 1   
    28   12   14 1   
    29   12   39 1   
    30   12   40 1   
    31   13   15 1   
    32   13   41 1   
    33   14   42 1   
    34   14   43 1   
    35   15   28 1   
    36   15   29 1   
    37   15   56 1   
    38   16   18 1   
    39   16   25 1   
    40   16   44 1   
    41   17   48 1   
    42   18   19 1   
    43   18   21 1   
    44   18   45 1   
    45   19   46 1   
    46   21   22 1   
    47   21   24 1   
    48   21   47 1   
    49   24   25 1   
    50   24   26 1   
    51   24   49 1   
    52   26   27 1   
    53   26   50 1   
    54   26   51 1   
    55   28   52 1   
    56   28   53 1   
    57   29   54 1   
    58   29   55 1   
@<TRIPOS>SUBSTRUCTURE
     1 AG9         1 TEMP              0 ****  ****    0 ROOT
