@<TRIPOS>MOLECULE
AG9
   62    63     1     0     0
SMALL
bcc


@<TRIPOS>ATOM
      1 P           0.0000    0.0000    0.0000 p5        1 AG9      0.923900
      2 N1         -3.9750   -3.4830   -4.1610 nh        1 AG9     -0.207400
      3 C2         -5.0630   -4.3180   -4.0440 c2        1 AG9      0.384100
      4 N2         -4.8790   -5.6210   -3.6460 ny        1 AG9      0.111000
      5 N3         -6.2610   -3.8910   -4.3020 n2        1 AG9     -0.625900
      6 C4         -6.5340   -2.5210   -4.7140 c3        1 AG9      0.228900
      7 N4         -7.5110   -2.5350   -5.8120 nz        1 AG9      0.058400
      8 C5         -5.2850   -1.8270   -5.1760 c2        1 AG9     -0.290200
      9 C6         -4.0920   -2.3060   -4.8940 c2        1 AG9      0.050000
     10 CA         -6.0300   -6.5170   -3.5180 c3        1 AG9     -0.025200
     11 CB         -5.5530   -7.8990   -3.0640 c3        1 AG9     -0.029400
     12 CD         -6.2780  -10.2160   -2.4760 c3        1 AG9      0.025800
     13 NE         -7.4330  -11.1160   -2.3480 ny        1 AG9     -0.429000
     14 CG         -6.7550   -8.8360   -2.9300 c3        1 AG9     -0.025400
     15 CZ         -7.0110  -12.4540   -1.9140 c3        1 AG9      0.046900
     16 C1'        -2.7060   -3.8300   -3.5160 c3        1 AG9      0.295300
     17 OP1         1.4800    0.0000    0.0000 o         1 AG9     -0.219833
     18 C2'        -1.5930   -4.0010   -4.5740 c3        1 AG9      0.119100
     19 O2'        -1.3990   -5.3830   -4.8770 oh        1 AG9     -0.572800
     20 OP2        -0.5380    0.0000    1.5170 o         1 AG9     -0.219833
     21 C3'        -0.3350   -3.4140   -3.8940 c3        1 AG9      0.150100
     22 O3'         0.6740   -4.4160   -3.7580 oh        1 AG9     -0.542800
     23 OP3        -0.5360    1.3160   -0.7590 o         1 AG9     -0.219833
     24 C4'        -0.8370   -2.9580   -2.5070 c3        1 AG9      0.148100
     25 O4'        -2.2550   -2.7420   -2.6790 os        1 AG9     -0.371600
     26 C5'        -0.1480   -1.6570   -2.0920 c3        1 AG9      0.314400
     27 O5'        -0.5370   -1.3140   -0.7600 os        1 AG9     -0.506200
     28 NH1        -6.3850  -13.1600   -3.0390 nz        1 AG9     -0.287600
     29 NH2        -8.1840  -13.2100   -1.4520 nz        1 AG9     -0.287600
     30 HN2        -4.2550   -6.0410   -4.3070 hn        1 AG9      0.259300
     31 H1N4       -7.7890   -1.5970   -6.0230 hn        1 AG9      0.239467
     32 H2N4       -8.3130   -3.0680   -5.5390 hn        1 AG9      0.239467
     33 H5         -5.3680   -0.9130   -5.7510 ha        1 AG9      0.174000
     34 H6         -3.2170   -1.7070   -5.1180 h4        1 AG9      0.189000
     35 H1A        -6.7200   -6.1150   -2.7860 hx        1 AG9      0.088700
     36 H2A        -6.5280   -6.6040   -4.4760 hx        1 AG9      0.088700
     37 H1B        -4.8620   -8.3000   -3.7960 hc        1 AG9      0.042200
     38 H2B        -5.0540   -7.8120   -2.1070 hc        1 AG9      0.042200
     39 H1D        -5.5870  -10.6180   -3.2080 hx        1 AG9      0.046200
     40 H2D        -5.7800  -10.1290   -1.5180 hx        1 AG9      0.046200
     41 HNE        -8.0690  -10.7370   -1.6750 hn        1 AG9      0.245300
     42 H1G        -7.4460   -8.4340   -2.1990 hc        1 AG9      0.033200
     43 H2G        -7.2540   -8.9230   -3.8880 hc        1 AG9      0.033200
     44 H1'        -2.8080   -4.7360   -2.9300 h2        1 AG9      0.028700
     45 H2'        -1.8350   -3.4400   -5.4690 h1        1 AG9      0.023700
     46 HO2'       -1.2490   -5.4840   -5.8020 ho        1 AG9      0.421000
     47 H3'         0.0370   -2.5660   -4.4580 h1        1 AG9      0.036700
     48 HO3'        1.4270   -4.1760   -4.2710 ho        1 AG9      0.420000
     49 H4'        -0.6630   -3.7340   -1.7720 h1        1 AG9      0.063700
     50 H15'        0.9270   -1.7890   -2.1310 h1        1 AG9      0.009700
     51 H25'       -0.4380   -0.8620   -2.7690 h1        1 AG9      0.009700
     52 H1H1       -5.4350  -12.8620   -3.1330 hn        1 AG9      0.223467
     53 H2H1       -6.4100  -14.1460   -2.8700 hn        1 AG9      0.223467
     54 H1H2       -7.8970  -14.1210   -1.1530 hn        1 AG9      0.223467
     55 H2H2       -8.8410  -13.2980   -2.2020 hn        1 AG9      0.223467
     56 HZ         -6.2980  -12.3630   -1.1030 hx        1 AG9      0.029700
     57 H4         -6.9480   -1.9770   -3.8730 hx        1 AG9      0.110700
     58 H22        -4.4330   -5.5920   -2.7510 hn        1 AG9      0.259300
     59 H43        -7.0950   -2.9500   -6.6220 hn        1 AG9      0.239467
     60 HE3        -7.8930  -11.1870   -3.2340 hn        1 AG9      0.245300
     61 HH13       -6.8830  -12.9530   -3.8820 hn        1 AG9      0.223467
     62 HH23       -8.6130  -12.7270   -0.6890 hn        1 AG9      0.223467
@<TRIPOS>BOND
     1    1   17 1   
     2    1   20 1   
     3    1   23 1   
     4    1   27 1   
     5    2    3 1   
     6    2    9 1   
     7    2   16 1   
     8    3    4 1   
     9    3    5 2   
    10    4   10 1   
    11    4   30 1   
    12    4   58 1   
    13    5    6 1   
    14    6    7 1   
    15    6    8 1   
    16    6   57 1   
    17    7   31 1   
    18    7   32 1   
    19    7   59 1   
    20    8    9 2   
    21    8   33 1   
    22    9   34 1   
    23   10   11 1   
    24   10   35 1   
    25   10   36 1   
    26   11   14 1   
    27   11   37 1   
    28   11   38 1   
    29   12   13 1   
    30   12   14 1   
    31   12   39 1   
    32   12   40 1   
    33   13   15 1   
    34   13   41 1   
    35   13   60 1   
    36   14   42 1   
    37   14   43 1   
    38   15   28 1   
    39   15   29 1   
    40   15   56 1   
    41   16   18 1   
    42   16   25 1   
    43   16   44 1   
    44   18   19 1   
    45   18   21 1   
    46   18   45 1   
    47   19   46 1   
    48   21   22 1   
    49   21   24 1   
    50   21   47 1   
    51   22   48 1   
    52   24   25 1   
    53   24   26 1   
    54   24   49 1   
    55   26   27 1   
    56   26   50 1   
    57   26   51 1   
    58   28   52 1   
    59   28   53 1   
    60   28   61 1   
    61   29   54 1   
    62   29   55 1   
    63   29   62 1   
@<TRIPOS>SUBSTRUCTURE
     1 AG9         1 TEMP              0 ****  ****    0 ROOT
