@<TRIPOS>MOLECULE
AG9
   57    55     1     0     0
SMALL
bcc


@<TRIPOS>ATOM
      1 P           2.4330   -4.0660    4.9070 p3        1 AG9      2.524000
      2 N1         -1.3300   -1.3730    1.3740 n3        1 AG9     -0.268000
      3 C2         -1.1010   -1.0670   -0.0050 c1        1 AG9      0.199000
      4 N2         -0.1510   -0.0410   -0.3650 n2        1 AG9     -0.276000
      5 N3         -1.8800   -1.7310   -1.0370 n1        1 AG9     -0.366000
      6 C4         -2.3630   -3.0790   -0.8260 c2        1 AG9      0.087000
      7 N4         -1.5280   -4.0680   -1.5650 n3        1 AG9     -0.330000
      8 C5         -2.5070   -3.4750    0.6620 c2        1 AG9     -0.304000
      9 C6         -1.9810   -2.5710    1.7280 c2        1 AG9     -0.015000
     10 CA         -0.5450    1.0460   -1.2820 c3        1 AG9     -0.039000
     11 CB          0.6680    1.3960   -2.2220 c3        1 AG9     -0.200000
     12 CD          1.4100    3.0550   -3.9490 c3        1 AG9     -0.078000
     13 NE          1.7880    4.4500   -4.0500 n3        1 AG9     -0.327000
     14 CG          0.5140    2.8600   -2.7560 c3        1 AG9     -0.155000
     15 CZ          2.1230    4.7600   -5.4320 c3        1 AG9      0.088000
     16 C1'        -1.0590   -0.3850    2.3770 c3        1 AG9      0.113000
     17 OP1         3.9470   -4.0790    4.9290 o         1 AG9     -1.245000
     18 C2'        -2.0170   -0.6040    3.6310 c3        1 AG9      0.009000
     19 O2'        -2.1200    0.6380    4.4120 oh        1 AG9     -0.353000
     20 OP2         1.9150   -4.0550    6.3110 o         1 AG9     -1.245000
     21 C3'        -1.4650   -1.5390    4.3460 c3        1 AG9     -0.041000
     22 O3'        -1.7050   -1.2910    5.8010 oh        1 AG9     -0.399000
     23 OP3         1.9340   -5.2870    4.2010 o         1 AG9     -1.245000
     24 C4'         0.0430   -1.4430    4.0310 c3        1 AG9     -0.042000
     25 O4'         0.1570   -0.5150    2.8170 os        1 AG9     -0.333000
     26 C5'         0.5640   -2.7110    3.7290 c3        1 AG9      0.069000
     27 O5'         1.9310   -2.7740    4.1480 o         1 AG9     -0.728000
     28 NH1         3.5330    4.6190   -5.6240 n3        1 AG9     -0.361500
     29 NH2         1.7250    6.1320   -5.7350 n3        1 AG9     -0.361500
     30 HN2         0.6960   -0.0740   -0.0380 hn        1 AG9      0.211000
     31 H1N4       -1.7860   -4.9260   -1.3310 hn        1 AG9      0.129500
     32 H2N4       -1.6430   -3.9510   -2.4580 hn        1 AG9      0.129500
     33 H5         -2.9550   -4.2990    0.9030 ha        1 AG9      0.158000
     34 H6         -2.1570   -2.7720    2.6730 h4        1 AG9      0.263000
     35 H1A        -1.3180    0.7530   -1.8310 h1        1 AG9      0.084000
     36 H2A        -0.8000    1.8520   -0.7530 h1        1 AG9      0.084000
     37 H1B         1.5030    1.3190   -1.7160 hc        1 AG9      0.101000
     38 H2B         0.6850    0.7670   -2.9860 hc        1 AG9      0.101000
     39 H1D         2.2040    2.5140   -3.8460 h1        1 AG9      0.086000
     40 H2D         0.9400    2.7890   -4.7540 h1        1 AG9      0.086000
     41 HNE         2.5250    4.6110   -3.5090 hn        1 AG9      0.145000
     42 H1G        -0.4090    3.0130   -3.0160 hc        1 AG9      0.075000
     43 H2G         0.7660    3.4920   -2.0550 hc        1 AG9      0.075000
     44 H1'        -1.1890    0.5110    2.0090 h2        1 AG9      0.112000
     45 H2'        -2.9200   -0.8930    3.3260 h1        1 AG9      0.120000
     46 HO2'       -3.0080    0.8370    4.5570 ho        1 AG9      0.221000
     47 H3'        -1.8160   -2.4250    4.0840 h1        1 AG9      0.212000
     48 HO3'       -2.3190   -1.8490    6.0970 ho        1 AG9      0.294000
     49 H4'         0.5310   -1.0500    4.8090 h1        1 AG9      0.092000
     50 H15'        0.5120   -2.8650    2.7560 h1        1 AG9      0.037500
     51 H25'        0.0360   -3.4110    4.2060 h1        1 AG9      0.037500
     52 H1H1        3.6960    4.2810   -6.4650 hn        1 AG9      0.143250
     53 H2H1        3.9380    5.4420   -5.5400 hn        1 AG9      0.143250
     54 H1H2        2.1460    6.4130   -6.5150 hn        1 AG9      0.143250
     55 H2H2        0.8020    6.1700   -5.8490 hn        1 AG9      0.143250
     56 HZ          1.6510    4.1430   -6.0270 h3        1 AG9      0.123000
     57 H4         -3.2410   -3.1960   -1.2900 h4        1 AG9      0.078000
@<TRIPOS>BOND
     1    1   17 1   
     2    1   20 1   
     3    1   23 1   
     4    2    3 1   
     5    2    9 1   
     6    2   16 1   
     7    3    5 1   
     8    4   10 1   
     9    4   30 1   
    10    6    7 1   
    11    6    8 1   
    12    6   57 1   
    13    7   31 1   
    14    7   32 1   
    15    8    9 1   
    16    8   33 1   
    17    9   34 1   
    18   10   11 1   
    19   10   35 1   
    20   10   36 1   
    21   11   14 1   
    22   11   37 1   
    23   11   38 1   
    24   12   13 1   
    25   12   14 1   
    26   12   39 1   
    27   12   40 1   
    28   13   15 1   
    29   13   41 1   
    30   14   42 1   
    31   14   43 1   
    32   15   28 1   
    33   15   29 1   
    34   15   56 1   
    35   16   18 1   
    36   16   25 1   
    37   16   44 1   
    38   18   19 1   
    39   18   21 1   
    40   18   45 1   
    41   19   46 1   
    42   21   22 1   
    43   21   24 1   
    44   21   47 1   
    45   22   48 1   
    46   24   25 1   
    47   24   26 1   
    48   24   49 1   
    49   26   27 1   
    50   26   50 1   
    51   26   51 1   
    52   28   52 1   
    53   28   53 1   
    54   29   54 1   
    55   29   55 1   
@<TRIPOS>SUBSTRUCTURE
     1 AG9         1 TEMP              0 ****  ****    0 ROOT
