@<TRIPOS>MOLECULE
AGA
   66    65     1     0     0
SMALL
bcc


@<TRIPOS>ATOM
      1 O1          1.0160   -1.9350    1.9500 oh        1 AGA     -0.631800
      2 C1          2.0320   -1.0040    1.6100 c3        1 AGA      0.072400
      3 C2          2.1550    0.0620    2.7010 c3        1 AGA      0.075100
      4 O2          0.9820    0.8710    2.7550 oh        1 AGA     -0.621800
      5 C3          3.3450    1.0030    2.4290 c3        1 AGA      0.199400
      6 P1          5.6870   -0.0030    2.9560 p5        1 AGA      1.429800
      7 O3          5.2210   -0.9600    1.9320 o         1 AGA     -0.830500
      8 O4          6.8160    0.9340    2.8180 o         1 AGA     -0.830500
      9 O5          4.3330    0.8480    3.3960 os        1 AGA     -0.575200
     10 O6          5.8990   -0.8290    4.3710 os        1 AGA     -0.550200
     11 C4          7.0940   -0.6610    5.0510 c3        1 AGA      0.190400
     12 C5          6.9100   -0.2690    6.5270 c3        1 AGA      0.127100
     13 C6          6.2120    1.0660    6.7680 c3        1 AGA      0.119400
     14 O7          4.8000    0.8660    6.6410 os        1 AGA     -0.412900
     15 C7          4.0330    1.9920    6.5140 c         1 AGA      0.652100
     16 O8          4.5450    3.0850    6.7750 o         1 AGA     -0.573000
     17 C8          2.6450    1.6750    6.0610 c3        1 AGA     -0.141400
     18 C9          1.6980    2.8310    6.2890 c3        1 AGA     -0.070400
     19 C10         0.3370    2.5270    5.6990 c3        1 AGA     -0.091400
     20 C11        -0.5940    3.7040    5.8270 c3        1 AGA     -0.086100
     21 O9          6.1940   -1.3490    7.1510 os        1 AGA     -0.389900
     22 C12         6.3220   -1.5100    8.4940 c         1 AGA      0.630100
     23 O10         7.0990   -0.7890    9.1310 o         1 AGA     -0.576000
     24 C13         5.4440   -2.6070    9.0180 c3        1 AGA     -0.130400
     25 C14         6.1030   -3.3340   10.1690 c3        1 AGA     -0.078400
     26 C15         5.1550   -4.3410   10.7850 c3        1 AGA     -0.078400
     27 C16         5.8150   -5.0850   11.9260 c3        1 AGA     -0.078400
     28 C17         4.8680   -6.0890   12.5470 c3        1 AGA     -0.079400
     29 C18         5.5270   -6.8360   13.6880 c3        1 AGA     -0.080400
     30 C19         4.5880   -7.8370   14.3100 c3        1 AGA     -0.092100
     31 HO1         1.3720   -2.4870    2.6560 ho        1 AGA      0.398000
     32 H11         1.6820   -0.5420    0.6480 h1        1 AGA      0.085700
     33 H12         3.0230   -1.5140    1.4560 h1        1 AGA      0.085700
     34 H2          2.2820   -0.4390    3.7030 h1        1 AGA      0.049700
     35 HO2         0.2340    0.2670    2.6680 ho        1 AGA      0.398000
     36 H31         3.7610    0.7990    1.4050 h1        1 AGA      0.039700
     37 H32         2.9770    2.0670    2.4860 h1        1 AGA      0.039700
     38 H41         7.6440   -1.6490    5.0490 h1        1 AGA      0.046700
     39 H42         7.7290    0.1360    4.5670 h1        1 AGA      0.046700
     40 H5          7.9360   -0.1930    6.9950 h1        1 AGA      0.055700
     41 H61         6.5600    1.8260    6.0190 h1        1 AGA      0.063200
     42 H62         6.4170    1.4300    7.8100 h1        1 AGA      0.063200
     43 H81         2.7180    1.4320    4.9570 hc        1 AGA      0.098200
     44 H82         2.2850    0.7520    6.5840 hc        1 AGA      0.098200
     45 H91         2.1230    3.7570    5.8180 hc        1 AGA      0.045200
     46 H92         1.6020    3.0360    7.3880 hc        1 AGA      0.045200
     47 H101       -0.1060    1.6390    6.2220 hc        1 AGA      0.051200
     48 H102        0.4550    2.2460    4.6150 hc        1 AGA      0.051200
     49 H111       -0.7300    3.9880    6.8990 hc        1 AGA      0.025367
     50 H112       -1.5950    3.4570    5.3970 hc        1 AGA      0.025367
     51 H113       -0.1850    4.5890    5.2810 hc        1 AGA      0.025367
     52 H131        4.4830   -2.1310    9.3510 hc        1 AGA      0.078200
     53 H132        5.2000   -3.3190    8.1850 hc        1 AGA      0.078200
     54 H141        7.0260   -3.8560    9.8050 hc        1 AGA      0.053200
     55 H142        6.4290   -2.5890   10.9430 hc        1 AGA      0.053200
     56 H151        4.2380   -3.8150   11.1600 hc        1 AGA      0.039700
     57 H152        4.8200   -5.0710   10.0020 hc        1 AGA      0.039700
     58 H161        6.7300   -5.6140   11.5500 hc        1 AGA      0.040200
     59 H162        6.1530   -4.3540   12.7060 hc        1 AGA      0.040200
     60 H171        4.5290   -6.8200   11.7660 hc        1 AGA      0.039200
     61 H172        3.9530   -5.5610   12.9230 hc        1 AGA      0.039200
     62 H181        5.8660   -6.1030   14.4660 hc        1 AGA      0.037700
     63 H182        6.4420   -7.3630   13.3090 hc        1 AGA      0.037700
     64 H191        3.6800   -7.3270   14.7140 hc        1 AGA      0.030367
     65 H192        5.0930   -8.3760   15.1470 hc        1 AGA      0.030367
     66 H193        4.2580   -8.5900   13.5540 hc        1 AGA      0.030367
@<TRIPOS>BOND
     1    1    2 1   
     2    1   31 1   
     3    2    3 1   
     4    2   32 1   
     5    2   33 1   
     6    3    4 1   
     7    3    5 1   
     8    3   34 1   
     9    4   35 1   
    10    5    9 1   
    11    5   36 1   
    12    5   37 1   
    13    6    7 1   
    14    6    8 1   
    15    6    9 1   
    16    6   10 1   
    17   10   11 1   
    18   11   12 1   
    19   11   38 1   
    20   11   39 1   
    21   12   13 1   
    22   12   21 1   
    23   12   40 1   
    24   13   14 1   
    25   13   41 1   
    26   13   42 1   
    27   14   15 1   
    28   15   16 2   
    29   15   17 1   
    30   17   18 1   
    31   17   43 1   
    32   17   44 1   
    33   18   19 1   
    34   18   45 1   
    35   18   46 1   
    36   19   20 1   
    37   19   47 1   
    38   19   48 1   
    39   20   49 1   
    40   20   50 1   
    41   20   51 1   
    42   21   22 1   
    43   22   23 2   
    44   22   24 1   
    45   24   25 1   
    46   24   52 1   
    47   24   53 1   
    48   25   26 1   
    49   25   54 1   
    50   25   55 1   
    51   26   27 1   
    52   26   56 1   
    53   26   57 1   
    54   27   28 1   
    55   27   58 1   
    56   27   59 1   
    57   28   29 1   
    58   28   60 1   
    59   28   61 1   
    60   29   30 1   
    61   29   62 1   
    62   29   63 1   
    63   30   64 1   
    64   30   65 1   
    65   30   66 1   
@<TRIPOS>SUBSTRUCTURE
     1 AGA         1 TEMP              0 ****  ****    0 ROOT
