@<TRIPOS>MOLECULE
AGA
   66    65     1     0     0
SMALL
bcc


@<TRIPOS>ATOM
      1 O1          1.0650   -1.9510    1.9200 oh        1 AGA     -0.631800
      2 C1          2.0700   -1.0030    1.5920 c3        1 AGA      0.072400
      3 C2          2.1700    0.0580    2.6910 c3        1 AGA      0.075100
      4 O2          0.9860    0.8490    2.7430 oh        1 AGA     -0.621800
      5 C3          3.3490    1.0180    2.4340 c3        1 AGA      0.199400
      6 P1          5.7010    0.0410    2.9700 p5        1 AGA      1.429800
      7 O3          5.2560   -0.9150    1.9370 o         1 AGA     -0.830500
      8 O4          6.8180    0.9960    2.8450 o         1 AGA     -0.830500
      9 O5          4.3330    0.8710    3.4060 os        1 AGA     -0.575200
     10 O6          5.9160   -0.7910    4.3800 os        1 AGA     -0.550200
     11 C4          7.1040   -0.6100    5.0700 c3        1 AGA      0.190400
     12 C5          6.9050   -0.2290    6.5470 c3        1 AGA      0.127100
     13 C6          6.1860    1.0940    6.7910 c3        1 AGA      0.119400
     14 O7          4.7780    0.8740    6.6540 os        1 AGA     -0.412900
     15 C7          3.9960    1.9900    6.5290 c         1 AGA      0.652100
     16 O8          4.4900    3.0880    6.8000 o         1 AGA     -0.573000
     17 C8          2.6150    1.6560    6.0640 c3        1 AGA     -0.141400
     18 C9          1.6500    2.7960    6.2940 c3        1 AGA     -0.070400
     19 C10         0.2970    2.4770    5.6930 c3        1 AGA     -0.091400
     20 C11        -0.6510    3.6390    5.8220 c3        1 AGA     -0.086100
     21 O9          6.2000   -1.3230    7.1590 os        1 AGA     -0.389900
     22 C12         6.3210   -1.4900    8.5020 c         1 AGA      0.630100
     23 O10         7.0820   -0.7620    9.1490 o         1 AGA     -0.576000
     24 C13         5.4550   -2.6030    9.0130 c3        1 AGA     -0.130400
     25 C14         6.1110   -3.3210   10.1720 c3        1 AGA     -0.078400
     26 C15         5.1730   -4.3450   10.7740 c3        1 AGA     -0.078400
     27 C16         5.8300   -5.0800   11.9220 c3        1 AGA     -0.078400
     28 C17         4.8920   -6.1000   12.5300 c3        1 AGA     -0.079400
     29 C18         5.5480   -6.8370   13.6780 c3        1 AGA     -0.080400
     30 C19         4.6190   -7.8540   14.2870 c3        1 AGA     -0.092100
     31 HO1         1.4240   -2.5020    2.6240 ho        1 AGA      0.398000
     32 H11         1.7200   -0.5400    0.6320 h1        1 AGA      0.085700
     33 H12         3.0690   -1.4970    1.4420 h1        1 AGA      0.085700
     34 H2          2.2980   -0.4480    3.6910 h1        1 AGA      0.049700
     35 HO2         0.2470    0.2360    2.6470 ho        1 AGA      0.398000
     36 H31         2.9650    2.0760    2.4950 h1        1 AGA      0.039700
     37 H32         3.7750    0.8260    1.4110 h1        1 AGA      0.039700
     38 H41         7.7310    0.1990    4.5950 h1        1 AGA      0.046700
     39 H42         7.6680   -1.5890    5.0660 h1        1 AGA      0.046700
     40 H5          7.9260   -0.1420    7.0220 h1        1 AGA      0.055700
     41 H61         6.3790    1.4540    7.8370 h1        1 AGA      0.063200
     42 H62         6.5270    1.8630    6.0500 h1        1 AGA      0.063200
     43 H81         2.6990    1.4210    4.9600 hc        1 AGA      0.098200
     44 H82         2.2650    0.7240    6.5790 hc        1 AGA      0.098200
     45 H91         2.0640    3.7310    5.8310 hc        1 AGA      0.045200
     46 H92         1.5440    2.9930    7.3930 hc        1 AGA      0.045200
     47 H101        0.4260    2.2050    4.6090 hc        1 AGA      0.051200
     48 H102       -0.1360    1.5780    6.2080 hc        1 AGA      0.051200
     49 H111       -0.7980    3.9140    6.8950 hc        1 AGA      0.025367
     50 H112       -0.2520    4.5330    5.2850 hc        1 AGA      0.025367
     51 H113       -1.6450    3.3800    5.3850 hc        1 AGA      0.025367
     52 H131        4.4820   -2.1430    9.3350 hc        1 AGA      0.078200
     53 H132        5.2330   -3.3170    8.1770 hc        1 AGA      0.078200
     54 H141        6.4150   -2.5720   10.9510 hc        1 AGA      0.053700
     55 H142        7.0480   -3.8270    9.8180 hc        1 AGA      0.053700
     56 H151        4.2420   -3.8340   11.1380 hc        1 AGA      0.040200
     57 H152        4.8600   -5.0790    9.9850 hc        1 AGA      0.040200
     58 H161        6.1460   -4.3430   12.7070 hc        1 AGA      0.040200
     59 H162        6.7590   -5.5920   11.5570 hc        1 AGA      0.040200
     60 H171        3.9630   -5.5880   12.8950 hc        1 AGA      0.039200
     61 H172        4.5760   -6.8360   11.7440 hc        1 AGA      0.039200
     62 H181        6.4780   -7.3480   13.3120 hc        1 AGA      0.037700
     63 H182        5.8660   -6.0990   14.4620 hc        1 AGA      0.037700
     64 H191        5.1220   -8.3850   15.1310 hc        1 AGA      0.030367
     65 H192        4.3110   -8.6120   13.5270 hc        1 AGA      0.030367
     66 H193        3.6970   -7.3600   14.6810 hc        1 AGA      0.030367
@<TRIPOS>BOND
     1    1    2 1   
     2    1   31 1   
     3    2    3 1   
     4    2   32 1   
     5    2   33 1   
     6    3    4 1   
     7    3    5 1   
     8    3   34 1   
     9    4   35 1   
    10    5    9 1   
    11    5   36 1   
    12    5   37 1   
    13    6    7 1   
    14    6    8 1   
    15    6    9 1   
    16    6   10 1   
    17   10   11 1   
    18   11   12 1   
    19   11   38 1   
    20   11   39 1   
    21   12   13 1   
    22   12   21 1   
    23   12   40 1   
    24   13   14 1   
    25   13   41 1   
    26   13   42 1   
    27   14   15 1   
    28   15   16 2   
    29   15   17 1   
    30   17   18 1   
    31   17   43 1   
    32   17   44 1   
    33   18   19 1   
    34   18   45 1   
    35   18   46 1   
    36   19   20 1   
    37   19   47 1   
    38   19   48 1   
    39   20   49 1   
    40   20   50 1   
    41   20   51 1   
    42   21   22 1   
    43   22   23 2   
    44   22   24 1   
    45   24   25 1   
    46   24   52 1   
    47   24   53 1   
    48   25   26 1   
    49   25   54 1   
    50   25   55 1   
    51   26   27 1   
    52   26   56 1   
    53   26   57 1   
    54   27   28 1   
    55   27   58 1   
    56   27   59 1   
    57   28   29 1   
    58   28   60 1   
    59   28   61 1   
    60   29   30 1   
    61   29   62 1   
    62   29   63 1   
    63   30   64 1   
    64   30   65 1   
    65   30   66 1   
@<TRIPOS>SUBSTRUCTURE
     1 AGA         1 TEMP              0 ****  ****    0 ROOT
