@<TRIPOS>MOLECULE
AGA
   66    64     1     0     0
SMALL
bcc


@<TRIPOS>ATOM
      1 O1          0.1390    7.0500   -6.8540 oh        1 AGA     -0.630800
      2 C1         -0.1670    5.6840   -6.8090 c3        1 AGA      0.069400
      3 C2          0.0300    5.1800   -5.4260 c3        1 AGA      0.082100
      4 O2          1.3750    5.3680   -5.0420 oh        1 AGA     -0.615800
      5 C3         -0.3130    3.6940   -5.3750 c3        1 AGA      0.197400
      6 P1         -0.8850    1.8100   -3.7330 p4        1 AGA      1.792100
      7 O3         -2.2770    1.5820   -4.2700 os        1 AGA     -1.134000
      8 O4          0.0790    0.8520   -4.4060 o         1 AGA     -0.872300
      9 O5         -0.4440    3.2900   -4.0300 os        1 AGA     -0.582200
     10 O6         -0.8740    1.5540   -2.1390 os        1 AGA     -0.574200
     11 C4         -1.3090    0.2670   -1.6440 c3        1 AGA      0.191400
     12 C5         -1.1030    0.2050   -0.1290 c3        1 AGA      0.096100
     13 C6         -2.1050    1.1040    0.5510 c3        1 AGA      0.106400
     14 O7         -1.4800    1.7450    1.7100 os        1 AGA     -0.428900
     15 C7         -2.3740    2.5970    2.4630 c         1 AGA      0.639100
     16 O8         -3.3630    3.0680    1.9250 o         1 AGA     -0.568000
     17 C8         -2.0060    3.0130    3.9300 c3        1 AGA     -0.132400
     18 C9         -2.3810    4.4520    4.1510 c3        1 AGA     -0.077400
     19 C10        -2.3330    4.7640    5.6150 c3        1 AGA     -0.080400
     20 C11        -2.4150    6.2960    5.8150 c3        1 AGA     -0.091100
     21 O9         -1.2790   -1.1170    0.3120 os        1 AGA     -0.436900
     22 C12        -0.0510   -1.8560    0.4310 c         1 AGA      0.642100
     23 O10         1.0060   -1.2700    0.4490 o         1 AGA     -0.562000
     24 C13        -0.0830   -3.4010    0.6120 c3        1 AGA     -0.131400
     25 C14         1.3600   -3.9200    0.8030 c3        1 AGA     -0.078400
     26 C15         1.3450   -5.4740    0.9200 c3        1 AGA     -0.078400
     27 C16         2.7940   -5.9920    1.0840 c3        1 AGA     -0.079400
     28 C17         2.7880   -7.5060    1.1190 c3        1 AGA     -0.079400
     29 C18         4.2200   -8.0180    1.3310 c3        1 AGA     -0.080400
     30 C19         4.2210   -9.5500    1.3070 c3        1 AGA     -0.091100
     31 HO1        -0.0670    7.3700   -7.6450 ho        1 AGA      0.395000
     32 H11         0.4230    5.1960   -7.4220 h1        1 AGA      0.085700
     33 H12        -1.1030    5.5490   -7.0780 h1        1 AGA      0.085700
     34 H2         -0.5540    5.6710   -4.8150 h1        1 AGA      0.044700
     35 HO2         1.4410    6.1100   -4.5420 ho        1 AGA      0.396000
     36 H31         0.4010    3.1770   -5.8040 h1        1 AGA      0.042700
     37 H32        -1.1650    3.5360   -5.8510 h1        1 AGA      0.042700
     38 H41        -0.7830   -0.4470   -2.0770 h1        1 AGA      0.046200
     39 H42        -2.2610    0.1430   -1.8500 h1        1 AGA      0.046200
     40 H5         -0.1980    0.5020    0.0900 h1        1 AGA      0.104700
     41 H61        -2.8770    0.5690    0.8480 h1        1 AGA      0.097200
     42 H62        -2.4090    1.7940   -0.0820 h1        1 AGA      0.097200
     43 H81        -2.4960    2.4470    4.5610 hc        1 AGA      0.080700
     44 H82        -1.0330    2.9010    4.0720 hc        1 AGA      0.080700
     45 H91        -1.7620    5.0190    3.6840 hc        1 AGA      0.053200
     46 H92        -3.2730    4.6070    3.8180 hc        1 AGA      0.053200
     47 H101       -3.0880    4.3360    6.0640 hc        1 AGA      0.039200
     48 H102       -1.5060    4.4340    5.9890 hc        1 AGA      0.039200
     49 H111       -3.1800    6.6550    5.3010 hc        1 AGA      0.030700
     50 H112       -2.5390    6.4960    6.7760 hc        1 AGA      0.030700
     51 H113       -1.5780    6.7150    5.4960 hc        1 AGA      0.030700
     52 H131       -0.4820   -3.8210   -0.1910 hc        1 AGA      0.077200
     53 H132       -0.6210   -3.6290    1.4040 hc        1 AGA      0.077200
     54 H141        1.9070   -3.6550    0.0320 hc        1 AGA      0.055200
     55 H142        1.7500   -3.5240    1.6430 hc        1 AGA      0.055200
     56 H151        0.9450   -5.8650    0.0990 hc        1 AGA      0.039200
     57 H152        0.8090   -5.7400    1.7080 hc        1 AGA      0.039200
     58 H161        3.1720   -5.6470    1.9200 hc        1 AGA      0.041200
     59 H162        3.3320   -5.6890    0.3360 hc        1 AGA      0.041200
     60 H171        2.2190   -7.8130    1.8540 hc        1 AGA      0.038200
     61 H172        2.4410   -7.8500    0.2710 hc        1 AGA      0.038200
     62 H181        4.7980   -7.6790    0.6120 hc        1 AGA      0.038200
     63 H182        4.5580   -7.7030    2.2000 hc        1 AGA      0.038200
     64 H191        3.8770   -9.8620    0.4470 hc        1 AGA      0.030033
     65 H192        3.6480   -9.8900    2.0320 hc        1 AGA      0.030033
     66 H193        5.1390   -9.8810    1.4320 hc        1 AGA      0.030033
@<TRIPOS>BOND
     1    1    2 1   
     2    1   31 1   
     3    2    3 1   
     4    2   32 1   
     5    2   33 1   
     6    3    4 1   
     7    3    5 1   
     8    3   34 1   
     9    4   35 1   
    10    5    9 1   
    11    5   36 1   
    12    5   37 1   
    13    6    8 2   
    14    6    9 1   
    15    6   10 1   
    16   10   11 1   
    17   11   12 1   
    18   11   38 1   
    19   11   39 1   
    20   12   13 1   
    21   12   21 1   
    22   12   40 1   
    23   13   14 1   
    24   13   41 1   
    25   13   42 1   
    26   14   15 1   
    27   15   16 2   
    28   15   17 1   
    29   17   18 1   
    30   17   43 1   
    31   17   44 1   
    32   18   19 1   
    33   18   45 1   
    34   18   46 1   
    35   19   20 1   
    36   19   47 1   
    37   19   48 1   
    38   20   49 1   
    39   20   50 1   
    40   20   51 1   
    41   21   22 1   
    42   22   23 2   
    43   22   24 1   
    44   24   25 1   
    45   24   52 1   
    46   24   53 1   
    47   25   26 1   
    48   25   54 1   
    49   25   55 1   
    50   26   27 1   
    51   26   56 1   
    52   26   57 1   
    53   27   28 1   
    54   27   58 1   
    55   27   59 1   
    56   28   29 1   
    57   28   60 1   
    58   28   61 1   
    59   29   30 1   
    60   29   62 1   
    61   29   63 1   
    62   30   64 1   
    63   30   65 1   
    64   30   66 1   
@<TRIPOS>SUBSTRUCTURE
     1 AGA         1 TEMP              0 ****  ****    0 ROOT
