@<TRIPOS>MOLECULE
AGA
   66    65     1     0     0
SMALL
bcc


@<TRIPOS>ATOM
      1 O1          4.9720    0.9590   -1.5540 oh        1 AGA     -0.626800
      2 C1          4.6730   -0.4240   -1.4970 c3        1 AGA      0.129400
      3 C2          4.1100   -0.8280   -0.1340 c3        1 AGA      0.076100
      4 O2          5.0520   -0.3940    0.8390 oh        1 AGA     -0.643800
      5 C3          3.8910   -2.3470   -0.0690 c3        1 AGA      0.151400
      6 P1          2.2760   -3.5940    1.5770 p5        1 AGA      1.428800
      7 O3          1.7760   -4.0850    0.2770 o         1 AGA     -0.817000
      8 O4          2.5540   -4.3830    2.7830 o         1 AGA     -0.817000
      9 O5          3.6360   -2.7000    1.2520 os        1 AGA     -0.580200
     10 O6          1.2900   -2.3390    2.0100 os        1 AGA     -0.571200
     11 C4          0.5300   -1.8270    0.9600 c3        1 AGA      0.186400
     12 C5         -0.3770   -0.7300    1.5330 c3        1 AGA      0.138100
     13 C6          0.3750    0.5530    1.8650 c3        1 AGA      0.118400
     14 O7          1.0170    1.0110    0.6640 os        1 AGA     -0.432900
     15 C7          1.5220    2.2800    0.6730 c         1 AGA      0.635100
     16 O8          1.3420    2.9860    1.6690 o         1 AGA     -0.563000
     17 C8          2.2400    2.6060   -0.5990 c3        1 AGA     -0.141400
     18 C9          2.8860    3.9720   -0.5410 c3        1 AGA     -0.071400
     19 C10         3.7490    4.2020   -1.7640 c3        1 AGA     -0.087400
     20 C11         4.4640    5.5260   -1.6930 c3        1 AGA     -0.089100
     21 O9         -1.3700   -0.4880    0.5160 os        1 AGA     -0.425900
     22 C12        -2.5710    0.0220    0.9000 c         1 AGA      0.633100
     23 O10        -2.7760    0.2840    2.0880 o         1 AGA     -0.558000
     24 C13        -3.5020    0.2130   -0.2610 c3        1 AGA     -0.130400
     25 C14        -4.9280   -0.1140    0.1270 c3        1 AGA     -0.079400
     26 C15        -5.8820    0.2120   -1.0010 c3        1 AGA     -0.078400
     27 C16        -7.3080   -0.1300   -0.6250 c3        1 AGA     -0.079400
     28 C17        -8.2660    0.2000   -1.7490 c3        1 AGA     -0.079400
     29 C18        -9.6930   -0.1430   -1.3750 c3        1 AGA     -0.080400
     30 C19       -10.6520    0.1830   -2.4910 c3        1 AGA     -0.092100
     31 HO1         5.4800    1.1700   -0.7590 ho        1 AGA      0.418000
     32 H11         3.9080   -0.5950   -2.2990 h1        1 AGA      0.042200
     33 H12         5.6020   -1.0130   -1.7220 h1        1 AGA      0.042200
     34 H2          3.1390   -0.2870    0.0600 h1        1 AGA      0.055700
     35 HO2         4.9220   -0.9550    1.6190 ho        1 AGA      0.444000
     36 H31         3.0430   -2.6490   -0.7430 h1        1 AGA      0.045200
     37 H32         4.8390   -2.8590   -0.4020 h1        1 AGA      0.045200
     38 H41         1.2140   -1.4020    0.1750 h1        1 AGA      0.044200
     39 H42        -0.0870   -2.6460    0.5000 h1        1 AGA      0.044200
     40 H5         -0.8750   -1.0920    2.4770 h1        1 AGA      0.089700
     41 H61        -0.3260    1.3420    2.2430 h1        1 AGA      0.072200
     42 H62         1.1700    0.3300    2.6240 h1        1 AGA      0.072200
     43 H81         3.0210    1.8120   -0.7800 hc        1 AGA      0.090200
     44 H82         1.5050    2.5510   -1.4440 hc        1 AGA      0.090200
     45 H91         2.0960    4.7640   -0.4690 hc        1 AGA      0.049200
     46 H92         3.5110    4.0500    0.3880 hc        1 AGA      0.049200
     47 H101        4.4960    3.3660   -1.8520 hc        1 AGA      0.049200
     48 H102        3.1080    4.1670   -2.6840 hc        1 AGA      0.049200
     49 H111        3.7320    6.3670   -1.6200 hc        1 AGA      0.028033
     50 H112        5.1310    5.5650   -0.7980 hc        1 AGA      0.028033
     51 H113        5.0880    5.6790   -2.6060 hc        1 AGA      0.028033
     52 H131       -3.4190    1.2850   -0.5840 hc        1 AGA      0.074700
     53 H132       -3.1690   -0.4300   -1.1180 hc        1 AGA      0.074700
     54 H141       -5.0050   -1.2030    0.3870 hc        1 AGA      0.057200
     55 H142       -5.2060    0.4660    1.0470 hc        1 AGA      0.057200
     56 H151       -5.8110    1.3040   -1.2520 hc        1 AGA      0.039200
     57 H152       -5.5880   -0.3590   -1.9210 hc        1 AGA      0.039200
     58 H161       -7.3790   -1.2220   -0.3780 hc        1 AGA      0.042200
     59 H162       -7.6000    0.4370    0.2970 hc        1 AGA      0.042200
     60 H171       -8.1950    1.2920   -1.9960 hc        1 AGA      0.038700
     61 H172       -7.9740   -0.3670   -2.6720 hc        1 AGA      0.038700
     62 H181       -9.7610   -1.2360   -1.1270 hc        1 AGA      0.038700
     63 H182       -9.9830    0.4230   -0.4510 hc        1 AGA      0.038700
     64 H191      -11.6960   -0.0770   -2.1950 hc        1 AGA      0.030367
     65 H192      -10.6150    1.2730   -2.7360 hc        1 AGA      0.030367
     66 H193      -10.3930   -0.3910   -3.4140 hc        1 AGA      0.030367
@<TRIPOS>BOND
     1    1    2 1   
     2    1   31 1   
     3    2    3 1   
     4    2   32 1   
     5    2   33 1   
     6    3    4 1   
     7    3    5 1   
     8    3   34 1   
     9    4   35 1   
    10    5    9 1   
    11    5   36 1   
    12    5   37 1   
    13    6    7 1   
    14    6    8 1   
    15    6    9 1   
    16    6   10 1   
    17   10   11 1   
    18   11   12 1   
    19   11   38 1   
    20   11   39 1   
    21   12   13 1   
    22   12   21 1   
    23   12   40 1   
    24   13   14 1   
    25   13   41 1   
    26   13   42 1   
    27   14   15 1   
    28   15   16 2   
    29   15   17 1   
    30   17   18 1   
    31   17   43 1   
    32   17   44 1   
    33   18   19 1   
    34   18   45 1   
    35   18   46 1   
    36   19   20 1   
    37   19   47 1   
    38   19   48 1   
    39   20   49 1   
    40   20   50 1   
    41   20   51 1   
    42   21   22 1   
    43   22   23 2   
    44   22   24 1   
    45   24   25 1   
    46   24   52 1   
    47   24   53 1   
    48   25   26 1   
    49   25   54 1   
    50   25   55 1   
    51   26   27 1   
    52   26   56 1   
    53   26   57 1   
    54   27   28 1   
    55   27   58 1   
    56   27   59 1   
    57   28   29 1   
    58   28   60 1   
    59   28   61 1   
    60   29   30 1   
    61   29   62 1   
    62   29   63 1   
    63   30   64 1   
    64   30   65 1   
    65   30   66 1   
@<TRIPOS>SUBSTRUCTURE
     1 AGA         1 TEMP              0 ****  ****    0 ROOT
