@<TRIPOS>MOLECULE
AGB
   52    48     1     0     0
SMALL
bcc


@<TRIPOS>ATOM
      1 C1         -0.8560    1.0630    0.0340 c2        1 AGB     -0.194000
      2 C2          3.4090   -0.6850    1.0530 c1        1 AGB     -0.041000
      3 C3          1.0740   -2.6810    0.9800 c3        1 AGB     -0.253000
      4 C4         -2.1610    1.1910    0.2900 c2        1 AGB     -0.072000
      5 C5          2.2120    1.1870    1.9550 c2        1 AGB     -0.128000
      6 C6          2.4380   -0.1440    1.9420 c2        1 AGB     -0.197000
      7 C7         -2.6840    1.7960    1.4440 c1        1 AGB     -0.141000
      8 C8          1.6610   -1.0730    2.8180 c3        1 AGB     -0.149000
      9 C9         -3.1510    2.3100    2.4210 c1        1 AGB     -0.200000
     10 C10         0.5070   -1.7260    2.0310 c3        1 AGB      0.027000
     11 N1         -1.1250   -4.2130    4.3010 n         1 AGB     -0.409000
     12 N2         -0.4810   -2.3320    2.9100 n         1 AGB     -0.343000
     13 O1          1.0830   -3.7320    3.9340 o         1 AGB     -0.421000
     14 C11         1.1970   -4.9080    7.0520 c2        1 AGB     -0.174000
     15 C13        -1.1690   -5.1080    8.1230 c2        1 AGB     -0.096000
     16 C14         0.0120   -5.0320    7.5630 c1        1 AGB     -0.163000
     17 C15        -0.6020   -7.3020    5.1070 c1        1 AGB     -0.154000
     18 C16        -1.2700   -7.2890    6.1010 c1        1 AGB     -0.155000
     19 C17        -2.0760   -7.2850    7.2710 c2        1 AGB      0.126000
     20 C18        -2.0490   -6.2490    8.1580 c2        1 AGB     -0.182000
     21 N3         -2.8670   -8.4470    7.4300 n3        1 AGB     -0.249000
     22 C19        -3.7020   -8.5430    8.6100 c2        1 AGB      0.166000
     23 N5         -3.0020   -8.8200    9.8210 n3        1 AGB     -0.367000
     24 H1          0.2570   -3.1200    0.3590 hc        1 AGB      0.091000
     25 H21         4.0440   -1.4970    1.4360 ha        1 AGB      0.061000
     26 H22        -0.0700    1.4290    0.7110 ha        1 AGB      0.123500
     27 H31         1.6390   -3.5110    1.4710 hc        1 AGB      0.091000
     28 H32         1.7650   -2.1230    0.3000 hc        1 AGB      0.091000
     29 H41        -0.4920    0.5830   -0.8840 ha        1 AGB      0.123500
     30 H42        -2.9220    0.8160   -0.4210 ha        1 AGB      0.136000
     31 H51         0.8360    4.0500    0.9650 ha        1 AGB      0.000000
     32 H52         1.0310    3.4290    1.1550 ha        1 AGB      0.000000
     33 H6          2.7600    1.8740    1.2950 ha        1 AGB      0.123500
     34 H7          1.5100    1.6550    2.6580 ha        1 AGB      0.123500
     35 H81         2.3320   -1.8790    3.2230 hc        1 AGB      0.111000
     36 H82         1.2440   -0.5100    3.6960 hc        1 AGB      0.111000
     37 H91        -0.0470   -0.8950    1.4900 h1        1 AGB      0.101000
     38 H92        -3.5650    2.7660    3.2840 ha        1 AGB      0.224000
     39 HN1        -2.0330   -3.8310    4.4080 hn        1 AGB      0.219500
     40 HN2        -1.3940   -2.3640    2.5100 hn        1 AGB      0.208000
     41 H111       -0.8140   -4.8090    5.0390 hn        1 AGB      0.219500
     42 H112        2.1050   -5.1560    7.6220 ha        1 AGB      0.151000
     43 H15         1.3700   -4.5550    6.0200 ha        1 AGB      0.151000
     44 H16        -0.0040   -7.2930    4.2290 ha        1 AGB      0.236000
     45 H18        -1.5540   -4.2190    8.6630 ha        1 AGB      0.136000
     46 HN3        -3.3350   -8.7280    6.5880 hn        1 AGB      0.229000
     47 HN4        -5.5370   -8.6760    9.2930 hn        1 AGB      0.156000
     48 HN51       -2.0090   -8.7520    9.7720 hn        1 AGB      0.195500
     49 HN52       -3.3850   -8.3730   10.6240 hn        1 AGB      0.195500
     50 C12        -0.1200   -3.4320    3.7160 c2        1 AGB      0.360000
     51 H13        -2.7630   -6.2290    9.0000 ha        1 AGB      0.128000
     52 N4         -5.0020   -8.5030    8.4710 n2        1 AGB     -0.327000
@<TRIPOS>BOND
     1    1    4 1   
     2    1   26 1   
     3    1   29 1   
     4    2    6 1   
     5    2   25 1   
     6    3   10 1   
     7    3   24 1   
     8    3   27 1   
     9    3   28 1   
    10    4    7 1   
    11    4   30 1   
    12    5    6 1   
    13    5   33 1   
    14    5   34 1   
    15    6    8 1   
    16    7    9 1   
    17    8   10 1   
    18    8   35 1   
    19    8   36 1   
    20    9   38 1   
    21   10   12 1   
    22   10   37 1   
    23   11   39 1   
    24   11   41 1   
    25   11   50 1   
    26   12   40 1   
    27   12   50 1   
    28   13   50 1   
    29   14   16 1   
    30   14   42 1   
    31   14   43 1   
    32   15   16 1   
    33   15   20 1   
    34   15   45 1   
    35   17   18 1   
    36   17   44 1   
    37   18   19 1   
    38   19   20 1   
    39   19   21 1   
    40   20   51 1   
    41   21   22 1   
    42   21   46 1   
    43   22   23 1   
    44   22   52 1   
    45   23   48 1   
    46   23   49 1   
    47   31   32 1   
    48   47   52 1   
@<TRIPOS>SUBSTRUCTURE
     1 AGB         1 TEMP              0 ****  ****    0 ROOT
