@<TRIPOS>MOLECULE
AGB
   55    52     1     0     0
SMALL
bcc


@<TRIPOS>ATOM
      1 C1         95.3730  136.5570  -51.0110 c2        1 AGB      0.195000
      2 C2         96.1170  137.7220  -51.1110 c2        1 AGB     -0.304000
      3 C3       -163.9080  -39.0270 -109.4810 c3        1 AGB     -0.245000
      4 C4         95.0220  135.8470  -49.7830 c3        1 AGB     -0.180000
      5 C5         96.6700  138.1600  -48.6730 c3        1 AGB     -0.288000
      6 C6         96.6980  138.4580  -50.0970 c2        1 AGB      0.183000
      7 C7         94.1580  134.6620  -50.0210 c2        1 AGB     -0.231000
      8 C8       -164.0150  -41.3880 -110.4390 c3        1 AGB     -0.054000
      9 C9         93.0230  134.4400  -49.3610 c2        1 AGB     -0.136000
     10 C10      -164.7820  -40.2390 -109.7290 c3        1 AGB     -0.034000
     11 N1         24.3810  -86.5460  111.6280 n3        1 AGB     -0.338000
     12 N2       -165.9100  -39.9920 -110.6650 n3        1 AGB     -0.244000
     13 O1       -164.8040  -41.6510 -111.6620 os        1 AGB     -0.138000
     14 C11        24.1610  -87.8700  111.9510 c2        1 AGB      0.056000
     15 C13        24.4480  -89.0010  114.2980 c2        1 AGB     -0.082000
     16 C14        24.2750  -88.4120  113.1470 c1        1 AGB     -0.262000
     17 C15        21.3280  -90.0910  117.9270 c1        1 AGB     -0.145000
     18 C16        22.3270  -89.8780  117.3030 c1        1 AGB     -0.162000
     19 C17        23.4800  -89.6050  116.5260 c2        1 AGB      0.061000
     20 C18        23.3600  -89.2600  115.2160 c2        1 AGB     -0.078000
     21 N3         24.7350  -89.6380  117.2090 n3        1 AGB     -0.179000
     22 C19        24.9670  -90.6270  118.0980 c1        1 AGB      0.100000
     23 N5         25.5460  -93.1810  121.1450 n4        1 AGB     -0.122000
     24 H1       -164.4980  -38.1970 -109.0180 hc        1 AGB      0.123000
     25 H21        96.2630  138.1140  -52.1440 ha        1 AGB      0.190000
     26 H22        95.0010  136.1080  -51.9620 ha        1 AGB      0.186000
     27 H31      -163.4370  -38.6530 -110.4220 hc        1 AGB      0.123000
     28 H32      -163.0960  -39.3190 -108.7680 hc        1 AGB      0.123000
     29 H41        94.5330  136.5640  -49.0540 hc        1 AGB      0.158500
     30 H42        95.9790  135.5050  -49.2720 hc        1 AGB      0.158500
     31 H51        94.5380  133.9470  -50.7700 ha        1 AGB      0.148000
     32 H52        95.6140  138.2070  -48.2790 hc        1 AGB      0.154000
     33 H6         97.0520  137.1210  -48.4640 hc        1 AGB      0.154000
     34 H7         97.2900  138.8850  -48.0820 hc        1 AGB      0.154000
     35 H81        97.2510  139.3790  -50.3950 ha        1 AGB      0.181000
     36 H82      -162.9920  -41.1010 -110.7890 h1        1 AGB      0.168500
     37 H91        92.4160  133.5400  -49.5410 ha        1 AGB      0.138000
     38 H92      -165.2250  -40.5970 -108.7520 h1        1 AGB      0.163000
     39 HN1      -166.5350  -40.8920 -112.5850 h5        1 AGB      0.282000
     40 HN2        92.6190  135.1260  -48.6020 ha        1 AGB      0.138000
     41 H111       23.9010  -86.2150  110.8230 hn        1 AGB      0.205000
     42 H112     -164.0120  -42.3480 -109.8670 h1        1 AGB      0.168500
     43 H15        23.9330  -88.5290  111.0830 h4        1 AGB      0.163000
     44 H16        20.4330  -90.2720  118.4700 ha        1 AGB      0.237000
     45 H18        22.3390  -89.1490  114.8070 ha        1 AGB      0.164000
     46 HN3        25.5330  -89.3720  116.6590 hn        1 AGB      0.256000
     47 HN4        25.4180  -92.5210  120.3370 hn        1 AGB      0.270250
     48 HN51       25.2080  -94.1070  120.8790 hn        1 AGB      0.270250
     49 HN52       25.0150  -92.8390  121.9470 hn        1 AGB      0.270250
     50 C12      -165.8510  -40.8090 -111.7120 c2        1 AGB      0.250000
     51 N4         25.1650  -91.4110  118.9450 n1        1 AGB     -0.274000
     52 H12        24.4260  -85.8980  112.3800 hn        1 AGB      0.205000
     53 H221     -166.5800  -39.2690 -110.5070 hn        1 AGB      0.313000
     54 H53        26.5360  -93.2320  121.3850 hn        1 AGB      0.270250
     55 H13        25.4610  -89.3430  114.5820 ha        1 AGB      0.114000
@<TRIPOS>BOND
     1    1    2 1   
     2    1    4 1   
     3    1   26 1   
     4    2    6 1   
     5    2   25 1   
     6    3   10 1   
     7    3   24 1   
     8    3   27 1   
     9    3   28 1   
    10    4    7 1   
    11    4   29 1   
    12    4   30 1   
    13    5    6 1   
    14    5   32 1   
    15    5   33 1   
    16    5   34 1   
    17    6   35 1   
    18    7    9 1   
    19    7   31 1   
    20    8   10 1   
    21    8   13 1   
    22    8   36 1   
    23    8   42 1   
    24    9   37 1   
    25    9   40 1   
    26   10   12 1   
    27   10   38 1   
    28   11   14 1   
    29   11   41 1   
    30   11   52 1   
    31   12   50 1   
    32   12   53 1   
    33   13   50 1   
    34   14   16 1   
    35   14   43 1   
    36   15   16 1   
    37   15   20 1   
    38   15   55 1   
    39   17   18 1   
    40   17   44 1   
    41   18   19 1   
    42   19   20 1   
    43   19   21 1   
    44   20   45 1   
    45   21   22 1   
    46   21   46 1   
    47   22   51 1   
    48   23   47 1   
    49   23   48 1   
    50   23   49 1   
    51   23   54 1   
    52   39   50 1   
@<TRIPOS>SUBSTRUCTURE
     1 AGB         1 TEMP              0 ****  ****    0 ROOT
