@<TRIPOS>MOLECULE
AGB
   52    55     1     0     0
SMALL
bcc


@<TRIPOS>ATOM
      1 C1         -0.0980    1.4370   -5.2970 c3        1 AGB     -0.058700
      2 C2         -0.1780    0.1050   -6.0330 c3        1 AGB     -0.072400
      3 C3         -0.9670    1.3890   -4.0480 c3        1 AGB     -0.083400
      4 C4          1.3480    1.7200   -4.9080 c3        1 AGB     -0.072400
      5 C5          1.7720   -0.7280   -4.7270 c3        1 AGB     -0.072400
      6 C6          0.3260   -1.0060   -5.1190 c3        1 AGB     -0.058700
      7 C7          1.8490    0.6070   -3.9950 c3        1 AGB     -0.058700
      8 C8         -0.5390   -1.0760   -3.8690 c3        1 AGB     -0.083400
      9 C9          0.9990    0.5520   -2.7330 c3        1 AGB     -0.083400
     10 C10        -0.4780    0.2650   -3.0950 c3        1 AGB      0.121400
     11 N1         -2.2440   -0.9270    0.0040 n         1 AGB     -0.531900
     12 N2         -1.3210    0.2590   -1.8950 n         1 AGB     -0.536900
     13 O1         -0.1580   -1.4700   -0.8520 o         1 AGB     -0.643100
     14 C11        -1.9920   -1.7220    1.1830 c3        1 AGB      0.121300
     15 C13        -0.0570   -0.5980    2.3200 ca        1 AGB     -0.084500
     16 C14        -1.4010   -0.9860    2.3490 ca        1 AGB     -0.163300
     17 C15        -2.1680   -0.7010    3.4800 ca        1 AGB     -0.084500
     18 C16        -1.6080   -0.0480    4.5730 ca        1 AGB     -0.183500
     19 C17        -0.2540    0.3540    4.5490 ca        1 AGB      0.129600
     20 C18         0.5160    0.0620    3.3990 ca        1 AGB     -0.183500
     21 N3          0.2820    1.1130    5.6090 nh        1 AGB     -0.717600
     22 C19         1.6930    0.9160    5.9390 c2        1 AGB      0.741100
     23 N5          2.1260   -0.4320    6.1110 nh        1 AGB     -0.903800
     24 H1         -0.4720    2.2570   -5.9680 hc        1 AGB      0.050700
     25 H21        -1.2360   -0.1010   -6.3360 hc        1 AGB      0.042867
     26 H22         0.4450    0.1460   -6.9620 hc        1 AGB      0.042867
     27 H31        -2.0310    1.2020   -4.3450 hc        1 AGB      0.053700
     28 H32        -0.9180    2.3770   -3.5220 hc        1 AGB      0.053700
     29 H41         1.9850    1.7750   -5.8270 hc        1 AGB      0.042867
     30 H42         1.4150    2.7050   -4.3800 hc        1 AGB      0.042867
     31 H51         2.1500   -1.5470   -4.0620 hc        1 AGB      0.042867
     32 H52         2.4160   -0.6980   -5.6430 hc        1 AGB      0.042867
     33 H6          0.2680   -1.9890   -5.6590 hc        1 AGB      0.050700
     34 H7          2.9150    0.8130   -3.7060 hc        1 AGB      0.050700
     35 H81        -0.1750   -1.9020   -3.2030 hc        1 AGB      0.053700
     36 H82        -1.5980   -1.2970   -4.1580 hc        1 AGB      0.053700
     37 H91         1.0700    1.5280   -2.1890 hc        1 AGB      0.053700
     38 H92         1.3800   -0.2570   -2.0560 hc        1 AGB      0.053700
     39 HN1        -2.8160   -0.1280    0.1740 hn        1 AGB      0.286500
     40 HN2        -2.2470    0.5890   -2.0630 hn        1 AGB      0.291500
     41 H111       -1.3000   -2.5690    0.9000 h1        1 AGB      0.073200
     42 H112       -2.9870   -2.1630    1.4840 h1        1 AGB      0.073200
     43 H15        -3.2260   -1.0030    3.5170 ha        1 AGB      0.147000
     44 H16        -2.2340    0.1600    5.4540 ha        1 AGB      0.137500
     45 H18         1.5710    0.3740    3.3440 ha        1 AGB      0.137500
     46 HN3        -0.2900    1.1020    6.4320 hn        1 AGB      0.408800
     47 HN4         2.1200    2.8220    6.1020 hn        1 AGB      0.411400
     48 HN51        3.1130   -0.5270    6.2310 hn        1 AGB      0.402300
     49 HN52        1.7620   -1.0590    5.4250 hn        1 AGB      0.402300
     50 C12        -1.1800   -0.7440   -0.9200 c         1 AGB      0.735100
     51 H13         0.5470   -0.8230    1.4230 ha        1 AGB      0.147000
     52 N4          2.5140    1.9070    6.1440 n2        1 AGB     -0.825100
@<TRIPOS>BOND
     1    1    2 1   
     2    1    3 1   
     3    1    4 1   
     4    1   24 1   
     5    2    6 1   
     6    2   25 1   
     7    2   26 1   
     8    3   10 1   
     9    3   27 1   
    10    3   28 1   
    11    4    7 1   
    12    4   29 1   
    13    4   30 1   
    14    5    6 1   
    15    5    7 1   
    16    5   31 1   
    17    5   32 1   
    18    6    8 1   
    19    6   33 1   
    20    7    9 1   
    21    7   34 1   
    22    8   10 1   
    23    8   35 1   
    24    8   36 1   
    25    9   10 1   
    26    9   37 1   
    27    9   38 1   
    28   10   12 1   
    29   11   14 1   
    30   11   39 1   
    31   11   50 1   
    32   12   40 1   
    33   12   50 1   
    34   13   50 2   
    35   14   16 1   
    36   14   41 1   
    37   14   42 1   
    38   15   16 ar  
    39   15   20 ar  
    40   15   51 1   
    41   16   17 ar  
    42   17   18 ar  
    43   17   43 1   
    44   18   19 ar  
    45   18   44 1   
    46   19   20 ar  
    47   19   21 1   
    48   20   45 1   
    49   21   22 1   
    50   21   46 1   
    51   22   23 1   
    52   22   52 2   
    53   23   48 1   
    54   23   49 1   
    55   47   52 1   
@<TRIPOS>SUBSTRUCTURE
     1 AGB         1 TEMP              0 ****  ****    0 ROOT
