@<TRIPOS>MOLECULE
AGC
   24    24     1     0     0
SMALL
bcc


@<TRIPOS>ATOM
      1 C1         -0.7580   -0.5660   -1.5460 c3        1 AGC      0.340900
      2 O1         -1.2880   -1.7750   -1.1470 oh        1 AGC     -0.608800
      3 C2          0.7510   -0.6490   -1.4840 c3        1 AGC      0.100100
      4 O2          1.1840   -1.8230   -2.2020 oh        1 AGC     -0.574800
      5 C3          1.2530   -0.7280   -0.0930 c3        1 AGC      0.066100
      6 O3          2.7010   -0.6220   -0.1100 oh        1 AGC     -0.608800
      7 C4          0.6980    0.3600    0.7710 c3        1 AGC      0.122100
      8 O4          1.0820    0.1160    2.1240 oh        1 AGC     -0.593800
      9 C5         -0.8170    0.4400    0.6970 c3        1 AGC      0.144100
     10 C6         -1.2750    1.6590    1.4390 c3        1 AGC      0.135400
     11 O6         -2.6660    1.7920    1.3050 oh        1 AGC     -0.597800
     12 O5         -1.3070    0.5130   -0.6760 os        1 AGC     -0.447600
     13 H1         -1.0270   -0.3930   -2.4730 h2        1 AGC      0.084700
     14 HO1        -1.9600   -1.9940   -1.6820 ho        1 AGC      0.423000
     15 H2          1.1290    0.1420   -1.9130 h1        1 AGC      0.059700
     16 HO2         1.5950   -1.5780   -2.9490 ho        1 AGC      0.404000
     17 H3          1.0010   -1.5970    0.2880 h1        1 AGC      0.085700
     18 HO3         3.0570   -1.3370    0.2910 ho        1 AGC      0.411000
     19 H4          1.0770    1.2190    0.4830 h1        1 AGC      0.054700
     20 HO4         1.6160    0.7710    2.4030 ho        1 AGC      0.421000
     21 H5         -1.1990   -0.3570    1.1280 h1        1 AGC      0.088700
     22 H61        -0.8370    2.4460    1.0720 h1        1 AGC      0.045200
     23 H62        -1.0460    1.5700    2.3870 h1        1 AGC      0.045200
     24 HO6        -2.9640    2.3900    1.8870 ho        1 AGC      0.402000
@<TRIPOS>BOND
     1    1    2 1   
     2    1    3 1   
     3    1   12 1   
     4    1   13 1   
     5    2   14 1   
     6    3    4 1   
     7    3    5 1   
     8    3   15 1   
     9    4   16 1   
    10    5    6 1   
    11    5    7 1   
    12    5   17 1   
    13    6   18 1   
    14    7    8 1   
    15    7    9 1   
    16    7   19 1   
    17    8   20 1   
    18    9   10 1   
    19    9   12 1   
    20    9   21 1   
    21   10   11 1   
    22   10   22 1   
    23   10   23 1   
    24   11   24 1   
@<TRIPOS>SUBSTRUCTURE
     1 AGC         1 TEMP              0 ****  ****    0 ROOT
