@<TRIPOS>MOLECULE
AGC
   24    24     1     0     0
SMALL
bcc


@<TRIPOS>ATOM
      1 C1          1.5740   -0.4820   -0.5090 c3        1 AGC      0.305900
      2 O1          2.0740    0.8350   -0.5400 oh        1 AGC     -0.640800
      3 C2          0.5050   -0.6060   -1.6090 c3        1 AGC      0.095100
      4 O2          1.0020   -0.1820   -2.8610 oh        1 AGC     -0.593800
      5 C3         -0.7520    0.1920   -1.2360 c3        1 AGC      0.074100
      6 O3         -1.8290   -0.1200   -2.1040 oh        1 AGC     -0.607800
      7 C4         -1.2090   -0.1780    0.1840 c3        1 AGC      0.125100
      8 O4         -2.3030    0.6260    0.5870 oh        1 AGC     -0.595800
      9 C5         -0.0510    0.0940    1.1590 c3        1 AGC      0.140100
     10 C6         -0.4200   -0.3190    2.5840 c3        1 AGC      0.135400
     11 O6          0.3920    0.4500    3.4570 oh        1 AGC     -0.599800
     12 O5          1.0810   -0.7050    0.7940 os        1 AGC     -0.438600
     13 H1          2.3940   -1.2440   -0.6420 h2        1 AGC      0.085700
     14 HO1         2.6660    0.9400    0.2160 ho        1 AGC      0.434000
     15 H2          0.2440   -1.6930   -1.7540 h1        1 AGC      0.098700
     16 HO2         1.3890    0.6970   -2.7390 ho        1 AGC      0.424000
     17 H3         -0.5330    1.2950   -1.2940 h1        1 AGC      0.065700
     18 HO3        -1.4860   -0.0570   -3.0060 ho        1 AGC      0.424000
     19 H4         -1.5050   -1.2630    0.2160 h1        1 AGC      0.057700
     20 HO4        -2.9610    0.5650   -0.1190 ho        1 AGC      0.426000
     21 H5          0.2340    1.1810    1.1290 h1        1 AGC      0.085700
     22 H61        -0.2290   -1.4140    2.7350 h1        1 AGC      0.047200
     23 H62        -1.5050   -0.0860    2.7620 h1        1 AGC      0.047200
     24 HO6         0.2010    0.1410    4.3500 ho        1 AGC      0.403000
@<TRIPOS>BOND
     1    1    2 1   
     2    1    3 1   
     3    1   12 1   
     4    1   13 1   
     5    2   14 1   
     6    3    4 1   
     7    3    5 1   
     8    3   15 1   
     9    4   16 1   
    10    5    6 1   
    11    5    7 1   
    12    5   17 1   
    13    6   18 1   
    14    7    8 1   
    15    7    9 1   
    16    7   19 1   
    17    8   20 1   
    18    9   10 1   
    19    9   12 1   
    20    9   21 1   
    21   10   11 1   
    22   10   22 1   
    23   10   23 1   
    24   11   24 1   
@<TRIPOS>SUBSTRUCTURE
     1 AGC         1 TEMP              0 ****  ****    0 ROOT
