@<TRIPOS>MOLECULE
AGD
   26    23     1     0     0
SMALL
bcc


@<TRIPOS>ATOM
      1 C2         -2.9410   -0.0900   -0.7280 c1        1 AGD      0.552600
      2 C4         -0.7410   -0.1660    0.4770 c1        1 AGD     -0.043300
      3 C5         -1.3760   -0.0760    1.6770 cg        1 AGD     -0.180000
      4 C6         -2.8810    0.0240    1.7230 c1        1 AGD      0.847900
      5 N           3.9330   -0.3750   -0.5870 n3        1 AGD     -0.899800
      6 CA          2.7220    0.2930   -0.2950 c3        1 AGD     -0.006500
      7 CB          1.6020   -0.7110   -0.2190 c3        1 AGD      0.040300
      8 N9          0.5890   -0.2400    0.7110 n3        1 AGD     -0.033400
      9 N3         -1.5270   -0.1710   -0.7740 n1        1 AGD     -0.522800
     10 N2         -3.7080   -0.2290   -1.9430 n3        1 AGD     -0.774400
     11 N1         -3.6170   -0.0040    0.5340 n2        1 AGD     -0.806800
     12 O6         -3.4270    0.0370    2.7350 o         1 AGD     -0.594500
     13 N7         -0.4320   -0.0950    2.6500 ne        1 AGD     -0.379400
     14 C8          0.7840   -0.1970    2.0550 c1        1 AGD      0.154400
     15 C           2.4250    1.3210   -1.4060 c         1 AGD      0.896600
     16 O           2.7630    1.0610   -2.6480 o         1 AGD     -0.825300
     17 OXT         1.8490    2.3920   -1.1280 o         1 AGD     -0.825300
     18 HN1        -4.4670    0.0420    0.5590 hn        1 AGD      0.483400
     19 HN          4.5650    0.2320   -0.8330 hn        1 AGD      0.341300
     20 HA          2.7980    0.7370    0.5300 h1        1 AGD      0.053700
     21 HB          1.1810   -0.8270   -1.1620 h1        1 AGD      0.082200
     22 HBA         1.9670   -1.6010    0.1020 h1        1 AGD      0.082200
     23 HN2        -3.2760   -0.2790   -2.7570 hn        1 AGD      0.393300
     24 HN2A       -4.6590   -0.1620   -1.9150 hn        1 AGD      0.393300
     25 H8          1.6670   -0.1040    2.5130 DU        1 AGD      0.229000
     26 HNA         4.2070   -0.8130    0.1300 hn        1 AGD      0.341300
@<TRIPOS>BOND
     1    1    9 3   
     2    1   10 1   
     3    2    3 3   
     4    2    8 1   
     5    3   13 1   
     6    4   11 2   
     7    4   12 2   
     8    5    6 1   
     9    5   19 1   
    10    5   26 1   
    11    6    7 1   
    12    6   15 1   
    13    6   20 1   
    14    7    8 1   
    15    7   21 1   
    16    7   22 1   
    17    8   14 2   
    18   10   23 1   
    19   10   24 1   
    20   11   18 1   
    21   13   14 2   
    22   15   16 1   
    23   15   17 1   
@<TRIPOS>SUBSTRUCTURE
     1 AGD         1 TEMP              0 ****  ****    0 ROOT
