@<TRIPOS>MOLECULE
AGD
   26    27     1     0     0
SMALL
bcc


@<TRIPOS>ATOM
      1 C2         -2.5430   -1.7510    0.5210 cc        1 AGD      0.617800
      2 C4         -0.9900   -0.1380   -0.0060 cd        1 AGD      0.060800
      3 C5         -2.0100    0.8180   -0.3760 cc        1 AGD      0.185800
      4 C6         -3.4010    0.4340   -0.2830 c         1 AGD      0.647000
      5 N           2.8680    2.0050    0.3330 n3        1 AGD     -0.899800
      6 CA          2.7350    0.7610   -0.4090 c3        1 AGD     -0.006500
      7 N9          0.2330    0.5090   -0.1920 na        1 AGD     -0.151900
      8 N3         -1.2410   -1.4310    0.4310 nd        1 AGD     -0.624100
      9 N2         -2.9120   -3.0280    1.0610 nh        1 AGD     -0.870800
     10 N1         -3.6080   -0.8970    0.1610 n         1 AGD     -0.502400
     11 O6         -4.4120    1.1080   -0.5470 o         1 AGD     -0.636500
     12 N7         -1.4190    2.0140   -0.7750 nc        1 AGD     -0.633000
     13 C8         -0.0890    1.8000   -0.6560 cd        1 AGD      0.422400
     14 C           3.9930   -0.1830   -0.3410 c         1 AGD      0.896600
     15 O           5.0370    0.2840    0.1890 o         1 AGD     -0.825300
     16 OXT         3.8740   -1.3330   -0.8410 o         1 AGD     -0.825300
     17 HN1        -4.5470   -1.1920    0.3070 hn        1 AGD      0.325500
     18 HA          2.6140    1.0390   -1.4960 h1        1 AGD      0.053700
     19 HN2        -2.1120   -3.5540    1.3550 hn        1 AGD      0.393300
     20 HN2A       -3.4700   -3.5530    0.4170 hn        1 AGD      0.393300
     21 H8          0.6940    2.5380   -0.8780 h5        1 AGD      0.092100
     22 CB          1.5300   -0.0850    0.0310 c3        1 AGD      0.040300
     23 HN          2.8730    1.7960    1.3150 hn        1 AGD      0.341300
     24 HB          1.5800   -1.0590   -0.5440 h1        1 AGD      0.082200
     25 HBA         1.6120   -0.3240    1.1310 h1        1 AGD      0.082200
     26 HNA         3.7770    2.3820    0.1190 hn        1 AGD      0.341300
@<TRIPOS>BOND
     1    1    8 2   
     2    1    9 1   
     3    1   10 1   
     4    2    3 2   
     5    2    7 1   
     6    2    8 1   
     7    3    4 1   
     8    3   12 1   
     9    4   10 1   
    10    4   11 2   
    11    5    6 1   
    12    5   23 1   
    13    5   26 1   
    14    6   14 1   
    15    6   18 1   
    16    6   22 1   
    17    7   13 1   
    18    7   22 1   
    19    9   19 1   
    20    9   20 1   
    21   10   17 1   
    22   12   13 2   
    23   13   21 1   
    24   14   15 1   
    25   14   16 1   
    26   22   24 1   
    27   22   25 1   
@<TRIPOS>SUBSTRUCTURE
     1 AGD         1 TEMP              0 ****  ****    0 ROOT
