@<TRIPOS>MOLECULE
AGE
   38    39     1     0     0
SMALL
bcc


@<TRIPOS>ATOM
      1 N1          0.1080   -0.1900   -0.2590 na        1 AGE     -0.028100
      2 C2          5.3400    1.1950    4.5150 ca        1 AGE     -0.120000
      3 N2         -1.7150    1.4830    5.3460 n4        1 AGE     -0.484300
      4 C4          3.5340   -0.4060    4.3720 ca        1 AGE     -0.127000
      5 C5          4.1020   -0.9490    3.2140 ca        1 AGE     -0.090300
      6 C6          5.2920   -0.4100    2.7100 ca        1 AGE     -0.127000
      7 O1         -3.0550    1.3740    5.2640 oh        1 AGE     -0.357300
      8 O2         -0.1940   -0.0060    4.4770 o         1 AGE     -0.479100
      9 O3          3.8130   -2.1800    0.1660 o         1 AGE     -0.516100
     10 C1          5.9070    0.6590    3.3570 ca        1 AGE     -0.126500
     11 C3          4.1560    0.6610    5.0200 ca        1 AGE     -0.126500
     12 C7          3.4740   -2.1210    2.5450 c3        1 AGE     -0.129100
     13 C8          3.1030   -1.8230    1.1140 c         1 AGE      0.607700
     14 C9          1.8470   -1.1110    0.8900 cc        1 AGE     -0.263600
     15 C10         1.2670   -0.8940   -0.3990 cd        1 AGE      0.023700
     16 C11        -0.7650    0.2110   -1.3220 c3        1 AGE     -0.006400
     17 C12        -0.1090    0.0780    1.1320 cd        1 AGE     -0.222100
     18 C13         0.9930   -0.5080    1.8360 cc        1 AGE     -0.001000
     19 C14        -1.2200    0.8050    1.5870 cf        1 AGE      0.149800
     20 C15        -1.6370    1.1450    2.8500 ce        1 AGE     -0.372200
     21 C16        -1.0670    0.7520    4.0820 c         1 AGE      0.619300
     22 H6          5.7400   -0.8420    1.8000 ha        1 AGE      0.137500
     23 H1          6.8440    1.0760    2.9590 ha        1 AGE      0.135500
     24 H3          3.7170    1.0730    5.9410 ha        1 AGE      0.135500
     25 H7          2.5560   -2.4520    3.1000 hc        1 AGE      0.081200
     26 H7A         4.2040   -2.9790    2.5500 hc        1 AGE      0.081200
     27 H10         1.6610   -1.2250   -1.3700 h4        1 AGE      0.215000
     28 H11        -0.8420    1.3320   -1.3520 h1        1 AGE      0.077033
     29 H11A       -1.7870   -0.2300   -1.1660 h1        1 AGE      0.077033
     30 H11B       -0.3560   -0.1530   -2.3040 h1        1 AGE      0.077033
     31 H13         1.1660   -0.4810    2.9140 ha        1 AGE      0.190000
     32 H14        -1.8940    1.1960    0.7860 ha        1 AGE      0.153000
     33 H15        -2.5540    1.7640    2.9090 ha        1 AGE      0.174000
     34 H151       -1.4320    2.4750    5.3320 hn        1 AGE      0.450300
     35 H16        -3.4580    1.6790    6.1070 ho        1 AGE      0.459000
     36 H2          5.8330    2.0330    5.0310 ha        1 AGE      0.141000
     37 H22        -1.3440    1.0290    6.1990 hn        1 AGE      0.450300
     38 H4          2.6050   -0.8300    4.7810 ha        1 AGE      0.137500
@<TRIPOS>BOND
     1    1   15 1   
     2    1   16 1   
     3    1   17 1   
     4    2   10 ar  
     5    2   11 ar  
     6    2   36 1   
     7    3    7 1   
     8    3   21 1   
     9    3   34 1   
    10    3   37 1   
    11    4    5 ar  
    12    4   11 ar  
    13    4   38 1   
    14    5    6 ar  
    15    5   12 1   
    16    6   10 ar  
    17    6   22 1   
    18    7   35 1   
    19    8   21 2   
    20    9   13 2   
    21   10   23 1   
    22   11   24 1   
    23   12   13 1   
    24   12   25 1   
    25   12   26 1   
    26   13   14 1   
    27   14   15 2   
    28   14   18 1   
    29   15   27 1   
    30   16   28 1   
    31   16   29 1   
    32   16   30 1   
    33   17   18 2   
    34   17   19 1   
    35   18   31 1   
    36   19   20 2   
    37   19   32 1   
    38   20   21 1   
    39   20   33 1   
@<TRIPOS>SUBSTRUCTURE
     1 AGE         1 TEMP              0 ****  ****    0 ROOT
