@<TRIPOS>MOLECULE
AGE
   37    38     1     0     0
SMALL
bcc


@<TRIPOS>ATOM
      1 N1         -1.3830    2.4390    0.0080 na        1 AGE     -0.044100
      2 C2          6.5200   -1.4020   -0.0160 ca        1 AGE     -0.127000
      3 N2         -5.1050   -2.5270    0.1420 n         1 AGE     -0.343400
      4 C4          4.4870   -0.9360    1.2050 ca        1 AGE     -0.116000
      5 C5          3.7860   -0.7970    0.0010 ca        1 AGE     -0.072300
      6 C6          4.4660   -0.9640   -1.2120 ca        1 AGE     -0.116000
      7 O1         -6.3470   -2.8650   -0.2150 oh        1 AGE     -0.439100
      8 O2         -5.7780   -0.3110    0.1770 o         1 AGE     -0.577100
      9 O3          2.8290    1.8690   -0.0440 o         1 AGE     -0.536100
     10 C1          5.8270   -1.2640   -1.2190 ca        1 AGE     -0.128000
     11 C3          5.8480   -1.2360    1.1950 ca        1 AGE     -0.128000
     12 C7          2.3290   -0.5020    0.0100 c3        1 AGE     -0.128100
     13 C8          1.9830    0.9660   -0.0140 c         1 AGE      0.608700
     14 C9          0.5550    1.2510    0.0000 cc        1 AGE     -0.267600
     15 C10        -0.0090    2.5480   -0.0130 cd        1 AGE     -0.051300
     16 C11        -2.3120    3.5240    0.0060 c3        1 AGE      0.010600
     17 C12        -1.7300    1.0670    0.0340 cd        1 AGE     -0.136100
     18 C13        -0.5340    0.3220    0.0290 cc        1 AGE     -0.107000
     19 C14        -3.0870    0.5930    0.0600 cf        1 AGE      0.009800
     20 C15        -3.4170   -0.7120    0.0660 ce        1 AGE     -0.255200
     21 C16        -4.8350   -1.1200    0.0880 c         1 AGE      0.592300
     22 H4          3.9620   -0.8010    2.1620 ha        1 AGE      0.130000
     23 H6          3.9240   -0.8510   -2.1630 ha        1 AGE      0.130000
     24 H1          6.3540   -1.3910   -2.1750 ha        1 AGE      0.131000
     25 H3          6.3920   -1.3400    2.1450 ha        1 AGE      0.131000
     26 H7          1.8390   -0.9810   -0.8820 hc        1 AGE      0.070700
     27 H7A         1.8580   -0.9470    0.9300 hc        1 AGE      0.070700
     28 H10         0.5080    3.5110   -0.0340 h4        1 AGE      0.190000
     29 H11        -2.9500    3.4860    0.9310 h1        1 AGE      0.062700
     30 H11A       -1.7550    4.4980   -0.0180 h1        1 AGE      0.062700
     31 H11B       -2.9790    3.4580   -0.8960 h1        1 AGE      0.062700
     32 H13        -0.4560   -0.7620    0.0470 ha        1 AGE      0.157000
     33 H14        -3.8900    1.3570    0.0760 ha        1 AGE      0.151000
     34 H15        -2.6550   -1.5060    0.0590 ha        1 AGE      0.142000
     35 H151       -4.4670   -3.0650   -0.4350 hn        1 AGE      0.294500
     36 H16        -6.9280   -2.5400    0.5010 ho        1 AGE      0.436000
     37 H2          7.5940   -1.6370   -0.0230 ha        1 AGE      0.130000
@<TRIPOS>BOND
     1    1   15 1   
     2    1   16 1   
     3    1   17 1   
     4    2   10 ar  
     5    2   11 ar  
     6    2   37 1   
     7    3    7 1   
     8    3   21 1   
     9    3   35 1   
    10    4    5 ar  
    11    4   11 ar  
    12    4   22 1   
    13    5    6 ar  
    14    5   12 1   
    15    6   10 ar  
    16    6   23 1   
    17    7   36 1   
    18    8   21 2   
    19    9   13 2   
    20   10   24 1   
    21   11   25 1   
    22   12   13 1   
    23   12   26 1   
    24   12   27 1   
    25   13   14 1   
    26   14   15 2   
    27   14   18 1   
    28   15   28 1   
    29   16   29 1   
    30   16   30 1   
    31   16   31 1   
    32   17   18 2   
    33   17   19 1   
    34   18   32 1   
    35   19   20 2   
    36   19   33 1   
    37   20   21 1   
    38   20   34 1   
@<TRIPOS>SUBSTRUCTURE
     1 AGE         1 TEMP              0 ****  ****    0 ROOT
