@<TRIPOS>MOLECULE
AGE
   38    39     1     0     0
SMALL
bcc


@<TRIPOS>ATOM
      1 N1          0.1440   -0.2870   -0.2660 na        1 AGE     -0.028100
      2 C2          5.3160    1.2660    4.5240 ca        1 AGE     -0.120000
      3 N2         -1.7530    1.5750    5.2550 ny        1 AGE     -0.484300
      4 C4          3.5120   -0.3390    4.4130 ca        1 AGE     -0.127000
      5 C5          4.0940   -0.9230    3.2830 ca        1 AGE     -0.090300
      6 C6          5.2910   -0.4020    2.7750 ca        1 AGE     -0.127000
      7 O1         -3.0920    1.4600    5.1590 oh        1 AGE     -0.357300
      8 O2         -0.2190    0.0590    4.4570 o         1 AGE     -0.479100
      9 O3          3.8440   -2.2570    0.2760 o         1 AGE     -0.516100
     10 C1          5.8970    0.6900    3.3930 ca        1 AGE     -0.126500
     11 C3          4.1250    0.7490    5.0320 ca        1 AGE     -0.126500
     12 C7          3.4740   -2.1170    2.6460 c3        1 AGE     -0.129100
     13 C8          3.1220   -1.8690    1.2010 c         1 AGE      0.607700
     14 C9          1.8690   -1.1670    0.9380 cc        1 AGE     -0.263600
     15 C10         1.3050   -0.9950   -0.3660 cd        1 AGE      0.023700
     16 C11        -0.7150    0.0760   -1.3530 c3        1 AGE     -0.006400
     17 C12        -0.0910    0.0290    1.1130 cd        1 AGE     -0.222100
     18 C13         1.0020   -0.5320    1.8510 cc        1 AGE     -0.001000
     19 C14        -1.2080    0.7690    1.5290 cf        1 AGE      0.149800
     20 C15        -1.6420    1.1510    2.7740 ce        1 AGE     -0.372200
     21 C16        -1.0880    0.8010    4.0250 c         1 AGE      0.619300
     22 H6          5.7510   -0.8650    1.8870 ha        1 AGE      0.137500
     23 H1          6.8400    1.0920    2.9930 ha        1 AGE      0.135500
     24 H3          3.6750    1.1930    5.9320 ha        1 AGE      0.135500
     25 H7          2.5500   -2.4290    3.2010 hc        1 AGE      0.081200
     26 H7A         4.2050   -2.9740    2.6910 hc        1 AGE      0.081200
     27 H10         1.7120   -1.3580   -1.3200 h4        1 AGE      0.215000
     28 H11        -0.7930    1.1950   -1.4220 h1        1 AGE      0.077033
     29 H11A       -1.7380   -0.3600   -1.1950 h1        1 AGE      0.077033
     30 H11B       -0.2930   -0.3210   -2.3160 h1        1 AGE      0.077033
     31 H13         1.1610   -0.4680    2.9290 ha        1 AGE      0.190000
     32 H14        -1.8720    1.1310    0.7060 ha        1 AGE      0.153000
     33 H15        -2.5610    1.7700    2.8000 ha        1 AGE      0.174000
     34 H151       -1.4720    2.5660    5.2110 hn        1 AGE      0.450300
     35 H16        -3.5060    1.7930    5.9870 ho        1 AGE      0.459000
     36 H2          5.8020    2.1210    5.0170 ha        1 AGE      0.141000
     37 H22        -1.3930    1.1500    6.1280 hn        1 AGE      0.450300
     38 H4          2.5770   -0.7490    4.8250 ha        1 AGE      0.137500
@<TRIPOS>BOND
     1    1   15 1   
     2    1   16 1   
     3    1   17 1   
     4    2   10 ar  
     5    2   11 ar  
     6    2   36 1   
     7    3    7 1   
     8    3   21 1   
     9    3   34 1   
    10    3   37 1   
    11    4    5 ar  
    12    4   11 ar  
    13    4   38 1   
    14    5    6 ar  
    15    5   12 1   
    16    6   10 ar  
    17    6   22 1   
    18    7   35 1   
    19    8   21 2   
    20    9   13 2   
    21   10   23 1   
    22   11   24 1   
    23   12   13 1   
    24   12   25 1   
    25   12   26 1   
    26   13   14 1   
    27   14   15 2   
    28   14   18 1   
    29   15   27 1   
    30   16   28 1   
    31   16   29 1   
    32   16   30 1   
    33   17   18 2   
    34   17   19 1   
    35   18   31 1   
    36   19   20 2   
    37   19   32 1   
    38   20   21 1   
    39   20   33 1   
@<TRIPOS>SUBSTRUCTURE
     1 AGE         1 TEMP              0 ****  ****    0 ROOT
