@<TRIPOS>MOLECULE
AGE
   37    30     1     0     0
SMALL
bcc


@<TRIPOS>ATOM
      1 N1         -2.1630   -0.1660   -1.7680 n2        1 AGE     -0.109000
      2 C2          6.0510   -0.6870    0.9120 c1        1 AGE     -0.126000
      3 N2         -3.7020    2.6820    1.8540 n3        1 AGE     -0.193000
      4 C4          4.3350   -1.1660   -0.6890 c1        1 AGE     -0.103000
      5 C5          3.3970   -1.2500    0.3430 c1        1 AGE     -0.103000
      6 C6          3.7950   -1.0510    1.6600 c2        1 AGE     -0.124000
      7 O1         -3.6150    4.0250    1.9570 oh        1 AGE     -0.245000
      8 O2         -3.6630    2.7040   -0.4550 o         1 AGE     -0.326000
      9 O3          1.5760    0.7070    0.3650 o         1 AGE     -0.305000
     10 C1          5.1200   -0.7700    1.9460 c1        1 AGE     -0.126000
     11 C3          5.6490   -0.8870   -0.4060 c2        1 AGE     -0.124000
     12 C7          1.9030   -1.5800    0.0110 c2        1 AGE     -0.171000
     13 C8          1.0770   -0.3150    0.0470 c2        1 AGE      0.305000
     14 C9         -0.3800   -0.3390   -0.4400 c2        1 AGE     -0.233000
     15 C10        -0.7990   -0.2540   -1.7610 c1        1 AGE     -0.055000
     16 C11        -2.8460   -0.1610   -3.0010 c2        1 AGE     -0.104000
     17 C12        -2.5950   -0.1960   -0.4720 c1        1 AGE     -0.127000
     18 C13        -1.4800   -0.3030    0.3490 c1        1 AGE     -0.096000
     19 C14        -4.0970   -0.2730    0.0040 c1        1 AGE     -0.125000
     20 C15        -4.6940    0.8110    0.4920 c1        1 AGE     -0.125000
     21 C16        -3.9500    2.0870    0.5810 c1        1 AGE      0.268000
     22 H2          7.0270   -0.4810    1.1190 ha        1 AGE      0.134000
     23 H4          4.0570   -1.3060   -1.6120 DU        1 AGE      0.159000
     24 H6          3.1320   -1.1110    2.3900 ha        1 AGE      0.140000
     25 H1          5.3950   -0.6340    2.8440 ha        1 AGE      0.134000
     26 H3          6.2990   -0.8300   -1.1260 ha        1 AGE      0.140000
     27 H7          1.5400   -2.2420    0.6910 ha        1 AGE      0.110500
     28 H7A         1.8540   -1.9730   -0.8830 ha        1 AGE      0.110500
     29 H10        -0.2330   -0.2420   -2.5270 DU        1 AGE      0.159000
     30 H11        -3.6740   -0.6140   -2.9060 ha        1 AGE      0.109333
     31 H11A       -3.0060    0.7360   -3.2720 ha        1 AGE      0.109333
     32 H11B       -2.2770   -0.6350   -3.7090 ha        1 AGE      0.109333
     33 H13        -1.4860   -0.3440    1.2900 DU        1 AGE      0.159000
     34 H14        -4.5980   -1.1380   -0.0580 ha        1 AGE      0.156500
     35 H15        -5.6010    0.7650    0.7800 ha        1 AGE      0.156500
     36 H151       -3.7300    2.1660    2.6150 hn        1 AGE      0.225000
     37 H16        -3.6190    4.2640    2.8340 ho        1 AGE      0.234000
@<TRIPOS>BOND
     1    1   15 1   
     2    1   17 1   
     3    2   11 1   
     4    2   22 1   
     5    3    7 1   
     6    3   21 1   
     7    3   36 1   
     8    4    5 1   
     9    4   11 1   
    10    5    6 1   
    11    6   10 1   
    12    6   24 1   
    13    7   37 1   
    14    8   21 1   
    15    9   13 1   
    16   10   25 1   
    17   11   26 1   
    18   12   13 1   
    19   12   27 1   
    20   12   28 1   
    21   13   14 1   
    22   14   15 1   
    23   14   18 1   
    24   16   30 1   
    25   16   31 1   
    26   16   32 1   
    27   17   18 1   
    28   19   20 1   
    29   19   34 1   
    30   20   35 1   
@<TRIPOS>SUBSTRUCTURE
     1 AGE         1 TEMP              0 ****  ****    0 ROOT
