@<TRIPOS>MOLECULE
AGE
   38    39     1     0     0
SMALL
bcc


@<TRIPOS>ATOM
      1 N1         -0.1350    0.2300   -0.1830 na        1 AGE     -0.027100
      2 C2          7.4860   -0.2960    4.1540 ca        1 AGE     -0.115000
      3 N2         -3.2190    0.3970    5.1200 n4        1 AGE     -0.483300
      4 C4          5.5420    1.0400    3.6240 ca        1 AGE     -0.114000
      5 C5          4.7930   -0.1230    3.4130 ca        1 AGE     -0.092300
      6 C6          5.4010   -1.3730    3.5760 ca        1 AGE     -0.114000
      7 O1         -4.2660   -0.4070    4.8500 oh        1 AGE     -0.357300
      8 O2         -1.0380    0.0410    4.4880 o         1 AGE     -0.481100
      9 O3          3.9780    0.0080    0.6920 o         1 AGE     -0.499100
     10 C1          6.7420   -1.4580    3.9450 ca        1 AGE     -0.124000
     11 C3          6.8840    0.9520    3.9930 ca        1 AGE     -0.124000
     12 C7          3.3570   -0.0320    3.0420 c3        1 AGE     -0.117100
     13 C8          3.1010    0.0260    1.5600 c         1 AGE      0.599700
     14 C9          1.6850    0.1090    1.1840 cc        1 AGE     -0.269600
     15 C10         1.2260    0.1580   -0.1700 cd        1 AGE      0.023700
     16 C11        -0.9610    0.2910   -1.3520 c3        1 AGE     -0.007400
     17 C12        -0.6140    0.2310    1.1690 cd        1 AGE     -0.221100
     18 C13         0.5450    0.1530    2.0100 cc        1 AGE     -0.011000
     19 C14        -1.9830    0.2970    1.4710 cf        1 AGE      0.148800
     20 C15        -2.6640    0.3120    2.6630 ce        1 AGE     -0.371200
     21 C16        -2.1300    0.2150    3.9660 c         1 AGE      0.618300
     22 H6          4.8210   -2.2930    3.4090 ha        1 AGE      0.128500
     23 H1          7.2160   -2.4430    4.0680 ha        1 AGE      0.139000
     24 H3          7.4680    1.8700    4.1540 ha        1 AGE      0.139000
     25 H7          2.8020   -0.9220    3.4500 hc        1 AGE      0.069200
     26 H7A         2.9040    0.8890    3.5020 hc        1 AGE      0.069200
     27 H10         1.8420    0.1410   -1.0810 h4        1 AGE      0.216000
     28 H11        -1.6570   -0.5910   -1.3750 h1        1 AGE      0.077700
     29 H11A       -0.3150    0.2710   -2.2710 h1        1 AGE      0.077700
     30 H11B       -1.5620    1.2400   -1.3470 h1        1 AGE      0.077700
     31 H13         0.5510    0.1300    3.1000 ha        1 AGE      0.187000
     32 H14        -2.6610    0.3550    0.5840 ha        1 AGE      0.153000
     33 H15        -3.7680    0.3700    2.5880 ha        1 AGE      0.173000
     34 H151       -2.7690    0.1540    6.0200 hn        1 AGE      0.450800
     35 H16        -4.8670   -0.4290    5.6290 ho        1 AGE      0.460000
     36 H2          8.5450   -0.3640    4.4430 ha        1 AGE      0.140000
     37 H22        -3.5180    1.3840    5.1380 hn        1 AGE      0.450800
     38 H4          5.0740    2.0270    3.4940 ha        1 AGE      0.128500
@<TRIPOS>BOND
     1    1   15 1   
     2    1   16 1   
     3    1   17 1   
     4    2   10 ar  
     5    2   11 ar  
     6    2   36 1   
     7    3    7 1   
     8    3   21 1   
     9    3   34 1   
    10    3   37 1   
    11    4    5 ar  
    12    4   11 ar  
    13    4   38 1   
    14    5    6 ar  
    15    5   12 1   
    16    6   10 ar  
    17    6   22 1   
    18    7   35 1   
    19    8   21 2   
    20    9   13 2   
    21   10   23 1   
    22   11   24 1   
    23   12   13 1   
    24   12   25 1   
    25   12   26 1   
    26   13   14 1   
    27   14   15 2   
    28   14   18 1   
    29   15   27 1   
    30   16   28 1   
    31   16   29 1   
    32   16   30 1   
    33   17   18 2   
    34   17   19 1   
    35   18   31 1   
    36   19   20 2   
    37   19   32 1   
    38   20   21 1   
    39   20   33 1   
@<TRIPOS>SUBSTRUCTURE
     1 AGE         1 TEMP              0 ****  ****    0 ROOT
