@<TRIPOS>MOLECULE
AGF
   55    56     1     0     0
SMALL
bcc


@<TRIPOS>ATOM
      1 C1          1.0910   -1.0580    4.6550 c         1 AGF      0.725100
      2 O1          2.2960   -0.9520    4.9460 o         1 AGF     -0.602000
      3 O1A         0.1700   -0.5970    5.5910 os        1 AGF     -0.454900
      4 CB1         0.7460   -0.0810    6.7980 c3        1 AGF      0.193700
      5 CG1        -0.3570    0.4540    7.6490 ca        1 AGF     -0.079300
      6 CDB        -0.1480    0.5680    9.0290 ca        1 AGF     -0.115000
      7 CDL        -1.5750    0.8670    7.0980 ca        1 AGF     -0.115000
      8 CEB        -1.1450    1.0950    9.8470 ca        1 AGF     -0.137000
      9 CEL        -2.5720    1.3900    7.9220 ca        1 AGF     -0.137000
     10 CZ1        -2.3580    1.5060    9.2950 ca        1 AGF     -0.140000
     11 C2          0.5170   -0.9100    1.2050 c         1 AGF      0.624100
     12 O2         -0.6440   -0.4790    1.4110 o         1 AGF     -0.672100
     13 CA2         1.2170   -1.7580    2.3170 c3        1 AGF     -0.004300
     14 CB2         1.3050   -3.2010    1.8190 c3        1 AGF     -0.093100
     15 N2          0.4900   -1.6790    3.5800 n         1 AGF     -0.476900
     16 CA3         0.7550   -0.0850   -1.1090 c3        1 AGF     -0.198200
     17 P3          2.0520    0.1930   -2.2220 p5        1 AGF      1.334600
     18 O1P         1.8980    1.5620   -2.7790 o         1 AGF     -0.868500
     19 O2P         3.3270   -0.2550   -1.5930 o         1 AGF     -0.868500
     20 O3P         1.7620   -0.8700   -3.4370 os        1 AGF     -0.576200
     21 CA4         0.6820   -0.6000   -4.2960 c3        1 AGF      0.088100
     22 C4         -0.3470   -1.7670   -4.2230 c         1 AGF      0.907600
     23 O41        -1.0340   -1.8630   -3.1630 o         1 AGF     -0.857300
     24 O42        -0.4970   -2.5420   -5.2120 o         1 AGF     -0.857300
     25 CB4         1.2210   -0.4030   -5.7210 c3        1 AGF     -0.065100
     26 CG4         0.7040    0.8170   -6.3980 ca        1 AGF     -0.031300
     27 CDE         0.0690    0.7140   -7.6430 ca        1 AGF     -0.133000
     28 CDO         0.8740    2.0880   -5.8260 ca        1 AGF     -0.133000
     29 CEE        -0.3720    1.8540   -8.3130 ca        1 AGF     -0.154000
     30 CEO         0.4310    3.2240   -6.5000 ca        1 AGF     -0.154000
     31 CZ4        -0.1880    3.1130   -7.7470 ca        1 AGF     -0.175000
     32 HB11        1.3000   -0.9090    7.3160 h1        1 AGF      0.059200
     33 HB12        1.4740    0.7360    6.5370 h1        1 AGF      0.059200
     34 HD11        0.8070    0.2400    9.4660 ha        1 AGF      0.146000
     35 HD12       -1.7390    0.7690    6.0130 ha        1 AGF      0.146000
     36 HE11       -0.9740    1.1860   10.9290 ha        1 AGF      0.124500
     37 HE12       -3.5280    1.7110    7.4830 ha        1 AGF      0.124500
     38 HZ1        -3.1440    1.9210    9.9420 ha        1 AGF      0.119000
     39 HA2         2.2660   -1.3660    2.4810 h1        1 AGF      0.088700
     40 HB21        0.2940   -3.5920    1.5540 hc        1 AGF      0.049367
     41 HB22        1.9490   -3.2300    0.9060 hc        1 AGF      0.049367
     42 HB23        1.7570   -3.8620    2.5970 hc        1 AGF      0.049367
     43 HN2        -0.4890   -1.4820    3.4630 hn        1 AGF      0.331500
     44 HA31       -0.0290   -0.7480   -1.5940 h1        1 AGF      0.106700
     45 HA32        0.2340    0.8780   -0.8650 h1        1 AGF      0.106700
     46 HN3         2.1920   -1.0260    0.0260 hn        1 AGF      0.344500
     47 HA4         0.1640    0.3420   -3.9500 h1        1 AGF      0.028700
     48 HB41        2.3410   -0.3330   -5.6800 hc        1 AGF      0.063200
     49 HB42        0.9590   -1.3190   -6.3180 hc        1 AGF      0.063200
     50 HD41       -0.0960   -0.2810   -8.0830 ha        1 AGF      0.172000
     51 HD42        1.3470    2.1760   -4.8250 ha        1 AGF      0.172000
     52 HE41       -0.8720    1.7580   -9.2870 ha        1 AGF      0.102000
     53 HE42        0.5660    4.2130   -6.0420 ha        1 AGF      0.102000
     54 HZ4        -0.5350    4.0120   -8.2730 ha        1 AGF      0.092000
     55 N3          1.2460   -0.6870    0.0880 n         1 AGF     -0.475900
@<TRIPOS>BOND
     1    1    2 2   
     2    1    3 1   
     3    1   15 1   
     4    3    4 1   
     5    4    5 1   
     6    4   32 1   
     7    4   33 1   
     8    5    6 ar  
     9    5    7 ar  
    10    6    8 ar  
    11    6   34 1   
    12    7    9 ar  
    13    7   35 1   
    14    8   10 ar  
    15    8   36 1   
    16    9   10 ar  
    17    9   37 1   
    18   10   38 1   
    19   11   12 2   
    20   11   13 1   
    21   11   55 1   
    22   13   14 1   
    23   13   15 1   
    24   13   39 1   
    25   14   40 1   
    26   14   41 1   
    27   14   42 1   
    28   15   43 1   
    29   16   17 1   
    30   16   44 1   
    31   16   45 1   
    32   16   55 1   
    33   17   18 1   
    34   17   19 1   
    35   17   20 1   
    36   20   21 1   
    37   21   22 1   
    38   21   25 1   
    39   21   47 1   
    40   22   23 1   
    41   22   24 1   
    42   25   26 1   
    43   25   48 1   
    44   25   49 1   
    45   26   27 ar  
    46   26   28 ar  
    47   27   29 ar  
    48   27   50 1   
    49   28   30 ar  
    50   28   51 1   
    51   29   31 ar  
    52   29   52 1   
    53   30   31 ar  
    54   30   53 1   
    55   31   54 1   
    56   46   55 1   
@<TRIPOS>SUBSTRUCTURE
     1 AGF         1 TEMP              0 ****  ****    0 ROOT
