@<TRIPOS>MOLECULE
AGF
   55    50     1     0     0
SMALL
bcc


@<TRIPOS>ATOM
      1 C1         -0.0590   -3.6750    2.7880 c1        1 AGF      0.389000
      2 O1          0.8800   -4.4060    2.5470 o         1 AGF     -0.425000
      3 O1A        -0.7940   -3.8430    3.9830 o         1 AGF     -0.300000
      4 CB1        -0.4100   -4.9950    4.7360 c3        1 AGF      0.038000
      5 CG1        -1.3120   -5.1300    5.9700 c2        1 AGF     -0.071000
      6 CDB        -2.5300   -5.7980    5.8700 c2        1 AGF     -0.098000
      7 CDL        -0.8600   -4.6790    7.2190 c1        1 AGF     -0.134000
      8 CEB        -3.2980   -6.0160    7.0070 c1        1 AGF     -0.133000
      9 CEL        -1.6170   -4.8940    8.3400 c1        1 AGF     -0.151250
     10 CZ1        -2.8520   -5.5700    8.2390 c1        1 AGF     -0.151250
     11 C2          0.0630   -1.2440   -0.0150 c1        1 AGF      0.284000
     12 O2         -0.1720   -0.2620    0.7330 o         1 AGF     -0.440000
     13 CA2         0.1440   -2.6330    0.5680 c2        1 AGF     -0.008000
     14 CB2        -0.6390   -3.5890   -0.3000 c3        1 AGF     -0.245000
     15 N2         -0.4000   -2.6320    1.8780 n3        1 AGF     -0.305000
     16 CA3        -0.2560    0.0340   -2.1360 c3        1 AGF     -0.717000
     17 N3          0.3720   -1.0290   -1.4210 n3        1 AGF     -0.281000
     18 P3          1.0000    0.9370   -3.1150 p5        1 AGF      1.971000
     19 O1P         2.0730    1.4600   -2.1950 o         1 AGF     -0.865000
     20 O2P         1.6150    0.0070   -4.1250 o         1 AGF     -0.865000
     21 O3P         0.3010    2.1610   -3.8730 os        1 AGF     -0.736000
     22 CA4         1.0680    3.3170   -4.1500 c3        1 AGF      0.028000
     23 C4          1.5510    3.9110   -2.8710 c2        1 AGF      0.323000
     24 O41         2.7670    4.1320   -2.7070 o         1 AGF     -0.595000
     25 O42         0.7530    4.0960   -1.9310 o         1 AGF     -0.595000
     26 CB4         0.2030    4.3320   -4.8880 c3        1 AGF     -0.140000
     27 CG4         0.8750    5.7390   -4.8210 c2        1 AGF     -0.019000
     28 CDE         1.6050    6.2190   -5.9190 c2        1 AGF     -0.137000
     29 CDO         0.6420    6.5690   -3.7190 c1        1 AGF     -0.123000
     30 CEE         2.0960    7.5190   -5.9110 c1        1 AGF     -0.155000
     31 CEO         1.1340    7.8690   -3.7130 c1        1 AGF     -0.151250
     32 CZ4         1.8630    8.3490   -4.8090 c1        1 AGF     -0.151250
     33 HB11       -0.5010   -5.7880    4.1800 h1        1 AGF      0.098000
     34 HB12        0.5440   -4.9000    5.0280 h1        1 AGF      0.098000
     35 HD11       -2.8480   -6.1150    4.9920 ha        1 AGF      0.163000
     36 HD12       -0.0070   -4.2110    7.2900 ha        1 AGF      0.128000
     37 HE11       -4.1600   -6.4880    6.9360 ha        1 AGF      0.129000
     38 HE12       -1.3020   -4.5790    9.2080 ha        1 AGF      0.108750
     39 HZ1        -3.4240   -5.6800    9.0400 ha        1 AGF      0.108750
     40 HA2         1.0800   -2.9180    0.6040 h4        1 AGF      0.120000
     41 HB21       -1.0860   -4.2440    0.2620 hc        1 AGF      0.093333
     42 HB22       -1.3130   -3.0840   -0.8210 hc        1 AGF      0.093333
     43 HB23       -0.0290   -4.0460   -0.9120 hc        1 AGF      0.093333
     44 HN2        -0.9180   -1.9400    2.1530 hn        1 AGF      0.259000
     45 HA31       -0.9330   -0.3330   -2.7350 h1        1 AGF      0.145500
     46 HA32       -0.6770    0.6440   -1.5070 h1        1 AGF      0.145500
     47 HN3         0.9530   -1.5890   -1.8520 hn        1 AGF      0.261000
     48 HA4         1.8330    3.0750   -4.7050 h1        1 AGF      0.080000
     49 HB41        0.1070    4.0600   -5.8190 hc        1 AGF      0.093500
     50 HB42       -0.6710    4.3720   -4.4730 hc        1 AGF      0.093500
     51 HD41        1.7050    5.6680   -6.7110 ha        1 AGF      0.133000
     52 HD42        0.1040    6.2430   -2.9620 ha        1 AGF      0.199000
     53 HE41        2.5510    7.8740   -6.7010 ha        1 AGF      0.098000
     54 HE42        0.9720    8.4440   -2.9510 ha        1 AGF      0.108750
     55 HZ4         2.2150    9.2790   -4.8030 ha        1 AGF      0.108750
@<TRIPOS>BOND
     1    1    2 1   
     2    1   15 1   
     3    3    4 1   
     4    4    5 1   
     5    4   33 1   
     6    4   34 1   
     7    5    6 1   
     8    5    7 1   
     9    6    8 1   
    10    6   35 1   
    11    7   36 1   
    12    8   37 1   
    13    9   10 1   
    14    9   38 1   
    15   10   39 1   
    16   11   12 1   
    17   11   17 1   
    18   13   14 1   
    19   13   15 1   
    20   13   40 1   
    21   14   41 1   
    22   14   42 1   
    23   14   43 1   
    24   15   44 1   
    25   16   17 1   
    26   16   18 1   
    27   16   45 1   
    28   16   46 1   
    29   17   47 1   
    30   18   19 1   
    31   18   20 1   
    32   18   21 1   
    33   21   22 1   
    34   22   23 1   
    35   22   26 1   
    36   22   48 1   
    37   23   24 1   
    38   23   25 1   
    39   26   27 1   
    40   26   49 1   
    41   26   50 1   
    42   27   28 1   
    43   27   29 1   
    44   28   30 1   
    45   28   51 1   
    46   29   52 1   
    47   30   53 1   
    48   31   32 1   
    49   31   54 1   
    50   32   55 1   
@<TRIPOS>SUBSTRUCTURE
     1 AGF         1 TEMP              0 ****  ****    0 ROOT
