@<TRIPOS>MOLECULE
AGG
   65    66     1     0     0
SMALL
bcc


@<TRIPOS>ATOM
      1 C1          5.3520   -2.1500   -6.1180 c3        1 AGG     -0.090100
      2 C2          4.1060   -1.3150   -6.2690 c3        1 AGG     -0.077400
      3 C3          3.6090   -0.8140   -4.9300 c3        1 AGG     -0.036400
      4 C4          2.3590    0.0150   -5.0830 c3        1 AGG     -0.353600
      5 S1          1.7210    0.5310   -3.5770 s6        1 AGG      1.453900
      6 O1          1.7900   -0.5530   -2.6590 o         1 AGG     -0.687300
      7 O2          2.4510    1.6880   -3.1740 o         1 AGG     -0.687300
      8 N           0.2140    0.9460   -3.8890 n3        1 AGG     -0.903100
      9 CA         -0.8200   -0.0090   -4.2230 c3        1 AGG      0.091500
     10 CB         -2.1610    0.2640   -3.5430 c3        1 AGG     -0.038100
     11 CG         -2.1580    0.3270   -2.0580 ca        1 AGG     -0.082300
     12 CD1        -3.1660    1.0650   -1.4160 ca        1 AGG     -0.106500
     13 CE1        -3.2360    1.1360   -0.0310 ca        1 AGG     -0.177500
     14 CZ         -2.2790    0.4520    0.7380 ca        1 AGG      0.094100
     15 OH         -2.4450    0.5580    2.1120 os        1 AGG     -0.343900
     16 CE2        -1.2680   -0.2890    0.1180 ca        1 AGG     -0.177500
     17 CD2        -1.2150   -0.3450   -1.2750 ca        1 AGG     -0.106500
     18 C          -1.0610   -0.0500   -5.7800 c         1 AGG      0.901600
     19 O          -0.3650   -0.8840   -6.4230 o         1 AGG     -0.822800
     20 OXT        -1.8990    0.7460   -6.2730 o         1 AGG     -0.822800
     21 C11        -1.3270    0.1310    2.8940 c3        1 AGG      0.130400
     22 C12        -1.6240    0.5590    4.3210 c3        1 AGG     -0.085400
     23 C13        -0.4960    0.1420    5.2390 c3        1 AGG     -0.079400
     24 C14        -0.7710    0.5690    6.6660 c3        1 AGG     -0.074400
     25 C15         0.3670    0.2030    7.6050 c3        1 AGG     -0.065700
     26 C16         0.2450    0.9820    8.9070 c3        1 AGG     -0.074400
     27 C17         1.3520    0.5920    9.8840 c3        1 AGG      0.163300
     28 N18         1.4370   -0.8370   10.1180 n3        1 AGG     -0.819200
     29 C18         1.4920   -1.6290    8.9040 c3        1 AGG      0.163300
     30 C19         0.3870   -1.2870    7.9070 c3        1 AGG     -0.074400
     31 H11         5.7020   -2.5100   -7.1150 hc        1 AGG      0.024700
     32 H12         6.1730   -1.5560   -5.6490 hc        1 AGG      0.024700
     33 H13         5.1520   -3.0400   -5.4720 hc        1 AGG      0.024700
     34 H21         3.2990   -1.9200   -6.7610 hc        1 AGG      0.046200
     35 H22         4.3170   -0.4410   -6.9400 hc        1 AGG      0.046200
     36 H31         3.3960   -1.6900   -4.2580 hc        1 AGG      0.045200
     37 H32         4.4110   -0.2000   -4.4390 hc        1 AGG      0.045200
     38 H41         2.5860    0.8950   -5.7390 h1        1 AGG      0.142700
     39 H42         1.5960   -0.5860   -5.6750 h1        1 AGG      0.142700
     40 H          -0.0640    1.8850   -4.0490 hn        1 AGG      0.454800
     41 HA         -0.4500   -1.0320   -3.9110 h1        1 AGG      0.051700
     42 HB1        -2.5800    1.2180   -3.9680 hc        1 AGG      0.068200
     43 HB2        -2.8540   -0.5620   -3.8660 hc        1 AGG      0.068200
     44 HD1        -3.9110    1.6000   -2.0240 ha        1 AGG      0.148000
     45 HE1        -4.0230    1.7140    0.4710 ha        1 AGG      0.132000
     46 HE2        -0.5110   -0.8240    0.7070 ha        1 AGG      0.132000
     47 HD2        -0.4010   -0.9190   -1.7520 ha        1 AGG      0.148000
     48 H111       -1.2310   -0.9850    2.8230 h1        1 AGG      0.038700
     49 H112       -0.3850    0.6100    2.5170 h1        1 AGG      0.038700
     50 H121       -1.7600    1.6720    4.3530 hc        1 AGG      0.052200
     51 H122       -2.5890    0.0970    4.6550 hc        1 AGG      0.052200
     52 H131       -0.3670   -0.9720    5.1940 hc        1 AGG      0.041700
     53 H132        0.4650    0.6020    4.8870 hc        1 AGG      0.041700
     54 H141       -0.9250    1.6810    6.6920 hc        1 AGG      0.041700
     55 H142       -1.7220    0.0940    7.0250 hc        1 AGG      0.041700
     56 H15         1.3420    0.4810    7.1150 hc        1 AGG      0.047700
     57 H161        0.3190    2.0810    8.7060 hc        1 AGG      0.047950
     58 H162       -0.7570    0.7840    9.3680 hc        1 AGG      0.047950
     59 H171        2.3260    1.0140    9.4930 h1        1 AGG      0.024450
     60 H172        1.1490    1.0790   10.8800 h1        1 AGG      0.024450
     61 H18         2.2380   -1.0380   10.6880 hn        1 AGG      0.356800
     62 H181        2.4860   -1.5200    8.3750 h1        1 AGG      0.024450
     63 H182        1.3890   -2.7080    9.2080 h1        1 AGG      0.024450
     64 H191       -0.6070   -1.6010    8.3200 hc        1 AGG      0.047950
     65 H192        0.5660   -1.8680    6.9660 hc        1 AGG      0.047950
@<TRIPOS>BOND
     1    1    2 1   
     2    1   31 1   
     3    1   32 1   
     4    1   33 1   
     5    2    3 1   
     6    2   34 1   
     7    2   35 1   
     8    3    4 1   
     9    3   36 1   
    10    3   37 1   
    11    4    5 1   
    12    4   38 1   
    13    4   39 1   
    14    5    6 2   
    15    5    7 2   
    16    5    8 1   
    17    8    9 1   
    18    8   40 1   
    19    9   10 1   
    20    9   18 1   
    21    9   41 1   
    22   10   11 1   
    23   10   42 1   
    24   10   43 1   
    25   11   12 ar  
    26   11   17 ar  
    27   12   13 ar  
    28   12   44 1   
    29   13   14 ar  
    30   13   45 1   
    31   14   15 1   
    32   14   16 ar  
    33   15   21 1   
    34   16   17 ar  
    35   16   46 1   
    36   17   47 1   
    37   18   19 1   
    38   18   20 1   
    39   21   22 1   
    40   21   48 1   
    41   21   49 1   
    42   22   23 1   
    43   22   50 1   
    44   22   51 1   
    45   23   24 1   
    46   23   52 1   
    47   23   53 1   
    48   24   25 1   
    49   24   54 1   
    50   24   55 1   
    51   25   26 1   
    52   25   30 1   
    53   25   56 1   
    54   26   27 1   
    55   26   57 1   
    56   26   58 1   
    57   27   28 1   
    58   27   59 1   
    59   27   60 1   
    60   28   29 1   
    61   28   61 1   
    62   29   30 1   
    63   29   62 1   
    64   29   63 1   
    65   30   64 1   
    66   30   65 1   
@<TRIPOS>SUBSTRUCTURE
     1 AGG         1 TEMP              0 ****  ****    0 ROOT
