@<TRIPOS>MOLECULE
AGG
   66    67     1     0     0
SMALL
bcc


@<TRIPOS>ATOM
      1 C1          1.3760   -2.3450   -1.8430 c3        1 AGG     -0.096100
      2 C2          2.6040   -1.8190   -1.1460 c3        1 AGG     -0.074400
      3 C3          2.2540   -1.2360    0.2070 c3        1 AGG     -0.050400
      4 C4          3.4920   -0.7010    0.9040 c3        1 AGG     -0.397600
      5 S1          3.1270   -0.0870    2.4040 s6        1 AGG      1.384900
      6 O1          2.5670    1.1850    2.3610 o         1 AGG     -0.599800
      7 O2          2.5540   -1.0230    3.2640 o         1 AGG     -0.599800
      8 N           4.7700    0.1510    3.1310 n4        1 AGG     -0.713900
      9 CA          5.6570    1.0130    2.2950 c3        1 AGG     -0.061500
     10 CB          6.7680    1.6800    3.0970 c3        1 AGG     -0.036100
     11 CG          6.2430    2.4910    4.2270 ca        1 AGG     -0.159300
     12 CD1         6.2610    1.9820    5.5330 ca        1 AGG     -0.098500
     13 CE1         5.7740    2.7310    6.5960 ca        1 AGG     -0.178000
     14 CZ          5.2590    4.0200    6.3520 ca        1 AGG      0.138100
     15 OH          4.7930    4.6740    7.4710 os        1 AGG     -0.327900
     16 CE2         5.2430    4.5440    5.0530 ca        1 AGG     -0.178000
     17 CD2         5.7380    3.7750    4.0010 ca        1 AGG     -0.098500
     18 C           6.3470    0.1240    1.1590 c         1 AGG      0.918600
     19 O           6.3650   -1.1150    1.3940 o         1 AGG     -0.765800
     20 OXT         6.7480    0.7510    0.1650 o         1 AGG     -0.765800
     21 C11         4.3020    6.0060    7.2620 c3        1 AGG      0.127400
     22 C12         3.8840    6.5100    8.6330 c3        1 AGG     -0.086400
     23 C13         3.3340    7.9160    8.5270 c3        1 AGG     -0.078400
     24 C14         2.9170    8.4340    9.8870 c3        1 AGG     -0.074400
     25 C15         2.3220    9.8320    9.8120 c3        1 AGG     -0.064700
     26 C16         1.5760   10.1520   11.0990 c3        1 AGG     -0.074900
     27 C17         1.0180   11.5730   11.0710 c3        1 AGG      0.163800
     28 N18         2.0200   12.5750   10.7670 n3        1 AGG     -0.819200
     29 C18         2.7920   12.2890    9.5750 c3        1 AGG      0.163800
     30 C19         3.3940   10.8840    9.5700 c3        1 AGG     -0.074900
     31 H11         0.6320   -1.5290   -2.0060 hc        1 AGG      0.039033
     32 H12         0.8900   -3.1480   -1.2370 hc        1 AGG      0.039033
     33 H13         1.6550   -2.7720   -2.8360 hc        1 AGG      0.039033
     34 H21         3.0930   -1.0310   -1.7780 hc        1 AGG      0.057200
     35 H22         3.3520   -2.6460   -1.0140 hc        1 AGG      0.057200
     36 H31         1.7780   -2.0300    0.8440 hc        1 AGG      0.057200
     37 H32         1.5100   -0.4050    0.0710 hc        1 AGG      0.057200
     38 H41         3.9830    0.0550    0.2190 h1        1 AGG      0.189200
     39 H42         4.2710   -1.5330    0.9160 h1        1 AGG      0.189200
     40 H           5.2700   -0.7560    3.1930 hn        1 AGG      0.465800
     41 HA          5.0120    1.8060    1.8200 hx        1 AGG      0.091700
     42 HB1         7.3340    2.3290    2.3710 hc        1 AGG      0.088200
     43 HB2         7.4850    0.9000    3.4710 hc        1 AGG      0.088200
     44 HD1         6.6890    0.9860    5.7260 ha        1 AGG      0.138500
     45 HE1         5.7890    2.3420    7.6240 ha        1 AGG      0.149000
     46 HE2         4.8510    5.5500    4.8510 ha        1 AGG      0.149000
     47 HD2         5.7320    4.1860    2.9790 ha        1 AGG      0.138500
     48 H111        3.4290    5.9760    6.5580 h1        1 AGG      0.041700
     49 H112        5.1170    6.6430    6.8270 h1        1 AGG      0.041700
     50 H121        4.7680    6.4880    9.3220 hc        1 AGG      0.059200
     51 H122        3.1100    5.8210    9.0620 hc        1 AGG      0.059200
     52 H131        2.4530    7.9250    7.8320 hc        1 AGG      0.042200
     53 H132        4.1130    8.5920    8.0860 hc        1 AGG      0.042200
     54 H141        2.1560    7.7360   10.3280 hc        1 AGG      0.044700
     55 H142        3.8020    8.4400   10.5760 hc        1 AGG      0.044700
     56 H15         1.5880    9.8670    8.9570 hc        1 AGG      0.045700
     57 H161        2.2690   10.0320   11.9720 hc        1 AGG      0.047950
     58 H162        0.7240    9.4380   11.2360 hc        1 AGG      0.047950
     59 H171        0.1600   11.5970   10.3340 h1        1 AGG      0.026700
     60 H172        0.5980   11.8200   12.0870 h1        1 AGG      0.026700
     61 H18         1.5870   13.4760   10.6840 hn        1 AGG      0.361800
     62 H181        2.1770   12.4080    8.6330 h1        1 AGG      0.026700
     63 H182        3.6280   13.0430    9.5300 h1        1 AGG      0.026700
     64 H191        4.1820   10.8070   10.3640 hc        1 AGG      0.047950
     65 H192        3.8860   10.7130    8.5790 hc        1 AGG      0.047950
     66 H2          4.7190    0.5410    4.0740 hn        1 AGG      0.465800
@<TRIPOS>BOND
     1    1    2 1   
     2    1   31 1   
     3    1   32 1   
     4    1   33 1   
     5    2    3 1   
     6    2   34 1   
     7    2   35 1   
     8    3    4 1   
     9    3   36 1   
    10    3   37 1   
    11    4    5 1   
    12    4   38 1   
    13    4   39 1   
    14    5    6 2   
    15    5    7 2   
    16    5    8 1   
    17    8    9 1   
    18    8   40 1   
    19    8   66 1   
    20    9   10 1   
    21    9   18 1   
    22    9   41 1   
    23   10   11 1   
    24   10   42 1   
    25   10   43 1   
    26   11   12 ar  
    27   11   17 ar  
    28   12   13 ar  
    29   12   44 1   
    30   13   14 ar  
    31   13   45 1   
    32   14   15 1   
    33   14   16 ar  
    34   15   21 1   
    35   16   17 ar  
    36   16   46 1   
    37   17   47 1   
    38   18   19 1   
    39   18   20 1   
    40   21   22 1   
    41   21   48 1   
    42   21   49 1   
    43   22   23 1   
    44   22   50 1   
    45   22   51 1   
    46   23   24 1   
    47   23   52 1   
    48   23   53 1   
    49   24   25 1   
    50   24   54 1   
    51   24   55 1   
    52   25   26 1   
    53   25   30 1   
    54   25   56 1   
    55   26   27 1   
    56   26   57 1   
    57   26   58 1   
    58   27   28 1   
    59   27   59 1   
    60   27   60 1   
    61   28   29 1   
    62   28   61 1   
    63   29   30 1   
    64   29   62 1   
    65   29   63 1   
    66   30   64 1   
    67   30   65 1   
@<TRIPOS>SUBSTRUCTURE
     1 AGG         1 TEMP              0 ****  ****    0 ROOT
