@<TRIPOS>MOLECULE
AGG
   66    67     1     0     0
SMALL
bcc


@<TRIPOS>ATOM
      1 C1          1.4090   -2.3060   -1.8980 c3        1 AGG     -0.096100
      2 C2          2.6320   -1.7960   -1.1800 c3        1 AGG     -0.074400
      3 C3          2.2650   -1.2090    0.1680 c3        1 AGG     -0.050400
      4 C4          3.4980   -0.6910    0.8860 c3        1 AGG     -0.397600
      5 S1          3.1150   -0.0740    2.3810 s6        1 AGG      1.384900
      6 O1          2.5720    1.2050    2.3300 o         1 AGG     -0.599800
      7 O2          2.5160   -1.0040    3.2290 o         1 AGG     -0.599800
      8 N           4.7490    0.1430    3.1360 ny        1 AGG     -0.713900
      9 CA          5.6590    0.9960    2.3150 c3        1 AGG     -0.061500
     10 CB          6.7650    1.6490    3.1370 c3        1 AGG     -0.036100
     11 CG          6.2310    2.4630    4.2600 ca        1 AGG     -0.159300
     12 CD1         6.2200    1.9500    5.5650 ca        1 AGG     -0.098500
     13 CE1         5.7250    2.7020    6.6220 ca        1 AGG     -0.178000
     14 CZ          5.2310    3.9990    6.3730 ca        1 AGG      0.138100
     15 OH          4.7550    4.6560    7.4860 os        1 AGG     -0.327900
     16 CE2         5.2440    4.5270    5.0750 ca        1 AGG     -0.178000
     17 CD2         5.7470    3.7550    4.0300 ca        1 AGG     -0.098500
     18 C           6.3580    0.1010    1.1900 c         1 AGG      0.919600
     19 O           6.3570   -1.1390    1.4230 o         1 AGG     -0.765800
     20 OXT         6.7830    0.7250    0.2040 o         1 AGG     -0.765800
     21 C11         4.2860    5.9950    7.2740 c3        1 AGG      0.128400
     22 C12         3.8520    6.5000    8.6390 c3        1 AGG     -0.086400
     23 C13         3.3270    7.9150    8.5300 c3        1 AGG     -0.078400
     24 C14         2.8930    8.4350    9.8840 c3        1 AGG     -0.074400
     25 C15         2.3240    9.8420    9.8050 c3        1 AGG     -0.064700
     26 C16         1.5580   10.1680   11.0790 c3        1 AGG     -0.074900
     27 C17         1.0240   11.5990   11.0480 c3        1 AGG      0.163800
     28 N18         2.0490   12.5850   10.7680 n7        1 AGG     -0.819200
     29 C18         2.8390   12.2920    9.5890 c3        1 AGG      0.163800
     30 C19         3.4170   10.8770    9.5890 c3        1 AGG     -0.074900
     31 H11         0.6770   -1.4800   -2.0720 hc        1 AGG      0.039033
     32 H12         1.6990   -2.7350   -2.8880 hc        1 AGG      0.039033
     33 H13         0.9030   -3.1040   -1.3020 hc        1 AGG      0.039033
     34 H21         3.1400   -1.0130   -1.8020 hc        1 AGG      0.057200
     35 H22         3.3660   -2.6320   -1.0360 hc        1 AGG      0.057200
     36 H31         1.5340   -0.3700    0.0210 hc        1 AGG      0.057200
     37 H32         1.7690   -1.9990    0.7950 hc        1 AGG      0.057200
     38 H41         4.2670   -1.5310    0.9100 h1        1 AGG      0.189200
     39 H42         4.0100    0.0610    0.2100 h1        1 AGG      0.189200
     40 H           4.6870    0.5330    4.0780 hn        1 AGG      0.465800
     41 HA          5.0320    1.7970    1.8310 hx        1 AGG      0.091700
     42 HB1         7.3510    2.2920    2.4220 hc        1 AGG      0.088200
     43 HB2         7.4660    0.8590    3.5210 hc        1 AGG      0.088200
     44 HD1         6.6320    0.9480    5.7630 ha        1 AGG      0.138500
     45 HE1         5.7180    2.3100    7.6490 ha        1 AGG      0.149000
     46 HE2         4.8690    5.5390    4.8700 ha        1 AGG      0.149000
     47 HD2         5.7640    4.1690    3.0090 ha        1 AGG      0.138500
     48 H111        5.1170    6.6210    6.8550 h1        1 AGG      0.041700
     49 H112        3.4250    5.9790    6.5550 h1        1 AGG      0.041700
     50 H121        4.7230    6.4620    9.3440 hc        1 AGG      0.059200
     51 H122        3.0610    5.8220    9.0520 hc        1 AGG      0.059200
     52 H131        4.1250    8.5810    8.1050 hc        1 AGG      0.042200
     53 H132        2.4590    7.9420    7.8190 hc        1 AGG      0.042200
     54 H141        3.7650    8.4220   10.5900 hc        1 AGG      0.044700
     55 H142        2.1130    7.7470   10.3070 hc        1 AGG      0.044700
     56 H15         1.6070    9.8940    8.9370 hc        1 AGG      0.045700
     57 H161        2.2320   10.0330   11.9650 hc        1 AGG      0.047950
     58 H162        0.6920    9.4680   11.1970 hc        1 AGG      0.047950
     59 H171        0.5900   11.8480   12.0570 h1        1 AGG      0.026700
     60 H172        0.1810   11.6410   10.2950 h1        1 AGG      0.026700
     61 H18         1.6330   13.4940   10.6820 hn        1 AGG      0.361800
     62 H181        3.6880   13.0320    9.5650 h1        1 AGG      0.026700
     63 H182        2.2440   12.4260    8.6370 h1        1 AGG      0.026700
     64 H191        4.1890   10.7830   10.3970 hc        1 AGG      0.047950
     65 H192        3.9250   10.7020    8.6060 hc        1 AGG      0.047950
     66 H2          5.2370   -0.7690    3.2040 hn        1 AGG      0.465800
@<TRIPOS>BOND
     1    1    2 1   
     2    1   31 1   
     3    1   32 1   
     4    1   33 1   
     5    2    3 1   
     6    2   34 1   
     7    2   35 1   
     8    3    4 1   
     9    3   36 1   
    10    3   37 1   
    11    4    5 1   
    12    4   38 1   
    13    4   39 1   
    14    5    6 2   
    15    5    7 2   
    16    5    8 1   
    17    8    9 1   
    18    8   40 1   
    19    8   66 1   
    20    9   10 1   
    21    9   18 1   
    22    9   41 1   
    23   10   11 1   
    24   10   42 1   
    25   10   43 1   
    26   11   12 ar  
    27   11   17 ar  
    28   12   13 ar  
    29   12   44 1   
    30   13   14 ar  
    31   13   45 1   
    32   14   15 1   
    33   14   16 ar  
    34   15   21 1   
    35   16   17 ar  
    36   16   46 1   
    37   17   47 1   
    38   18   19 1   
    39   18   20 1   
    40   21   22 1   
    41   21   48 1   
    42   21   49 1   
    43   22   23 1   
    44   22   50 1   
    45   22   51 1   
    46   23   24 1   
    47   23   52 1   
    48   23   53 1   
    49   24   25 1   
    50   24   54 1   
    51   24   55 1   
    52   25   26 1   
    53   25   30 1   
    54   25   56 1   
    55   26   27 1   
    56   26   57 1   
    57   26   58 1   
    58   27   28 1   
    59   27   59 1   
    60   27   60 1   
    61   28   29 1   
    62   28   61 1   
    63   29   30 1   
    64   29   62 1   
    65   29   63 1   
    66   30   64 1   
    67   30   65 1   
@<TRIPOS>SUBSTRUCTURE
     1 AGG         1 TEMP              0 ****  ****    0 ROOT
