@<TRIPOS>MOLECULE
AGG
   66    67     1     0     0
SMALL
bcc


@<TRIPOS>ATOM
      1 C1          1.4020   -2.3310   -1.8780 c3        1 AGG     -0.096100
      2 C2          2.6270   -1.8050   -1.1750 c3        1 AGG     -0.074400
      3 C3          2.2700   -1.2250    0.1780 c3        1 AGG     -0.050400
      4 C4          3.5040   -0.6900    0.8820 c3        1 AGG     -0.397600
      5 S1          3.1320   -0.0810    2.3810 s6        1 AGG      1.384900
      6 O1          2.5700    1.1910    2.3390 o         1 AGG     -0.599800
      7 O2          2.5560   -1.0200    3.2360 o         1 AGG     -0.599800
      8 N           4.7710    0.1580    3.1160 n4        1 AGG     -0.713900
      9 CA          5.6600    1.0240    2.2850 c3        1 AGG     -0.061500
     10 CB          6.7680    1.6910    3.0940 c3        1 AGG     -0.036100
     11 CG          6.2370    2.4970    4.2250 ca        1 AGG     -0.159300
     12 CD1         6.2490    1.9820    5.5290 ca        1 AGG     -0.098500
     13 CE1         5.7570    2.7260    6.5930 ca        1 AGG     -0.178000
     14 CZ          5.2430    4.0160    6.3520 ca        1 AGG      0.138100
     15 OH          4.7720    4.6660    7.4720 os        1 AGG     -0.327900
     16 CE2         5.2330    4.5460    5.0550 ca        1 AGG     -0.178000
     17 CD2         5.7330    3.7820    4.0030 ca        1 AGG     -0.098500
     18 C           6.3560    0.1400    1.1500 c         1 AGG      0.918600
     19 O           6.3760   -1.1000    1.3810 o         1 AGG     -0.765800
     20 OXT         6.7600    0.7710    0.1590 o         1 AGG     -0.765800
     21 C11         4.2860    6.0000    7.2680 c3        1 AGG      0.128400
     22 C12         3.8640    6.4980    8.6390 c3        1 AGG     -0.086400
     23 C13         3.3230    7.9070    8.5390 c3        1 AGG     -0.078400
     24 C14         2.9000    8.4200    9.9000 c3        1 AGG     -0.074400
     25 C15         2.3160    9.8220    9.8300 c3        1 AGG     -0.064700
     26 C16         1.5620   10.1380   11.1140 c3        1 AGG     -0.074900
     27 C17         1.0140   11.5630   11.0930 c3        1 AGG      0.163800
     28 N18         2.0260   12.5600   10.8040 n3        1 AGG     -0.819200
     29 C18         2.8060   12.2770    9.6160 c3        1 AGG      0.163800
     30 C19         3.3970   10.8680    9.6050 c3        1 AGG     -0.074900
     31 H11         1.6860   -2.7550   -2.8720 hc        1 AGG      0.039033
     32 H12         0.6570   -1.5150   -2.0420 hc        1 AGG      0.039033
     33 H13         0.9150   -3.1370   -1.2770 hc        1 AGG      0.039033
     34 H21         3.1170   -1.0140   -1.8030 hc        1 AGG      0.057200
     35 H22         3.3750   -2.6310   -1.0420 hc        1 AGG      0.057200
     36 H31         1.5240   -0.3960    0.0410 hc        1 AGG      0.057200
     37 H32         1.7920   -2.0220    0.8110 hc        1 AGG      0.057200
     38 H41         4.2840   -1.5200    0.8940 h1        1 AGG      0.189200
     39 H42         3.9970    0.0690    0.2000 h1        1 AGG      0.189200
     40 H           4.7160    0.5460    4.0600 hn        1 AGG      0.465800
     41 HA          5.0160    1.8180    1.8110 hx        1 AGG      0.091700
     42 HB1         7.4840    0.9100    3.4670 hc        1 AGG      0.088200
     43 HB2         7.3350    2.3430    2.3720 hc        1 AGG      0.088200
     44 HD1         6.6760    0.9850    5.7200 ha        1 AGG      0.138500
     45 HE1         5.7680    2.3320    7.6190 ha        1 AGG      0.149000
     46 HE2         4.8420    5.5530    4.8560 ha        1 AGG      0.149000
     47 HD2         5.7320    4.1970    2.9820 ha        1 AGG      0.138500
     48 H111        3.4160    5.9750    6.5600 h1        1 AGG      0.041700
     49 H112        5.1040    6.6360    6.8400 h1        1 AGG      0.041700
     50 H121        4.7440    6.4670    9.3330 hc        1 AGG      0.059200
     51 H122        3.0840    5.8110    9.0610 hc        1 AGG      0.059200
     52 H131        4.1080    8.5820    8.1070 hc        1 AGG      0.042200
     53 H132        2.4460    7.9270    7.8390 hc        1 AGG      0.042200
     54 H141        2.1310    7.7240   10.3310 hc        1 AGG      0.044700
     55 H142        3.7800    8.4140   10.5950 hc        1 AGG      0.044700
     56 H15         1.5890    9.8690    8.9710 hc        1 AGG      0.045700
     57 H161        0.7040    9.4290   11.2390 hc        1 AGG      0.047950
     58 H162        2.2470   10.0060   11.9920 hc        1 AGG      0.047950
     59 H171        0.1620   11.5990   10.3490 h1        1 AGG      0.026700
     60 H172        0.5880   11.8060   12.1070 h1        1 AGG      0.026700
     61 H18         1.6000   13.4650   10.7250 hn        1 AGG      0.361800
     62 H181        3.6470   13.0250    9.5840 h1        1 AGG      0.026700
     63 H182        2.1990   12.4080    8.6700 h1        1 AGG      0.026700
     64 H191        4.1780   10.7790   10.4040 hc        1 AGG      0.047950
     65 H192        3.8960   10.7000    8.6170 hc        1 AGG      0.047950
     66 H2          5.2730   -0.7480    3.1780 hn        1 AGG      0.465800
@<TRIPOS>BOND
     1    1    2 1   
     2    1   31 1   
     3    1   32 1   
     4    1   33 1   
     5    2    3 1   
     6    2   34 1   
     7    2   35 1   
     8    3    4 1   
     9    3   36 1   
    10    3   37 1   
    11    4    5 1   
    12    4   38 1   
    13    4   39 1   
    14    5    6 2   
    15    5    7 2   
    16    5    8 1   
    17    8    9 1   
    18    8   40 1   
    19    8   66 1   
    20    9   10 1   
    21    9   18 1   
    22    9   41 1   
    23   10   11 1   
    24   10   42 1   
    25   10   43 1   
    26   11   12 ar  
    27   11   17 ar  
    28   12   13 ar  
    29   12   44 1   
    30   13   14 ar  
    31   13   45 1   
    32   14   15 1   
    33   14   16 ar  
    34   15   21 1   
    35   16   17 ar  
    36   16   46 1   
    37   17   47 1   
    38   18   19 1   
    39   18   20 1   
    40   21   22 1   
    41   21   48 1   
    42   21   49 1   
    43   22   23 1   
    44   22   50 1   
    45   22   51 1   
    46   23   24 1   
    47   23   52 1   
    48   23   53 1   
    49   24   25 1   
    50   24   54 1   
    51   24   55 1   
    52   25   26 1   
    53   25   30 1   
    54   25   56 1   
    55   26   27 1   
    56   26   57 1   
    57   26   58 1   
    58   27   28 1   
    59   27   59 1   
    60   27   60 1   
    61   28   29 1   
    62   28   61 1   
    63   29   30 1   
    64   29   62 1   
    65   29   63 1   
    66   30   64 1   
    67   30   65 1   
@<TRIPOS>SUBSTRUCTURE
     1 AGG         1 TEMP              0 ****  ****    0 ROOT
