@<TRIPOS>MOLECULE
AGG
   65    63     1     0     0
SMALL
bcc


@<TRIPOS>ATOM
      1 C1          7.0050   -5.6550   -7.2730 c3        1 AGG     -0.207000
      2 C2          5.9970   -5.9040   -6.1180 c3        1 AGG     -0.158000
      3 C3          5.8800   -4.6240   -5.2510 c3        1 AGG     -0.108000
      4 C4          4.6100   -4.6990   -4.3910 c3        1 AGG     -0.893000
      5 S1          4.1290   -3.0180   -3.8620 s4        1 AGG      2.008800
      6 O1          4.4580   -2.7930   -2.4900 o         1 AGG     -0.568400
      7 O2          4.9280   -2.0220   -4.5050 o         1 AGG     -0.568400
      8 N           2.4870   -2.7610   -4.1460 n2        1 AGG     -0.852000
      9 CA          1.6400   -2.2920   -3.0840 c3        1 AGG     -0.059000
     10 CB          0.2470   -1.9980   -3.6340 c3        1 AGG     -0.106000
     11 CG         -0.5110   -1.0550   -2.6590 c2        1 AGG     -0.084000
     12 CD1        -1.0260   -1.5580   -1.4720 c2        1 AGG     -0.090000
     13 CE1        -1.8270   -0.7500   -0.6610 c1        1 AGG     -0.202000
     14 CZ         -2.1080    0.5610   -1.0410 c1        1 AGG      0.053000
     15 OH         -2.9400    1.3760   -0.2250 os        1 AGG     -0.228000
     16 CE2        -1.5950    1.0640   -2.2240 c1        1 AGG     -0.168000
     17 CD2        -0.7930    0.2560   -3.0390 c1        1 AGG     -0.107000
     18 C           1.5490   -3.3420   -2.0150 c2        1 AGG      0.317000
     19 O           2.1200   -3.1560   -0.8950 o         1 AGG     -0.562500
     20 OXT         0.9780   -4.4490   -2.2600 o         1 AGG     -0.562500
     21 C11        -2.2470    2.0200    0.8540 c3        1 AGG     -0.019000
     22 C12        -3.2360    2.7890    1.7000 c3        1 AGG     -0.165000
     23 C13        -2.6900    2.9320    3.1230 c3        1 AGG     -0.157000
     24 C14        -3.5790    3.9180    3.9160 c3        1 AGG     -0.153000
     25 C15        -3.1220    3.9420    5.4330 c3        1 AGG     -0.105000
     26 C16        -2.9220    5.3590    5.8520 c3        1 AGG     -0.153000
     27 C17        -2.6670    5.4900    7.3370 c3        1 AGG     -0.073500
     28 N18        -3.6790    4.8040    8.1410 n3        1 AGG     -0.298000
     29 C18        -3.8800    3.4020    7.7320 c3        1 AGG     -0.073500
     30 C19        -4.1380    3.2620    6.2430 c3        1 AGG     -0.153000
     31 H11         7.8940   -5.5130   -6.9030 hc        1 AGG      0.064333
     32 H12         6.7300   -4.8540   -7.7840 hc        1 AGG      0.064333
     33 H13         7.0200   -6.4380   -7.8740 hc        1 AGG      0.064333
     34 H21         6.3170   -6.6560   -5.5570 hc        1 AGG      0.084000
     35 H22         5.1260   -6.1250   -6.4900 hc        1 AGG      0.084000
     36 H31         6.6590   -4.5530   -4.6730 hc        1 AGG      0.083000
     37 H32         5.8340   -3.8450   -5.8300 hc        1 AGG      0.083000
     38 H41         4.7840   -5.2510   -3.6000 h1        1 AGG      0.178000
     39 H42         3.8980   -5.0910   -4.9040 h1        1 AGG      0.178000
     40 H           2.1240   -2.9710   -4.9640 hn        1 AGG      0.244000
     41 HA          2.0230   -1.4620   -2.6980 h1        1 AGG      0.102000
     42 HB1         0.3270   -1.5650   -4.5090 hc        1 AGG      0.090500
     43 HB2        -0.2520   -2.8390   -3.7300 hc        1 AGG      0.090500
     44 HD1        -0.9130   -2.4960   -1.2550 ha        1 AGG      0.201000
     45 HE1        -2.1920   -1.1070    0.1820 ha        1 AGG      0.127000
     46 HE2        -1.7630    1.9940   -2.4710 ha        1 AGG      0.131000
     47 HD2        -0.4470    0.6080   -3.8920 ha        1 AGG      0.125000
     48 H111       -1.5820    2.6350    0.4930 h1        1 AGG      0.077000
     49 H112       -1.8040    1.3460    1.4040 h1        1 AGG      0.077000
     50 H121       -3.3730    3.6740    1.3140 hc        1 AGG      0.092000
     51 H122       -4.0860    2.3080    1.7250 hc        1 AGG      0.092000
     52 H131       -2.6960    2.0510    3.5680 hc        1 AGG      0.081000
     53 H132       -1.7650    3.2770    3.0880 hc        1 AGG      0.081000
     54 H141       -4.5220    3.6280    3.8620 hc        1 AGG      0.081000
     55 H142       -3.4920    4.8100    3.5370 hc        1 AGG      0.081000
     56 H15        -2.2770    3.4640    5.5180 hc        1 AGG      0.087000
     57 H161       -3.7140    5.8700    5.6220 hc        1 AGG      0.087250
     58 H162       -2.1540    5.7280    5.3660 hc        1 AGG      0.087250
     59 H171       -2.6640    6.4600    7.5800 h1        1 AGG      0.063750
     60 H172       -1.7860    5.1080    7.5410 h1        1 AGG      0.063750
     61 H18        -3.4380    4.8330    9.0250 hn        1 AGG      0.151000
     62 H181       -4.6380    3.0400    8.2160 h1        1 AGG      0.063750
     63 H182       -3.0750    2.8840    7.9680 h1        1 AGG      0.063750
     64 H191       -5.0290    3.6490    6.0340 hc        1 AGG      0.087250
     65 H192       -4.1440    2.3030    6.0080 hc        1 AGG      0.087250
@<TRIPOS>BOND
     1    1    2 1   
     2    1   31 1   
     3    1   32 1   
     4    1   33 1   
     5    2    3 1   
     6    2   34 1   
     7    2   35 1   
     8    3    4 1   
     9    3   36 1   
    10    3   37 1   
    11    4    5 1   
    12    4   38 1   
    13    4   39 1   
    14    5    6 1   
    15    5    7 1   
    16    8    9 1   
    17    8   40 1   
    18    9   10 1   
    19    9   18 1   
    20    9   41 1   
    21   10   11 1   
    22   10   42 1   
    23   10   43 1   
    24   11   12 1   
    25   11   17 1   
    26   12   13 1   
    27   12   44 1   
    28   13   45 1   
    29   14   15 1   
    30   14   16 1   
    31   15   21 1   
    32   16   46 1   
    33   17   47 1   
    34   18   19 1   
    35   18   20 1   
    36   21   22 1   
    37   21   48 1   
    38   21   49 1   
    39   22   23 1   
    40   22   50 1   
    41   22   51 1   
    42   23   24 1   
    43   23   52 1   
    44   23   53 1   
    45   24   25 1   
    46   24   54 1   
    47   24   55 1   
    48   25   26 1   
    49   25   30 1   
    50   25   56 1   
    51   26   27 1   
    52   26   57 1   
    53   26   58 1   
    54   27   28 1   
    55   27   59 1   
    56   27   60 1   
    57   28   29 1   
    58   28   61 1   
    59   29   30 1   
    60   29   62 1   
    61   29   63 1   
    62   30   64 1   
    63   30   65 1   
@<TRIPOS>SUBSTRUCTURE
     1 AGG         1 TEMP              0 ****  ****    0 ROOT
