@<TRIPOS>MOLECULE
AGI
   30    26     1     0     0
SMALL
bcc


@<TRIPOS>ATOM
      1 CAG         2.7690   -1.1470    0.3990 c1        1 AGI     -0.057000
      2 CAE         4.1540   -1.1540    0.4460 c1        1 AGI     -0.222000
      3 CAM         4.8550    0.0420    0.4220 c1        1 AGI      0.102000
      4 OAB         6.2590    0.0360    0.5210 o         1 AGI     -0.245000
      5 CAF         4.1700    1.2450    0.3520 c2        1 AGI     -0.165000
      6 CAH         2.7850    1.2520    0.3050 c1        1 AGI     -0.054000
      7 CAP         2.0840    0.0560    0.3290 c1        1 AGI     -0.102000
      8 CAQ         0.5700    0.0680    0.3610 c2        1 AGI      0.138000
      9 OAL        -0.1730    0.1850   -0.8610 os        1 AGI     -0.136000
     10 CAJ        -0.1420    0.0150    1.6530 c1        1 AGI     -0.296000
     11 CAR        -1.5870    0.0320    1.6760 c1        1 AGI      0.319000
     12 OAA        -2.1790   -0.1030    2.7280 o         1 AGI     -0.287000
     13 CAT        -2.3540    0.0890    0.3820 c2        1 AGI     -0.256000
     14 CAS        -1.6640    0.0880   -0.8420 c2        1 AGI      0.165000
     15 CAK        -2.3770    0.0740   -2.0450 c1        1 AGI     -0.232000
     16 CAN        -3.7720    0.0610   -2.0290 c1        1 AGI      0.171000
     17 OAC        -4.4890    0.0670   -3.2410 oh        1 AGI     -0.239000
     18 CAI        -4.4620    0.0630   -0.8060 c1        1 AGI     -0.349000
     19 CAO        -3.7520    0.0770    0.3960 c1        1 AGI      0.202000
     20 OAD        -4.4450    0.1270    1.6200 oh        1 AGI     -0.202000
     21 HAG         2.2760   -1.9890    0.4160 ha        1 AGI      0.145000
     22 HAE         4.6360   -2.0010    0.4960 ha        1 AGI      0.140000
     23 HOAB        6.6080   -0.2800   -0.2330 ho        1 AGI      0.223000
     24 HAF         4.6640    2.0870    0.3350 ha        1 AGI      0.157000
     25 HAH         2.3030    2.0990    0.2550 ha        1 AGI      0.153000
     26 HAJ         0.3600    0.0660    2.4890 ha        1 AGI      0.167000
     27 HAK        -1.8980    0.0710   -2.8960 ha        1 AGI      0.173000
     28 HOAC       -4.6940   -0.7680   -3.4680 ho        1 AGI      0.226000
     29 HAI        -5.4380    0.0540   -0.7960 ha        1 AGI      0.143000
     30 HOAD       -5.0650   -0.5100    1.6360 ho        1 AGI      0.220000
@<TRIPOS>BOND
     1    1    7 1   
     2    1   21 1   
     3    2    3 1   
     4    2   22 1   
     5    3    5 1   
     6    4   23 1   
     7    5    6 1   
     8    5   24 1   
     9    6   25 1   
    10    7    8 1   
    11    8    9 1   
    12    8   10 1   
    13    9   14 1   
    14   10   26 1   
    15   11   12 1   
    16   11   13 1   
    17   13   14 1   
    18   13   19 1   
    19   14   15 1   
    20   15   27 1   
    21   16   17 1   
    22   16   18 1   
    23   17   28 1   
    24   18   29 1   
    25   19   20 1   
    26   20   30 1   
@<TRIPOS>SUBSTRUCTURE
     1 AGI         1 TEMP              0 ****  ****    0 ROOT
