@<TRIPOS>MOLECULE
AGI
   30    32     1     0     0
SMALL
bcc


@<TRIPOS>ATOM
      1 CAG        -0.0500    0.3760    0.0590 ca        1 AGI     -0.055500
      2 CAE         1.3340    0.3190   -0.0460 ca        1 AGI     -0.193500
      3 CAM         2.0840   -0.1460    1.0490 ca        1 AGI      0.147100
      4 OAB         3.4470   -0.1790    0.8880 oh        1 AGI     -0.491100
      5 CAF         1.4500   -0.5520    2.2330 ca        1 AGI     -0.193500
      6 CAH         0.0640   -0.4890    2.3220 ca        1 AGI     -0.055500
      7 CAP        -0.6960   -0.0200    1.2410 ca        1 AGI     -0.113800
      8 CAQ        -2.1510    0.0590    1.3550 cc        1 AGI      0.193900
      9 OAL        -2.7600   -0.0530    0.1090 os        1 AGI     -0.225200
     10 CAJ        -2.8440    0.2270    2.5020 cd        1 AGI     -0.315200
     11 CAR        -4.3080    0.2910    2.5350 c         1 AGI      0.597900
     12 OAA        -4.9340    0.4290    3.5940 o         1 AGI     -0.526100
     13 CAT        -4.9380    0.1770    1.2150 ca        1 AGI     -0.276600
     14 CAS        -4.1410    0.0130    0.0670 ca        1 AGI      0.210100
     15 CAK        -4.6810   -0.1010   -1.2230 ca        1 AGI     -0.232000
     16 CAN        -6.0740   -0.0470   -1.3550 ca        1 AGI      0.216100
     17 OAC        -6.5660   -0.1610   -2.6300 oh        1 AGI     -0.485100
     18 CAI        -6.9130    0.1160   -0.2430 ca        1 AGI     -0.349000
     19 CAO        -6.3400    0.2260    1.0310 ca        1 AGI      0.247100
     20 OAD        -7.1060    0.3860    2.1510 oh        1 AGI     -0.448100
     21 HAG        -0.6500    0.7340   -0.7930 ha        1 AGI      0.149000
     22 HAE         1.8510    0.6290   -0.9650 ha        1 AGI      0.148500
     23 HOAB        3.8400   -0.5150    1.7070 ho        1 AGI      0.424000
     24 HAF         2.0440   -0.9190    3.0830 ha        1 AGI      0.148500
     25 HAH        -0.4370   -0.8150    3.2480 ha        1 AGI      0.149000
     26 HAJ        -2.3290    0.3320    3.4680 ha        1 AGI      0.167000
     27 HAK        -4.0330   -0.2310   -2.0990 ha        1 AGI      0.173000
     28 HOAC       -7.5330   -0.1100   -2.5880 ho        1 AGI      0.427000
     29 HAI        -8.0030    0.1570   -0.3680 ha        1 AGI      0.143000
     30 HOAD       -8.0380    0.4040    1.8820 ho        1 AGI      0.421000
@<TRIPOS>BOND
     1    1    2 ar  
     2    1    7 ar  
     3    1   21 1   
     4    2    3 ar  
     5    2   22 1   
     6    3    4 1   
     7    3    5 ar  
     8    4   23 1   
     9    5    6 ar  
    10    5   24 1   
    11    6    7 ar  
    12    6   25 1   
    13    7    8 1   
    14    8    9 1   
    15    8   10 2   
    16    9   14 1   
    17   10   11 1   
    18   10   26 1   
    19   11   12 2   
    20   11   13 1   
    21   13   14 ar  
    22   13   19 ar  
    23   14   15 ar  
    24   15   16 ar  
    25   15   27 1   
    26   16   17 1   
    27   16   18 ar  
    28   17   28 1   
    29   18   19 ar  
    30   18   29 1   
    31   19   20 1   
    32   20   30 1   
@<TRIPOS>SUBSTRUCTURE
     1 AGI         1 TEMP              0 ****  ****    0 ROOT
