@<TRIPOS>MOLECULE
AGI
   30    32     1     0     0
SMALL
bcc


@<TRIPOS>ATOM
      1 CAG        -2.6380   -1.2210    0.4380 ca        1 AGI     -0.052500
      2 CAE        -3.9950   -1.5140    0.4400 ca        1 AGI     -0.194000
      3 CAM        -4.9130   -0.5040    0.0980 ca        1 AGI      0.150100
      4 OAB        -6.2400   -0.8530    0.1190 oh        1 AGI     -0.490100
      5 CAF        -4.4720    0.7830   -0.2430 ca        1 AGI     -0.194000
      6 CAH        -3.1090    1.0610   -0.2390 ca        1 AGI     -0.052500
      7 CAP        -2.1830    0.0660    0.1060 ca        1 AGI     -0.119800
      8 CAQ        -0.7550    0.3760    0.1230 cc        1 AGI      0.211900
      9 OAL         0.0130   -0.7590   -0.0970 os        1 AGI     -0.223200
     10 CAJ        -0.2160    1.5990    0.3320 cd        1 AGI     -0.323200
     11 CAR         1.2260    1.8230    0.3280 c         1 AGI      0.607900
     12 OAA         1.7140    2.9540    0.5080 o         1 AGI     -0.591100
     13 CAT         2.0340    0.6260    0.1000 ca        1 AGI     -0.333600
     14 CAS         1.3900   -0.6140   -0.1010 ca        1 AGI      0.212100
     15 CAK         2.0860   -1.8060   -0.3230 ca        1 AGI     -0.234000
     16 CAN         3.4880   -1.7480   -0.3440 ca        1 AGI      0.215100
     17 OAC         4.1380   -2.9350   -0.5650 oh        1 AGI     -0.486100
     18 CAI         4.1780   -0.5460   -0.1520 ca        1 AGI     -0.298000
     19 CAO         3.4500    0.6350    0.0690 ca        1 AGI      0.267100
     20 OAD         4.2140    1.7490    0.2450 oh        1 AGI     -0.497100
     21 HAG        -1.9070   -2.0040    0.6980 ha        1 AGI      0.149500
     22 HAE        -4.3620   -2.5160    0.7010 ha        1 AGI      0.149500
     23 HOAB       -6.7610   -0.0750   -0.1340 ho        1 AGI      0.425000
     24 HAF        -5.1960    1.5640   -0.5140 ha        1 AGI      0.149500
     25 HAH        -2.7600    2.0680   -0.5160 ha        1 AGI      0.149500
     26 HAJ        -0.8500    2.4780    0.5230 ha        1 AGI      0.170000
     27 HAK         1.5570   -2.7550   -0.4780 ha        1 AGI      0.173000
     28 HOAC        5.0920   -2.7640   -0.5580 ho        1 AGI      0.430000
     29 HAI         5.2760   -0.5060   -0.1700 ha        1 AGI      0.160000
     30 HOAD        3.6500    2.5290    0.3930 ho        1 AGI      0.469000
@<TRIPOS>BOND
     1    1    2 ar  
     2    1    7 ar  
     3    1   21 1   
     4    2    3 ar  
     5    2   22 1   
     6    3    4 1   
     7    3    5 ar  
     8    4   23 1   
     9    5    6 ar  
    10    5   24 1   
    11    6    7 ar  
    12    6   25 1   
    13    7    8 1   
    14    8    9 1   
    15    8   10 2   
    16    9   14 1   
    17   10   11 1   
    18   10   26 1   
    19   11   12 2   
    20   11   13 1   
    21   13   14 ar  
    22   13   19 ar  
    23   14   15 ar  
    24   15   16 ar  
    25   15   27 1   
    26   16   17 1   
    27   16   18 ar  
    28   17   28 1   
    29   18   19 ar  
    30   18   29 1   
    31   19   20 1   
    32   20   30 1   
@<TRIPOS>SUBSTRUCTURE
     1 AGI         1 TEMP              0 ****  ****    0 ROOT
