@<TRIPOS>MOLECULE
AGK
   22    22     1     0     0
SMALL
bcc


@<TRIPOS>ATOM
      1 O2          0.1230   -0.1790   -0.2330 oh        1 AGK     -0.593800
      2 C4          1.5290   -0.0780   -0.1050 c3        1 AGK      0.154100
      3 C3          1.9660   -0.0370    1.3680 c3        1 AGK      0.100100
      4 O1          1.3700   -1.1660    1.9920 oh        1 AGK     -0.607800
      5 C2          1.4710    1.2620    2.0200 c3        1 AGK      0.111800
      6 N1          1.9000    2.4560    1.2820 n3        1 AGK     -0.583000
      7 C5          1.9980    1.2140   -0.8060 c3        1 AGK      0.123500
      8 C6          1.4150    1.2320   -2.2340 c3        1 AGK      0.140400
      9 O           1.9270    2.3130   -2.9860 oh        1 AGK     -0.603800
     10 N           1.6180    2.4490   -0.0840 n3        1 AGK     -0.587000
     11 H2         -0.1610   -0.8890    0.3610 ho        1 AGK      0.421000
     12 H4          2.0060   -0.9640   -0.6120 h1        1 AGK      0.049700
     13 H3          3.0850   -0.1170    1.4360 h1        1 AGK      0.056700
     14 H5          3.1250    1.1300   -0.8950 h1        1 AGK      0.045700
     15 H1          1.5460   -1.0930    2.9370 ho        1 AGK      0.412000
     16 H21C        1.9150    1.3620    3.0490 h1        1 AGK      0.050200
     17 H22C        0.3500    1.1810    2.1220 h1        1 AGK      0.050200
     18 HA          1.3570    3.2330    1.6530 hn        1 AGK      0.365800
     19 H           2.2000    3.1860   -0.4760 hn        1 AGK      0.362800
     20 H61C        1.7640    0.3110   -2.7720 h1        1 AGK      0.063700
     21 H62C        0.2940    1.2480   -2.1990 h1        1 AGK      0.063700
     22 HB          1.4180    3.0970   -2.7490 ho        1 AGK      0.403000
@<TRIPOS>BOND
     1    1    2 1   
     2    1   11 1   
     3    2    3 1   
     4    2    7 1   
     5    2   12 1   
     6    3    4 1   
     7    3    5 1   
     8    3   13 1   
     9    4   15 1   
    10    5    6 1   
    11    5   16 1   
    12    5   17 1   
    13    6   10 1   
    14    6   18 1   
    15    7    8 1   
    16    7   10 1   
    17    7   14 1   
    18    8    9 1   
    19    8   20 1   
    20    8   21 1   
    21    9   22 1   
    22   10   19 1   
@<TRIPOS>SUBSTRUCTURE
     1 AGK         1 TEMP              0 ****  ****    0 ROOT
