@<TRIPOS>MOLECULE
AGK
   22    22     1     0     0
SMALL
bcc


@<TRIPOS>ATOM
      1 O2          0.1020   -0.1530   -0.2310 oh        1 AGK     -0.593800
      2 C4          1.5110   -0.0750   -0.1150 c3        1 AGK      0.154100
      3 C3          1.9610   -0.0560    1.3550 c3        1 AGK      0.100100
      4 O1          1.3530   -1.1810    1.9730 oh        1 AGK     -0.607800
      5 C2          1.4930    1.2440    2.0230 c3        1 AGK      0.111800
      6 N1          1.9340    2.4380    1.2930 n7        1 AGK     -0.583000
      7 C5          1.9940    1.2160   -0.8080 c3        1 AGK      0.123500
      8 C6          1.3980    1.2580   -2.2300 c3        1 AGK      0.140400
      9 O           1.9210    2.3370   -2.9760 oh        1 AGK     -0.603800
     10 N           1.6400    2.4490   -0.0700 n7        1 AGK     -0.587000
     11 H2         -0.1870   -0.8640    0.3580 ho        1 AGK      0.421000
     12 H4          1.9690   -0.9640   -0.6340 h1        1 AGK      0.049700
     13 H3          3.0800   -0.1540    1.4120 h1        1 AGK      0.056700
     14 H5          3.1180    1.1150   -0.9080 h1        1 AGK      0.045700
     15 H1          1.5380   -1.1200    2.9170 ho        1 AGK      0.412000
     16 H21C        0.3720    1.1800    2.1350 h1        1 AGK      0.050200
     17 H22C        1.9480    1.3270    3.0490 h1        1 AGK      0.050200
     18 HA          1.4070    3.2200    1.6770 hn        1 AGK      0.365800
     19 H           2.2310    3.1810   -0.4600 hn        1 AGK      0.362800
     20 H61C        0.2790    1.2910   -2.1840 h1        1 AGK      0.063700
     21 H62C        1.7280    0.3360   -2.7800 h1        1 AGK      0.063700
     22 HB          1.4270    3.1270   -2.7270 ho        1 AGK      0.403000
@<TRIPOS>BOND
     1    1    2 1   
     2    1   11 1   
     3    2    3 1   
     4    2    7 1   
     5    2   12 1   
     6    3    4 1   
     7    3    5 1   
     8    3   13 1   
     9    4   15 1   
    10    5    6 1   
    11    5   16 1   
    12    5   17 1   
    13    6   10 1   
    14    6   18 1   
    15    7    8 1   
    16    7   10 1   
    17    7   14 1   
    18    8    9 1   
    19    8   20 1   
    20    8   21 1   
    21    9   22 1   
    22   10   19 1   
@<TRIPOS>SUBSTRUCTURE
     1 AGK         1 TEMP              0 ****  ****    0 ROOT
