@<TRIPOS>MOLECULE
AGL
   24    24     1     0     0
SMALL
bcc


@<TRIPOS>ATOM
      1 C1         -1.0000   -0.5320   -1.4930 c3        1 AGL      0.304900
      2 C2          0.5130   -0.5320   -1.4930 c3        1 AGL      0.096100
      3 C3          1.0760   -0.5320   -0.1210 c3        1 AGL      0.068100
      4 C4          0.5000    0.5530    0.7260 c3        1 AGL      0.147500
      5 C5         -1.0190    0.5500    0.7150 c3        1 AGL      0.146100
      6 C6         -1.5100    1.7660    1.4320 c3        1 AGL     -0.082100
      7 O1         -1.4470   -1.7530   -1.0270 oh        1 AGL     -0.641800
      8 O2          0.9790   -1.7060   -2.1870 oh        1 AGL     -0.594800
      9 O3          2.5140   -0.3490   -0.2040 oh        1 AGL     -0.603800
     10 N4          0.9580    0.3770    2.0880 n3        1 AGL     -0.889800
     11 O5         -1.5690    0.5450   -0.6410 os        1 AGL     -0.444600
     12 H1         -1.3150   -0.4090   -2.4080 h2        1 AGL      0.083700
     13 H2          0.8290    0.2620   -1.9650 h1        1 AGL      0.099700
     14 H3          0.8900   -1.3940    0.2980 h1        1 AGL      0.048700
     15 H4          0.8170    1.4150    0.3950 h1        1 AGL      0.081700
     16 H5         -1.3360   -0.2440    1.1860 h1        1 AGL      0.046700
     17 H61        -1.2360    1.7250    2.3680 hc        1 AGL      0.050700
     18 H62        -2.4840    1.8040    1.3800 hc        1 AGL      0.050700
     19 H63        -1.1320    2.5640    1.0170 hc        1 AGL      0.050700
     20 HO1        -2.1470   -2.0140   -1.5060 ho        1 AGL      0.427000
     21 HO2         1.2990   -1.4720   -2.9820 ho        1 AGL      0.421000
     22 HO3         2.9210   -1.1200   -0.0370 ho        1 AGL      0.420000
     23 HN41        1.6280    0.9700    2.2630 hn        1 AGL      0.356800
     24 HN42        1.2690   -0.4740    2.1970 hn        1 AGL      0.356800
@<TRIPOS>BOND
     1    1    2 1   
     2    1    7 1   
     3    1   11 1   
     4    1   12 1   
     5    2    3 1   
     6    2    8 1   
     7    2   13 1   
     8    3    4 1   
     9    3    9 1   
    10    3   14 1   
    11    4    5 1   
    12    4   10 1   
    13    4   15 1   
    14    5    6 1   
    15    5   11 1   
    16    5   16 1   
    17    6   17 1   
    18    6   18 1   
    19    6   19 1   
    20    7   20 1   
    21    8   21 1   
    22    9   22 1   
    23   10   23 1   
    24   10   24 1   
@<TRIPOS>SUBSTRUCTURE
     1 AGL         1 TEMP              0 ****  ****    0 ROOT
