@<TRIPOS>MOLECULE
AGL
   24    24     1     0     0
SMALL
bcc


@<TRIPOS>ATOM
      1 C1          1.4870   -0.4230   -0.7020 c3        1 AGL      0.304900
      2 C2          0.0940   -0.5110   -1.3430 c3        1 AGL      0.096100
      3 C3         -0.9260    0.2870   -0.5200 c3        1 AGL      0.068100
      4 C4         -0.8780   -0.1670    0.9620 c3        1 AGL      0.147500
      5 C5          0.5660    0.0810    1.4640 c3        1 AGL      0.146100
      6 C6          0.7650   -0.3820    2.8930 c3        1 AGL     -0.082100
      7 O1          1.9570    0.8970   -0.8720 oh        1 AGL     -0.641800
      8 O2          0.1120   -0.0580   -2.6800 oh        1 AGL     -0.594800
      9 O3         -2.2430    0.0610   -0.9940 oh        1 AGL     -0.603800
     10 N4         -1.8670    0.4540    1.8130 n3        1 AGL     -0.889800
     11 O5          1.4970   -0.6820    0.6820 os        1 AGL     -0.444600
     12 H1          2.1960   -1.1790   -1.1460 h2        1 AGL      0.083700
     13 H2         -0.2200   -1.5910   -1.4070 h1        1 AGL      0.099700
     14 H3         -0.6880    1.3860   -0.6020 h1        1 AGL      0.048700
     15 H4         -1.0720   -1.2800    0.9850 h1        1 AGL      0.081700
     16 H5          0.8260    1.1720    1.3540 h1        1 AGL      0.046700
     17 H61         1.8510   -0.3540    3.1530 hc        1 AGL      0.050700
     18 H62         0.2030    0.2890    3.5850 hc        1 AGL      0.050700
     19 H63         0.3950   -1.4270    3.0180 hc        1 AGL      0.050700
     20 HO1         2.8150    0.9580   -0.4340 ho        1 AGL      0.427000
     21 HO2         0.5200    0.8190   -2.6850 ho        1 AGL      0.421000
     22 HO3        -2.2040    0.1200   -1.9580 ho        1 AGL      0.420000
     23 HN41       -1.7520    1.4490    1.8200 hn        1 AGL      0.356800
     24 HN42       -2.7840    0.2380    1.4690 hn        1 AGL      0.356800
@<TRIPOS>BOND
     1    1    2 1   
     2    1    7 1   
     3    1   11 1   
     4    1   12 1   
     5    2    3 1   
     6    2    8 1   
     7    2   13 1   
     8    3    4 1   
     9    3    9 1   
    10    3   14 1   
    11    4    5 1   
    12    4   10 1   
    13    4   15 1   
    14    5    6 1   
    15    5   11 1   
    16    5   16 1   
    17    6   17 1   
    18    6   18 1   
    19    6   19 1   
    20    7   20 1   
    21    8   21 1   
    22    9   22 1   
    23   10   23 1   
    24   10   24 1   
@<TRIPOS>SUBSTRUCTURE
     1 AGL         1 TEMP              0 ****  ****    0 ROOT
