@<TRIPOS>MOLECULE
AGM
   29    28     1     0     0
SMALL
bcc


@<TRIPOS>ATOM
      1 N           2.8670    0.1000   -0.6630 n3        1 AGM     -0.890800
      2 CA          1.7200    0.4480    0.1560 c3        1 AGM      0.072500
      3 CB          0.8510    1.5250   -0.5210 c3        1 AGM     -0.072400
      4 CG         -0.2860    2.0050    0.3590 c3        1 AGM     -0.103400
      5 CD         -1.6590    1.3910    0.0010 c3        1 AGM      0.037000
      6 CE2        -2.7590    2.3990    0.3550 c3        1 AGM     -0.106100
      7 NE1        -1.9030    0.1240    0.6850 nh        1 AGM     -0.373100
      8 CZ         -1.9570   -1.1150    0.0590 cz        1 AGM      0.533300
      9 NH1        -2.3900   -1.2480   -1.2640 nh        1 AGM     -0.449700
     10 NH2        -1.9170   -2.2580    0.8740 nh        1 AGM     -0.449700
     11 C           0.8030   -0.7450    0.4740 c         1 AGM      0.865600
     12 O           0.2850   -1.4010   -0.4950 o         1 AGM     -0.865300
     13 OXT         0.4900   -1.0110    1.6720 o         1 AGM     -0.865300
     14 H           3.4380   -0.5560   -0.1640 hn        1 AGM      0.348300
     15 H2          2.5520   -0.3400   -1.5090 hn        1 AGM      0.348300
     16 HA          2.1110    0.8610    1.1310 h1        1 AGM      0.068700
     17 HB2         1.5050    2.4020   -0.7730 hc        1 AGM      0.049700
     18 HB3         0.4540    1.1160   -1.4870 hc        1 AGM      0.049700
     19 HG2        -0.0410    1.8140    1.4380 hc        1 AGM      0.062200
     20 HG3        -0.3840    3.1170    0.2390 hc        1 AGM      0.062200
     21 HD         -1.6810    1.2490   -1.1190 h1        1 AGM      0.054700
     22 HE21       -3.7720    1.9830    0.1370 hc        1 AGM      0.049700
     23 HE22       -2.7110    2.6760    1.4350 hc        1 AGM      0.049700
     24 HE23       -2.6120    3.3200   -0.2590 hc        1 AGM      0.049700
     25 HE1        -1.4980    0.1010    1.6110 hn        1 AGM      0.317700
     26 HH11       -2.3190   -0.4410   -1.8430 hn        1 AGM      0.288950
     27 HH12       -2.1000   -2.0900   -1.7170 hn        1 AGM      0.288950
     28 HH21       -1.2680   -2.1760    1.6490 hn        1 AGM      0.288950
     29 HH22       -1.8080   -3.1190    0.3790 hn        1 AGM      0.288950
@<TRIPOS>BOND
     1    1    2 1   
     2    1   14 1   
     3    1   15 1   
     4    2    3 1   
     5    2   11 1   
     6    2   16 1   
     7    3    4 1   
     8    3   17 1   
     9    3   18 1   
    10    4    5 1   
    11    4   19 1   
    12    4   20 1   
    13    5    6 1   
    14    5    7 1   
    15    5   21 1   
    16    6   22 1   
    17    6   23 1   
    18    6   24 1   
    19    7    8 2   
    20    7   25 1   
    21    8    9 1   
    22    8   10 1   
    23    9   26 1   
    24    9   27 1   
    25   10   28 1   
    26   10   29 1   
    27   11   12 1   
    28   11   13 1   
@<TRIPOS>SUBSTRUCTURE
     1 AGM         1 TEMP              0 ****  ****    0 ROOT
