@<TRIPOS>MOLECULE
AGN
   62    64     1     0     0
SMALL
bcc


@<TRIPOS>ATOM
      1 PG         -1.2940    0.4820   -2.9580 p4        1 AGN      1.517300
      2 O1G        -0.9050    0.2460   -1.5520 o         1 AGN     -0.824167
      3 O2G        -1.7080   -0.6610   -3.7940 o         1 AGN     -0.824167
      4 O3G        -0.9080    1.7560   -3.6000 o         1 AGN     -0.872967
      5 N3B        -3.3130    1.8750   -1.9800 n8        1 AGN     -1.109900
      6 PB         -4.9000    2.0530   -1.7860 p5        1 AGN      1.591700
      7 O1B        -5.5200    0.9080   -1.0790 o         1 AGN     -0.900000
      8 O2B        -5.5660    2.5970   -3.0170 o         1 AGN     -0.900000
      9 O3A        -5.0520    3.3720   -0.7410 os        1 AGN     -0.839800
     10 PA         -5.4150    4.5800    0.2430 p5        1 AGN      1.607800
     11 O1A        -4.3520    4.8890    1.2170 o         1 AGN     -0.894000
     12 O2A        -6.8450    4.4840    0.6500 o         1 AGN     -0.894000
     13 O5'        -5.4400    5.8720   -0.8220 os        1 AGN     -0.592200
     14 C5B        -5.8220    5.6640   -2.1340 c3        1 AGN      0.163400
     15 C4B        -7.3060    6.0270   -2.3500 c3        1 AGN      0.105100
     16 O4'        -7.5500    6.3110   -3.7450 os        1 AGN     -0.440600
     17 C3B        -8.2180    4.8420   -1.9740 c3        1 AGN      0.126100
     18 O3'        -9.4160    5.4490   -1.4320 os        1 AGN     -0.457900
     19 C2B        -8.4410    4.1160   -3.2940 c3        1 AGN     -0.163400
     20 C1B        -8.2310    5.2100   -4.3650 c3        1 AGN      0.251800
     21 C'        -10.3650    4.6350   -0.8820 c         1 AGN      0.691700
     22 O1'       -10.8690    3.7440   -1.5780 o         1 AGN     -0.577000
     23 C1'       -10.7690    5.0070    0.4900 ca        1 AGN     -0.188600
     24 C2'       -12.1350    5.0360    0.8820 ca        1 AGN      0.165600
     25 N2'       -13.1610    4.8170   -0.0610 nu        1 AGN     -0.736600
     26 CM'       -14.4010    4.2770    0.4160 c3        1 AGN      0.184100
     27 C3'       -12.4350    5.3660    2.2220 ca        1 AGN     -0.229000
     28 C4'       -11.4120    5.6510    3.1240 ca        1 AGN     -0.103000
     29 C5'       -10.0810    5.6080    2.7310 ca        1 AGN     -0.179000
     30 C6'        -9.7550    5.2850    1.4110 ca        1 AGN     -0.020000
     31 N9         -7.5220    4.7770   -5.5570 na        1 AGN     -0.182900
     32 C8         -6.3920    3.9340   -5.6800 cc        1 AGN      0.475400
     33 N7         -5.9660    3.8170   -6.9600 nd        1 AGN     -0.637000
     34 C5         -6.8200    4.6220   -7.7100 cd        1 AGN      0.214800
     35 C6         -6.8610    4.8940   -9.1300 c         1 AGN      0.641000
     36 O6         -6.1330    4.4550  -10.0410 o         1 AGN     -0.652500
     37 N1         -7.8830    5.7980   -9.5210 ns        1 AGN     -0.495400
     38 C2         -8.7970    6.3480   -8.6010 cd        1 AGN      0.562800
     39 N2         -9.8130    7.2100   -9.1700 nv        1 AGN     -0.862800
     40 N3         -8.7870    6.1140   -7.2820 nc        1 AGN     -0.606100
     41 C4         -7.7970    5.2450   -6.8480 cc        1 AGN      0.029800
     42 HNB3       -2.7610    1.5450   -1.2240 hn        1 AGN      0.419300
     43 H5'2       -5.2150    6.3530   -2.7860 h1        1 AGN      0.057700
     44 H5'1       -5.6430    4.5910   -2.4480 h1        1 AGN      0.057700
     45 H4B        -7.5820    6.9650   -1.8030 h1        1 AGN      0.075700
     46 H3B        -7.7440    4.2080   -1.1600 h1        1 AGN      0.177700
     47 H2'1       -7.6670    3.2960   -3.3710 hc        1 AGN      0.118200
     48 H2'2       -9.4610    3.6760   -3.3750 hc        1 AGN      0.118200
     49 H1'        -9.2240    5.6270   -4.7130 h2        1 AGN      0.062700
     50 HN2'      -12.8280    4.3480   -0.8850 hn        1 AGN      0.421800
     51 HM'1      -14.2730    3.3960    1.1030 h1        1 AGN      0.019367
     52 HM'2      -15.0200    3.9580   -0.4630 h1        1 AGN      0.019367
     53 HM'3      -14.9620    5.0740    0.9750 h1        1 AGN      0.019367
     54 H3'       -13.4770    5.3990    2.5650 ha        1 AGN      0.106000
     55 H4'       -11.6720    5.9040    4.1630 ha        1 AGN      0.100000
     56 H5'        -9.2730    5.8120    3.4470 ha        1 AGN      0.140000
     57 H6'        -8.6810    5.2100    1.0890 ha        1 AGN      0.270000
     58 H8         -5.9350    3.4210   -4.7840 h5        1 AGN      0.194100
     59 HN1        -7.9860    5.9920  -10.4900 hn        1 AGN      0.316500
     60 HN21      -10.5950    7.2820   -8.5460 hn        1 AGN      0.370800
     61 HN22       -9.4220    8.1220   -9.3170 hn        1 AGN      0.370800
     62 H3B2       -2.8000    2.4950   -2.5610 hn        1 AGN      0.419300
@<TRIPOS>BOND
     1    1    2 1   
     2    1    3 1   
     3    1    4 2   
     4    5    6 1   
     5    5   42 1   
     6    5   62 1   
     7    6    7 1   
     8    6    8 1   
     9    6    9 1   
    10    9   10 1   
    11   10   11 1   
    12   10   12 1   
    13   10   13 1   
    14   13   14 1   
    15   14   15 1   
    16   14   43 1   
    17   14   44 1   
    18   15   16 1   
    19   15   17 1   
    20   15   45 1   
    21   16   20 1   
    22   17   18 1   
    23   17   19 1   
    24   17   46 1   
    25   18   21 1   
    26   19   20 1   
    27   19   47 1   
    28   19   48 1   
    29   20   31 1   
    30   20   49 1   
    31   21   22 2   
    32   21   23 1   
    33   23   24 ar  
    34   23   30 ar  
    35   24   25 1   
    36   24   27 ar  
    37   25   26 1   
    38   25   50 1   
    39   26   51 1   
    40   26   52 1   
    41   26   53 1   
    42   27   28 ar  
    43   27   54 1   
    44   28   29 ar  
    45   28   55 1   
    46   29   30 ar  
    47   29   56 1   
    48   30   57 1   
    49   31   32 1   
    50   31   41 1   
    51   32   33 2   
    52   32   58 1   
    53   33   34 1   
    54   34   35 1   
    55   34   41 2   
    56   35   36 2   
    57   35   37 1   
    58   37   38 1   
    59   37   59 1   
    60   38   39 1   
    61   38   40 2   
    62   39   60 1   
    63   39   61 1   
    64   40   41 1   
@<TRIPOS>SUBSTRUCTURE
     1 AGN         1 TEMP              0 ****  ****    0 ROOT
