@<TRIPOS>MOLECULE
AGP
   31    30     1     0     0
SMALL
bcc


@<TRIPOS>ATOM
      1 C1         -0.2310    0.2770   -0.2360 c3        1 AGP      0.088400
      2 O1         -0.9580   -0.9120    0.0380 oh        1 AGP     -0.617800
      3 C2          1.2710   -0.0380   -0.0660 c3        1 AGP      0.138500
      4 N2          1.6320   -0.6240    1.2080 n3        1 AGP     -0.905800
      5 C3          2.0390    1.2790   -0.3520 c3        1 AGP      0.113100
      6 O3          1.7490    2.2200    0.6670 oh        1 AGP     -0.617800
      7 C4          3.5480    1.0230   -0.5170 c3        1 AGP      0.118100
      8 O4          4.1780    1.0590    0.7560 oh        1 AGP     -0.603800
      9 C5          4.2000    2.1280   -1.3670 c3        1 AGP      0.119100
     10 O5          3.5310    2.1170   -2.6210 oh        1 AGP     -0.638800
     11 C6          5.7080    1.8680   -1.5360 c3        1 AGP      0.165400
     12 O6          6.1920    2.6800   -2.5550 os        1 AGP     -0.578200
     13 P           7.3640    3.7840   -2.1390 p5        1 AGP      1.428800
     14 O1P         7.7730    4.4600   -3.3790 o         1 AGP     -0.829500
     15 O2P         6.4190    4.7430   -1.2110 oh        1 AGP     -0.786400
     16 O3P         8.2190    3.1310   -1.1250 o         1 AGP     -0.829500
     17 H11        -0.5390    1.0900    0.4730 h1        1 AGP      0.036200
     18 H12        -0.4270    0.6110   -1.2890 h1        1 AGP      0.036200
     19 HO1        -1.8880   -0.6990   -0.0940 ho        1 AGP      0.396000
     20 H2          1.5530   -0.7880   -0.8630 h1        1 AGP      0.069700
     21 HN21        4.0540    0.1890    1.1530 ho        1 AGP      0.414000
     22 HN22        1.5230    0.0550    1.9380 hn        1 AGP      0.351300
     23 H3          1.6370    1.7260   -1.3060 h1        1 AGP      0.094700
     24 HO3         2.5260    2.2920    1.2410 ho        1 AGP      0.422000
     25 H4          3.7050    0.0280   -1.0140 h1        1 AGP      0.054700
     26 HO4         6.5600    4.5880   -0.2840 ho        1 AGP      0.426000
     27 H5          4.0330    3.1290   -0.8810 h1        1 AGP      0.060700
     28 HO5         4.1550    2.4840   -3.2660 ho        1 AGP      0.444000
     29 H61         6.2420    2.0660   -0.5660 h1        1 AGP      0.040200
     30 H62         5.8560    0.7920   -1.8330 h1        1 AGP      0.040200
     31 H23         1.0330   -1.4050    1.4000 hn        1 AGP      0.351300
@<TRIPOS>BOND
     1    1    2 1   
     2    1    3 1   
     3    1   17 1   
     4    1   18 1   
     5    2   19 1   
     6    3    4 1   
     7    3    5 1   
     8    3   20 1   
     9    4   22 1   
    10    4   31 1   
    11    5    6 1   
    12    5    7 1   
    13    5   23 1   
    14    6   24 1   
    15    7    8 1   
    16    7    9 1   
    17    7   25 1   
    18    8   21 1   
    19    9   10 1   
    20    9   11 1   
    21    9   27 1   
    22   10   28 1   
    23   11   12 1   
    24   11   29 1   
    25   11   30 1   
    26   12   13 1   
    27   13   14 1   
    28   13   15 1   
    29   13   16 1   
    30   15   26 1   
@<TRIPOS>SUBSTRUCTURE
     1 AGP         1 TEMP              0 ****  ****    0 ROOT
