@<TRIPOS>MOLECULE
AGP
   30    29     1     0     0
SMALL
bcc


@<TRIPOS>ATOM
      1 C1         -0.8890   -0.1380   -5.0540 c3        1 AGP      0.134400
      2 O1         -0.7090    0.5550   -6.2810 oh        1 AGP     -0.648800
      3 C2          0.0150    0.3680   -3.9190 c3        1 AGP      0.108500
      4 N2          1.4300    0.1800   -4.2200 n3        1 AGP     -0.919800
      5 C3         -0.4260   -0.3030   -2.5930 c3        1 AGP      0.044100
      6 O3         -0.1910   -1.6970   -2.6910 oh        1 AGP     -0.661800
      7 C4          0.4200    0.3020   -1.4050 c3        1 AGP      0.370800
      8 O4          1.6060   -0.2900   -1.3610 o         1 AGP     -0.907500
      9 C5         -0.4120    0.1220   -0.1000 c3        1 AGP      0.070100
     10 O5         -1.6720    0.7670   -0.2740 oh        1 AGP     -0.643800
     11 C6          0.3290    0.7150    1.1060 c3        1 AGP      0.166400
     12 O6         -0.5310    0.7660    2.2140 os        1 AGP     -0.608200
     13 P          -0.0590    0.0110    3.5950 p5        1 AGP      1.433800
     14 O1P         1.3890    0.2420    3.7920 o         1 AGP     -0.850500
     15 O2P        -1.0990    0.2520    4.6170 o         1 AGP     -0.850500
     16 O3P        -0.1500   -1.5380    3.0740 oh        1 AGP     -0.786400
     17 H11        -0.7220   -1.2350   -5.2280 h1        1 AGP      0.032700
     18 H12        -1.9640    0.0330   -4.7810 h1        1 AGP      0.032700
     19 HO1         0.2300    0.7510   -6.3650 ho        1 AGP      0.406000
     20 H2         -0.1560    1.4790   -3.8130 h1        1 AGP      0.048700
     21 HN21        1.9520    0.5230   -3.4230 hn        1 AGP      0.357300
     22 HN22        1.6060   -0.8100   -4.2580 hn        1 AGP      0.357300
     23 H3         -1.5260   -0.1700   -2.4390 h1        1 AGP      0.046700
     24 HO3         0.6270   -1.8680   -2.1870 ho        1 AGP      0.429000
     25 H4          0.4690    1.4230   -1.5960 h1        1 AGP     -0.071300
     26 HO4         0.5770   -1.7710    2.5100 ho        1 AGP      0.425000
     27 H5         -0.5990   -0.9730    0.0780 h1        1 AGP      0.018700
     28 HO5        -2.0290    0.9020    0.6130 ho        1 AGP      0.401000
     29 H61         1.2420    0.1050    1.3380 h1        1 AGP      0.033700
     30 H62         0.6400    1.7680    0.8570 h1        1 AGP      0.033700
@<TRIPOS>BOND
     1    1    2 1   
     2    1    3 1   
     3    1   17 1   
     4    1   18 1   
     5    2   19 1   
     6    3    4 1   
     7    3    5 1   
     8    3   20 1   
     9    4   21 1   
    10    4   22 1   
    11    5    6 1   
    12    5    7 1   
    13    5   23 1   
    14    6   24 1   
    15    7    8 1   
    16    7    9 1   
    17    7   25 1   
    18    9   10 1   
    19    9   11 1   
    20    9   27 1   
    21   10   28 1   
    22   11   12 1   
    23   11   29 1   
    24   11   30 1   
    25   12   13 1   
    26   13   14 1   
    27   13   15 1   
    28   13   16 1   
    29   16   26 1   
@<TRIPOS>SUBSTRUCTURE
     1 AGP         1 TEMP              0 ****  ****    0 ROOT
