@<TRIPOS>MOLECULE
AGP
   31    30     1     0     0
SMALL
bcc


@<TRIPOS>ATOM
      1 C1          0.2310   -0.2190   -0.7700 c3        1 AGP      0.096400
      2 O1         -0.2980   -1.5300   -0.6430 oh        1 AGP     -0.605800
      3 C2          1.6110   -0.1930   -0.0760 c3        1 AGP      0.182500
      4 N2          1.6090   -0.6020    1.3120 n8        1 AGP     -0.903800
      5 C3          2.1960    1.2210   -0.3140 c3        1 AGP      0.107100
      6 O3          1.2720    2.1540    0.2340 oh        1 AGP     -0.631800
      7 C4          3.5780    1.4030    0.3410 c3        1 AGP      0.113100
      8 O4          3.4380    1.7190    1.7160 oh        1 AGP     -0.596800
      9 C5          4.3990    2.4960   -0.3630 c3        1 AGP      0.080100
     10 O5          3.5400    3.6140   -0.5490 oh        1 AGP     -0.658800
     11 C6          4.9890    2.0010   -1.6950 c3        1 AGP      0.159400
     12 O6          5.3710    3.1000   -2.4540 os        1 AGP     -0.575200
     13 P           6.9870    3.2200   -2.8390 p5        1 AGP      1.427800
     14 O1P         7.1180    4.3520   -3.7680 o         1 AGP     -0.827500
     15 O2P         7.5170    3.5970   -1.3390 oh        1 AGP     -0.786400
     16 O3P         7.4810    1.8360   -2.9940 o         1 AGP     -0.827500
     17 H11        -0.4620    0.5240   -0.2920 h1        1 AGP      0.032200
     18 H12         0.3570    0.0400   -1.8550 h1        1 AGP      0.032200
     19 HO1        -1.1460   -1.5240   -1.1000 ho        1 AGP      0.392000
     20 H2          2.2770   -0.9280   -0.6200 h1        1 AGP      0.068700
     21 HN21        2.9580    2.5560    1.7610 ho        1 AGP      0.407000
     22 HN22        1.7030    0.1920    1.9170 hn        1 AGP      0.359300
     23 H3          2.2870    1.3890   -1.4230 h1        1 AGP      0.056700
     24 HO3         1.5860    3.0340   -0.0210 ho        1 AGP      0.431000
     25 H4          4.1500    0.4340    0.3260 h1        1 AGP      0.093700
     26 HO4         7.9380    2.8570   -0.9160 ho        1 AGP      0.426000
     27 H5          5.2380    2.8180    0.3190 h1        1 AGP      0.062700
     28 HO5         3.9020    4.1300   -1.2860 ho        1 AGP      0.450000
     29 H61         5.8650    1.3220   -1.4990 h1        1 AGP      0.038200
     30 H62         4.2000    1.4320   -2.2640 h1        1 AGP      0.038200
     31 H23         0.7630   -1.0910    1.5290 hn        1 AGP      0.359300
@<TRIPOS>BOND
     1    1    2 1   
     2    1    3 1   
     3    1   17 1   
     4    1   18 1   
     5    2   19 1   
     6    3    4 1   
     7    3    5 1   
     8    3   20 1   
     9    4   22 1   
    10    4   31 1   
    11    5    6 1   
    12    5    7 1   
    13    5   23 1   
    14    6   24 1   
    15    7    8 1   
    16    7    9 1   
    17    7   25 1   
    18    8   21 1   
    19    9   10 1   
    20    9   11 1   
    21    9   27 1   
    22   10   28 1   
    23   11   12 1   
    24   11   29 1   
    25   11   30 1   
    26   12   13 1   
    27   13   14 1   
    28   13   15 1   
    29   13   16 1   
    30   15   26 1   
@<TRIPOS>SUBSTRUCTURE
     1 AGP         1 TEMP              0 ****  ****    0 ROOT
