@<TRIPOS>MOLECULE
AGP
   30    29     1     0     0
SMALL
bcc


@<TRIPOS>ATOM
      1 C1         -2.8030   -1.0810    1.6430 c3        1 AGP      0.143400
      2 O1         -3.3710   -2.2110    2.2670 oh        1 AGP     -0.643800
      3 C2         -1.2980   -1.1410    1.7660 c3        1 AGP      0.103500
      4 N2         -0.9370   -1.2120    3.1400 n3        1 AGP     -0.930800
      5 C3         -0.6930    0.0990    1.1490 c3        1 AGP      0.115100
      6 O3         -0.0410    0.8490    2.1470 oh        1 AGP     -0.639800
      7 C4          0.3060   -0.3020    0.0880 c3        1 AGP      0.060100
      8 O4          1.5300   -0.6370    0.6980 oh        1 AGP     -0.694800
      9 C5          0.5180    0.8500   -0.8660 c3        1 AGP      0.088100
     10 O5         -0.6670    1.0830   -1.5900 oh        1 AGP     -0.653800
     11 C6          1.6370    0.5120   -1.8250 c3        1 AGP      0.186400
     12 O6          1.8650    1.6040   -2.6850 os        1 AGP     -0.581200
     13 P           2.9530    1.4540   -3.8210 p5        1 AGP      1.329900
     14 O1P         3.1180    2.7720   -4.5380 o         1 AGP     -0.921500
     15 O2P         4.2710    1.0480   -3.2050 o         1 AGP     -0.921500
     16 O3P         2.5110    0.3970   -4.8050 o         1 AGP     -0.921500
     17 H11        -3.0540   -1.0700    0.6960 h1        1 AGP      0.029700
     18 H12        -3.1340   -0.2680    2.0780 h1        1 AGP      0.029700
     19 HO1        -4.2550   -2.1910    2.1690 ho        1 AGP      0.415000
     20 H2         -0.9640   -1.9330    1.3000 h1        1 AGP      0.060700
     21 HN21       -0.9970   -0.3780    3.5150 hn        1 AGP      0.381800
     22 HN22       -0.0770   -1.5180    3.2140 hn        1 AGP      0.381800
     23 H3         -1.3990    0.6400    0.7440 h1        1 AGP      0.063700
     24 HO3        -0.5330    1.5620    2.3500 ho        1 AGP      0.417000
     25 H4         -0.0350   -1.0750   -0.4050 h1        1 AGP      0.138700
     26 HO4         1.6960   -1.5020    0.5750 ho        1 AGP      0.493000
     27 H5          0.7540    1.6530   -0.3600 h1        1 AGP      0.029700
     28 HO5        -0.7400    1.9520   -1.7670 ho        1 AGP      0.423000
     29 H61         2.4530    0.3180   -1.3190 h1        1 AGP      0.009700
     30 H62         1.3860   -0.2740   -2.3550 h1        1 AGP      0.009700
@<TRIPOS>BOND
     1    1    2 1   
     2    1    3 1   
     3    1   17 1   
     4    1   18 1   
     5    2   19 1   
     6    3    4 1   
     7    3    5 1   
     8    3   20 1   
     9    4   21 1   
    10    4   22 1   
    11    5    6 1   
    12    5    7 1   
    13    5   23 1   
    14    6   24 1   
    15    7    8 1   
    16    7    9 1   
    17    7   25 1   
    18    8   26 1   
    19    9   10 1   
    20    9   11 1   
    21    9   27 1   
    22   10   28 1   
    23   11   12 1   
    24   11   29 1   
    25   11   30 1   
    26   12   13 1   
    27   13   14 1   
    28   13   15 1   
    29   13   16 1   
@<TRIPOS>SUBSTRUCTURE
     1 AGP         1 TEMP              0 ****  ****    0 ROOT
