@<TRIPOS>MOLECULE
AGQ
   31    31     1     0     0
SMALL
bcc


@<TRIPOS>ATOM
      1 OXT         5.1440    0.0210   -0.6200 o         1 AGQ     -0.833800
      2 C           4.3520    0.9770   -0.4100 c         1 AGQ      0.889600
      3 N           2.2330    1.7810    0.7320 n3        1 AGQ     -0.898800
      4 O           4.6020    2.1930   -0.6460 o         1 AGQ     -0.833800
      5 N6         -2.8110    1.4880   -0.1780 nh        1 AGQ     -0.509300
      6 C7         -4.1700    1.8980   -0.5260 c2        1 AGQ      0.753100
      7 N8         -4.3150    2.7000   -1.5400 n2        1 AGQ     -0.816100
      8 N9         -5.2510    1.4530    0.3300 nh        1 AGQ     -0.892800
      9 CA          2.9500    0.6280    0.2050 c3        1 AGQ      0.019500
     10 CB          2.1630   -0.1190   -0.8810 c3        1 AGQ     -0.039200
     11 CG          0.8620   -0.6580   -0.4030 cc        1 AGQ     -0.088400
     12 CZ         -1.4280   -1.7300    0.8930 cc        1 AGQ      0.104500
     13 CD1         0.7630   -2.1200   -0.1670 c         1 AGQ      0.571500
     14 CD2        -0.2090    0.1330   -0.1880 cd        1 AGQ     -0.249600
     15 CE1        -0.3770   -2.5470    0.6550 cd        1 AGQ     -0.355200
     16 CE2        -1.4960   -0.3670    0.3090 cd        1 AGQ      0.430900
     17 H           2.7640    2.1390    1.5060 hn        1 AGQ      0.334800
     18 H2          2.2460    2.5000    0.0260 hn        1 AGQ      0.334800
     19 H6         -2.0970    1.8800   -0.7790 hn        1 AGQ      0.428800
     20 H8         -5.2390    3.0450   -1.6850 hn        1 AGQ      0.411400
     21 H91        -5.0120    1.5810    1.2960 hn        1 AGQ      0.379800
     22 H92        -5.4350    0.4800    0.1660 hn        1 AGQ      0.379800
     23 HA          3.1290   -0.0860    1.0590 h1        1 AGQ      0.045700
     24 HB2         1.9830    0.5710   -1.7490 hc        1 AGQ      0.073700
     25 HB3         2.8230   -0.9590   -1.2380 hc        1 AGQ      0.073700
     26 HH         -2.3140   -2.9900    2.0210 ho        1 AGQ      0.417000
     27 HD2        -0.1130    1.2190   -0.3520 ha        1 AGQ      0.160000
     28 HE1        -0.3270   -3.5650    1.0670 ha        1 AGQ      0.145000
     29 OH         -2.4980   -2.1040    1.6710 oh        1 AGQ     -0.488100
     30 N5         -2.6610    0.2470    0.2690 n2        1 AGQ     -0.424400
     31 OZ          1.5640   -2.9460   -0.6240 o         1 AGQ     -0.521100
@<TRIPOS>BOND
     1    1    2 1   
     2    2    4 1   
     3    2    9 1   
     4    3    9 1   
     5    3   17 1   
     6    3   18 1   
     7    5    6 1   
     8    5   19 1   
     9    5   30 1   
    10    6    7 2   
    11    6    8 1   
    12    7   20 1   
    13    8   21 1   
    14    8   22 1   
    15    9   10 1   
    16    9   23 1   
    17   10   11 1   
    18   10   24 1   
    19   10   25 1   
    20   11   13 1   
    21   11   14 2   
    22   12   15 2   
    23   12   16 1   
    24   12   29 1   
    25   13   15 1   
    26   13   31 2   
    27   14   16 1   
    28   14   27 1   
    29   15   28 1   
    30   16   30 2   
    31   26   29 1   
@<TRIPOS>SUBSTRUCTURE
     1 AGQ         1 TEMP              0 ****  ****    0 ROOT
