@<TRIPOS>MOLECULE
AGS
   45    47     1     0     0
SMALL
bcc


@<TRIPOS>ATOM
      1 PG          0.5660   -0.5330   -1.8730 p5        1 AGS      1.555200
      2 S1G         2.0760    0.3430   -1.1570 s         1 AGS     -0.746000
      3 O2G        -0.8210   -0.0420   -1.2640 oh        1 AGS     -0.808900
      4 O3G         0.2720   -0.1810   -3.3970 oh        1 AGS     -0.808900
      5 PB          0.0980   -3.7820   -1.9190 p5        1 AGS      1.699800
      6 O1B         1.0570   -4.3100   -2.8860 o         1 AGS     -0.848000
      7 O2B        -0.0850   -4.2100   -0.5350 o         1 AGS     -0.848000
      8 O3B         0.4290   -2.0670   -1.8430 os        1 AGS     -0.796800
      9 PA         -2.6700   -2.9950   -3.3610 p5        1 AGS      1.635800
     10 O1A        -2.4530   -1.5280   -3.3880 o         1 AGS     -0.905000
     11 O2A        -3.1700   -3.7840   -4.5090 o         1 AGS     -0.905000
     12 O3A        -1.3530   -3.5790   -2.6520 os        1 AGS     -0.812800
     13 O5'        -3.8620   -3.2950   -2.2310 os        1 AGS     -0.573200
     14 C5'        -5.1620   -3.0790   -2.6550 c3        1 AGS      0.209400
     15 C4'        -5.8440   -4.4020   -3.0570 c3        1 AGS      0.059100
     16 O4'        -7.2050   -4.4020   -2.5760 os        1 AGS     -0.420600
     17 C3'        -5.8670   -4.6550   -4.5780 c3        1 AGS      0.119100
     18 O3'        -5.1060   -5.7930   -4.9120 oh        1 AGS     -0.645800
     19 C2'        -7.3430   -4.9330   -4.9330 c3        1 AGS      0.109100
     20 O2'        -7.6400   -6.2770   -5.2320 oh        1 AGS     -0.596800
     21 C1'        -8.1370   -4.5230   -3.6450 c3        1 AGS      0.213800
     22 N9         -8.8830   -3.2840   -3.7900 na        1 AGS     -0.263000
     23 C8         -8.3760   -1.9640   -3.7340 cc        1 AGS      0.439700
     24 N7         -9.3220   -1.0150   -3.8320 nd        1 AGS     -0.571100
     25 C5        -10.5300   -1.7180   -3.9440 ca        1 AGS     -0.215200
     26 C6        -11.8910   -1.2960   -4.0720 ca        1 AGS      0.721200
     27 N6        -12.1860    0.0520   -4.2090 nv        1 AGS     -0.940500
     28 N1        -12.8820   -2.2430   -4.1170 nb        1 AGS     -0.802000
     29 C2        -12.4970   -3.5500   -4.0710 ca        1 AGS      0.658900
     30 N3        -11.2680   -4.0970   -3.9700 nb        1 AGS     -0.713000
     31 C4        -10.2730   -3.1580   -3.9030 ca        1 AGS      0.448800
     32 HOG2       -1.6240   -0.3880   -1.6690 ho        1 AGS      0.512500
     33 H21        -0.5520   -0.5110   -3.7730 ho        1 AGS      0.512500
     34 H5'1       -5.7400   -2.6360   -1.7950 h1        1 AGS      0.018200
     35 H5'2       -5.1730   -2.3580   -3.5210 h1        1 AGS      0.018200
     36 H4'        -5.3400   -5.2550   -2.5220 h1        1 AGS      0.100700
     37 H3'        -5.4890   -3.7600   -5.1440 h1        1 AGS      0.094700
     38 HO3'       -4.1740   -5.4980   -4.9470 ho        1 AGS      0.493000
     39 H2'        -7.6670   -4.3510   -5.8350 h1        1 AGS      0.080700
     40 HO2'       -6.9620   -6.8330   -4.8230 ho        1 AGS      0.430000
     41 H1'        -8.8670   -5.3330   -3.3480 h2        1 AGS      0.108700
     42 H8         -7.2960   -1.7860   -3.6050 h5        1 AGS      0.098800
     43 HN61      -13.1220    0.3390   -4.0460 hn        1 AGS      0.421800
     44 HN62      -11.4720    0.6810   -3.9240 hn        1 AGS      0.421800
     45 H2        -13.3360   -4.2770   -4.1190 h5        1 AGS      0.037100
@<TRIPOS>BOND
     1    1    2 2   
     2    1    3 1   
     3    1    4 1   
     4    1    8 1   
     5    3   32 1   
     6    4   33 1   
     7    5    6 1   
     8    5    7 1   
     9    5    8 1   
    10    5   12 1   
    11    9   10 1   
    12    9   11 1   
    13    9   12 1   
    14    9   13 1   
    15   13   14 1   
    16   14   15 1   
    17   14   34 1   
    18   14   35 1   
    19   15   16 1   
    20   15   17 1   
    21   15   36 1   
    22   16   21 1   
    23   17   18 1   
    24   17   19 1   
    25   17   37 1   
    26   18   38 1   
    27   19   20 1   
    28   19   21 1   
    29   19   39 1   
    30   20   40 1   
    31   21   22 1   
    32   21   41 1   
    33   22   23 1   
    34   22   31 1   
    35   23   24 2   
    36   23   42 1   
    37   24   25 1   
    38   25   26 ar  
    39   25   31 ar  
    40   26   27 1   
    41   26   28 ar  
    42   27   43 1   
    43   27   44 1   
    44   28   29 ar  
    45   29   30 ar  
    46   29   45 1   
    47   30   31 ar  
@<TRIPOS>SUBSTRUCTURE
     1 AGS         1 TEMP              0 ****  ****    0 ROOT
