@<TRIPOS>MOLECULE
AGS
   45    47     1     0     0
SMALL
bcc


@<TRIPOS>ATOM
      1 PG         -2.2760   -0.2000   -1.2870 p5        1 AGS      1.552200
      2 S1G        -1.6480    0.7840    0.1950 s         1 AGS     -0.743000
      3 O2G        -3.5910   -1.0500   -1.0010 oh        1 AGS     -0.807400
      4 O3G        -2.8530    0.6990   -2.4690 oh        1 AGS     -0.807400
      5 PB         -0.5400   -2.4010   -2.9970 p5        1 AGS      1.697800
      6 O1B         0.5340   -1.6710   -3.6670 o         1 AGS     -0.853000
      7 O2B        -0.4080   -3.5670   -2.1220 o         1 AGS     -0.853000
      8 O3B        -1.3820   -1.2070   -2.0320 os        1 AGS     -0.795800
      9 PA         -3.2410   -2.6830   -4.7430 p5        1 AGS      1.617800
     10 O1A        -4.0810   -1.7820   -3.8950 o         1 AGS     -0.887000
     11 O2A        -3.1820   -2.6480   -6.2070 o         1 AGS     -0.887000
     12 O3A        -1.8090   -2.6360   -3.9900 os        1 AGS     -0.824800
     13 O5'        -3.7470   -4.2080   -4.3500 os        1 AGS     -0.599200
     14 C5'        -3.9090   -4.5000   -3.0010 c3        1 AGS      0.180400
     15 C4'        -5.1970   -5.2990   -2.7600 c3        1 AGS      0.122100
     16 O4'        -6.2580   -4.4120   -2.3360 os        1 AGS     -0.413600
     17 C3'        -5.6820   -6.0680   -4.0010 c3        1 AGS      0.129100
     18 O3'        -6.0380   -7.3770   -3.5840 oh        1 AGS     -0.609800
     19 C2'        -6.8930   -5.2560   -4.5050 c3        1 AGS      0.072100
     20 O2'        -7.8980   -6.1500   -4.9410 oh        1 AGS     -0.613800
     21 C1'        -7.3570   -4.4530   -3.2480 c3        1 AGS      0.232800
     22 N9         -7.8330   -3.1180   -3.5310 na        1 AGS     -0.278000
     23 C8         -7.1440   -1.8770   -3.4720 cc        1 AGS      0.482700
     24 N7         -7.9500   -0.8180   -3.6520 nd        1 AGS     -0.582100
     25 C5         -9.2350   -1.3500   -3.8320 ca        1 AGS     -0.195200
     26 C6        -10.5120   -0.7500   -4.0640 ca        1 AGS      0.713200
     27 N6        -10.6090    0.6220   -4.2420 nh        1 AGS     -0.939500
     28 N1        -11.6200   -1.5550   -4.1650 nb        1 AGS     -0.803000
     29 C2        -11.4230   -2.9000   -4.0810 ca        1 AGS      0.649900
     30 N3        -10.2870   -3.6060   -3.8870 nb        1 AGS     -0.738000
     31 C4         -9.1840   -2.8070   -3.7500 ca        1 AGS      0.420800
     32 HOG2       -4.0040   -1.4840   -1.7560 ho        1 AGS      0.508000
     33 H21        -3.2870    0.2400   -3.1950 ho        1 AGS      0.508000
     34 H5'1       -3.9480   -3.5510   -2.3940 h1        1 AGS      0.057200
     35 H5'2       -3.0470   -5.1390   -2.6520 h1        1 AGS      0.057200
     36 H4'        -5.0520   -5.9990   -1.8910 h1        1 AGS      0.074700
     37 H3'        -4.8820   -6.1220   -4.7880 h1        1 AGS      0.107700
     38 HO3'       -6.5460   -7.7690   -4.3040 ho        1 AGS      0.409000
     39 H2'        -6.5800   -4.5800   -5.3440 h1        1 AGS      0.090700
     40 HO2'       -8.6860   -5.6190   -5.1120 ho        1 AGS      0.420000
     41 H1'        -8.1950   -5.0130   -2.7290 h2        1 AGS      0.079700
     42 H8         -6.0350   -1.8310   -3.3200 h5        1 AGS      0.173800
     43 HN61      -11.4990    1.0410   -4.1240 hn        1 AGS      0.421300
     44 HN62       -9.8230    1.1490   -3.9360 hn        1 AGS      0.421300
     45 H2        -12.3460   -3.5070   -4.1850 h5        1 AGS      0.030100
@<TRIPOS>BOND
     1    1    2 2   
     2    1    3 1   
     3    1    4 1   
     4    1    8 1   
     5    3   32 1   
     6    4   33 1   
     7    5    6 1   
     8    5    7 1   
     9    5    8 1   
    10    5   12 1   
    11    9   10 1   
    12    9   11 1   
    13    9   12 1   
    14    9   13 1   
    15   13   14 1   
    16   14   15 1   
    17   14   34 1   
    18   14   35 1   
    19   15   16 1   
    20   15   17 1   
    21   15   36 1   
    22   16   21 1   
    23   17   18 1   
    24   17   19 1   
    25   17   37 1   
    26   18   38 1   
    27   19   20 1   
    28   19   21 1   
    29   19   39 1   
    30   20   40 1   
    31   21   22 1   
    32   21   41 1   
    33   22   23 1   
    34   22   31 1   
    35   23   24 2   
    36   23   42 1   
    37   24   25 1   
    38   25   26 ar  
    39   25   31 ar  
    40   26   27 1   
    41   26   28 ar  
    42   27   43 1   
    43   27   44 1   
    44   28   29 ar  
    45   29   30 ar  
    46   29   45 1   
    47   30   31 ar  
@<TRIPOS>SUBSTRUCTURE
     1 AGS         1 TEMP              0 ****  ****    0 ROOT
