@<TRIPOS>MOLECULE
AGS
   45    47     1     0     0
SMALL
bcc


@<TRIPOS>ATOM
      1 PG          0.5270   -0.5210   -1.7400 p5        1 AGS      1.555200
      2 S1G         2.0230    0.3400   -0.9770 s         1 AGS     -0.746000
      3 O2G        -0.8670   -0.0810   -1.1100 oh        1 AGS     -0.808900
      4 O3G         0.2310   -0.0970   -3.2440 oh        1 AGS     -0.808900
      5 PB          0.1060   -3.7700   -1.9480 p5        1 AGS      1.699800
      6 O1B         1.0750   -4.2350   -2.9380 o         1 AGS     -0.848000
      7 O2B        -0.0720   -4.2690   -0.5870 o         1 AGS     -0.848000
      8 O3B         0.4130   -2.0560   -1.7860 os        1 AGS     -0.796800
      9 PA         -2.6700   -2.9520   -3.3560 p5        1 AGS      1.635800
     10 O1A        -2.4740   -1.4830   -3.3100 o         1 AGS     -0.905000
     11 O2A        -3.1560   -3.6900   -4.5430 o         1 AGS     -0.905000
     12 O3A        -1.3460   -3.5510   -2.6740 os        1 AGS     -0.812800
     13 O5'        -3.8590   -3.3250   -2.2450 os        1 AGS     -0.573200
     14 C5'        -5.1620   -3.1070   -2.6620 c3        1 AGS      0.209400
     15 C4'        -5.8230   -4.4180   -3.1300 c3        1 AGS      0.059100
     16 O4'        -7.1850   -4.4610   -2.6540 os        1 AGS     -0.420600
     17 C3'        -5.8400   -4.5960   -4.6620 c3        1 AGS      0.119100
     18 O3'        -5.0620   -5.7040   -5.0500 oh        1 AGS     -0.645800
     19 C2'        -7.3110   -4.8770   -5.0340 c3        1 AGS      0.109100
     20 O2'        -7.5870   -6.2080   -5.4010 oh        1 AGS     -0.596800
     21 C1'        -8.1130   -4.5430   -3.7290 c3        1 AGS      0.212800
     22 N9         -8.8770   -3.3090   -3.8150 na        1 AGS     -0.263000
     23 C8         -8.3900   -1.9870   -3.6930 cc        1 AGS      0.439700
     24 N7         -9.3490   -1.0480   -3.7460 nd        1 AGS     -0.571100
     25 C5        -10.5460   -1.7620   -3.8940 ca        1 AGS     -0.215200
     26 C6        -11.9130   -1.3540   -4.0040 ca        1 AGS      0.721200
     27 N6        -12.2280   -0.0050   -4.0750 nh        1 AGS     -0.940500
     28 N1        -12.8900   -2.3110   -4.0960 nb        1 AGS     -0.802000
     29 C2        -12.4870   -3.6140   -4.1140 ca        1 AGS      0.658900
     30 N3        -11.2490   -4.1470   -4.0390 nb        1 AGS     -0.713000
     31 C4        -10.2690   -3.1990   -3.9240 ca        1 AGS      0.448800
     32 HOG2       -1.6640   -0.4180   -1.5340 ho        1 AGS      0.512500
     33 H21        -0.5880   -0.4200   -3.6380 ho        1 AGS      0.512500
     34 H5'1       -5.7480   -2.7160   -1.7820 h1        1 AGS      0.018200
     35 H5'2       -5.1820   -2.3440   -3.4910 h1        1 AGS      0.018200
     36 H4'        -5.3080   -5.2890   -2.6370 h1        1 AGS      0.100700
     37 H3'        -5.4740   -3.6680   -5.1820 h1        1 AGS      0.094700
     38 HO3'       -4.1340   -5.3940   -5.0690 ho        1 AGS      0.493000
     39 H2'        -7.6420   -4.2550   -5.9070 h1        1 AGS      0.080700
     40 HO2'       -6.9020   -6.7750   -5.0180 ho        1 AGS      0.430000
     41 H1'        -8.8320   -5.3780   -3.4750 h2        1 AGS      0.108700
     42 H8         -7.3120   -1.8000   -3.5530 h5        1 AGS      0.098800
     43 HN61      -11.5230    0.6190   -3.7570 hn        1 AGS      0.421800
     44 HN62      -13.1680    0.2600   -3.8990 hn        1 AGS      0.421800
     45 H2        -13.3150   -4.3490   -4.2000 h5        1 AGS      0.037100
@<TRIPOS>BOND
     1    1    2 2   
     2    1    3 1   
     3    1    4 1   
     4    1    8 1   
     5    3   32 1   
     6    4   33 1   
     7    5    6 1   
     8    5    7 1   
     9    5    8 1   
    10    5   12 1   
    11    9   10 1   
    12    9   11 1   
    13    9   12 1   
    14    9   13 1   
    15   13   14 1   
    16   14   15 1   
    17   14   34 1   
    18   14   35 1   
    19   15   16 1   
    20   15   17 1   
    21   15   36 1   
    22   16   21 1   
    23   17   18 1   
    24   17   19 1   
    25   17   37 1   
    26   18   38 1   
    27   19   20 1   
    28   19   21 1   
    29   19   39 1   
    30   20   40 1   
    31   21   22 1   
    32   21   41 1   
    33   22   23 1   
    34   22   31 1   
    35   23   24 2   
    36   23   42 1   
    37   24   25 1   
    38   25   26 ar  
    39   25   31 ar  
    40   26   27 1   
    41   26   28 ar  
    42   27   43 1   
    43   27   44 1   
    44   28   29 ar  
    45   29   30 ar  
    46   29   45 1   
    47   30   31 ar  
@<TRIPOS>SUBSTRUCTURE
     1 AGS         1 TEMP              0 ****  ****    0 ROOT
