@<TRIPOS>MOLECULE
AGS
   45    47     1     0     0
SMALL
bcc


@<TRIPOS>ATOM
      1 PG         -4.5240    0.3150    0.1370 p5        1 AGS      1.555200
      2 S1G        -6.0660    0.5710    1.1890 s         1 AGS     -0.739000
      3 O2G        -3.5620   -0.8430    0.6540 oh        1 AGS     -0.810900
      4 O3G        -4.8010   -0.2700   -1.3170 oh        1 AGS     -0.810900
      5 PB         -2.3280    2.6230   -0.6240 p5        1 AGS      1.721800
      6 O1B        -3.0250    3.5790   -1.4790 o         1 AGS     -0.870000
      7 O2B        -1.5560    2.9260    0.5910 o         1 AGS     -0.870000
      8 O3B        -3.5400    1.4690   -0.1460 os        1 AGS     -0.798800
      9 PA         -0.7990    0.2040   -2.1230 p5        1 AGS      1.605800
     10 O1A        -1.8070   -0.8330   -1.7730 o         1 AGS     -0.874500
     11 O2A        -0.1970    0.4280   -3.4390 o         1 AGS     -0.874500
     12 O3A        -1.4560    1.5400   -1.4560 os        1 AGS     -0.826800
     13 O5'         0.4870   -0.0080   -1.0870 os        1 AGS     -0.603200
     14 C5'         0.2170   -0.5930    0.1450 c3        1 AGS      0.181400
     15 C4'         0.9050    0.1150    1.3190 c3        1 AGS      0.089100
     16 O4'         2.1310   -0.5700    1.6510 os        1 AGS     -0.428600
     17 C3'         1.2330    1.6050    1.1200 c3        1 AGS      0.120100
     18 O3'         0.7620    2.3490    2.2250 oh        1 AGS     -0.658800
     19 C2'         2.7750    1.6930    1.0870 c3        1 AGS      0.113100
     20 O2'         3.3440    2.5660    2.0330 oh        1 AGS     -0.603800
     21 C1'         3.2720    0.2360    1.3730 c3        1 AGS      0.218800
     22 N9          4.0460   -0.3400    0.2900 na        1 AGS     -0.265000
     23 C8          3.6180   -0.5960   -1.0370 cc        1 AGS      0.455700
     24 N7          4.5390   -1.2230   -1.7870 nd        1 AGS     -0.581100
     25 C5          5.6330   -1.4240   -0.9320 ca        1 AGS     -0.206200
     26 C6          6.9100   -2.0370   -1.1200 ca        1 AGS      0.705200
     27 N6          7.2880   -2.4770   -2.3860 nh        1 AGS     -0.934500
     28 N1          7.7710   -2.1280   -0.0570 nb        1 AGS     -0.803000
     29 C2          7.3620   -1.5810    1.1230 ca        1 AGS      0.648900
     30 N3          6.2090   -0.9580    1.4440 nb        1 AGS     -0.714000
     31 C4          5.3320   -0.8870    0.3960 ca        1 AGS      0.442800
     32 HOG2       -2.8760   -1.1470    0.0470 ho        1 AGS      0.514000
     33 H21        -4.0320   -0.4980   -1.8520 ho        1 AGS      0.514000
     34 H5'1       -0.8940   -0.5910    0.3350 h1        1 AGS      0.038700
     35 H5'2        0.5870   -1.6600    0.1370 h1        1 AGS      0.038700
     36 H4'         0.2640   -0.0160    2.2380 h1        1 AGS      0.079700
     37 H3'         0.8040    1.9960    0.1620 h1        1 AGS      0.116700
     38 HO3'       -0.0920    2.7410    1.9590 ho        1 AGS      0.494000
     39 H2'         3.1270    2.0680    0.0880 h1        1 AGS      0.088700
     40 HO2'        2.7390    2.6370    2.7840 ho        1 AGS      0.428000
     41 H1'         3.9120    0.2090    2.3050 h2        1 AGS      0.100700
     42 H8          2.6000   -0.2960   -1.3700 h5        1 AGS      0.143800
     43 HN61        6.5360   -2.6150   -3.0220 hn        1 AGS      0.414800
     44 HN62        8.0200   -3.1460   -2.4300 hn        1 AGS      0.414800
     45 H2          8.0980   -1.6690    1.9490 h5        1 AGS      0.031100
@<TRIPOS>BOND
     1    1    2 2   
     2    1    3 1   
     3    1    4 1   
     4    1    8 1   
     5    3   32 1   
     6    4   33 1   
     7    5    6 1   
     8    5    7 1   
     9    5    8 1   
    10    5   12 1   
    11    9   10 1   
    12    9   11 1   
    13    9   12 1   
    14    9   13 1   
    15   13   14 1   
    16   14   15 1   
    17   14   34 1   
    18   14   35 1   
    19   15   16 1   
    20   15   17 1   
    21   15   36 1   
    22   16   21 1   
    23   17   18 1   
    24   17   19 1   
    25   17   37 1   
    26   18   38 1   
    27   19   20 1   
    28   19   21 1   
    29   19   39 1   
    30   20   40 1   
    31   21   22 1   
    32   21   41 1   
    33   22   23 1   
    34   22   31 1   
    35   23   24 2   
    36   23   42 1   
    37   24   25 1   
    38   25   26 ar  
    39   25   31 ar  
    40   26   27 1   
    41   26   28 ar  
    42   27   43 1   
    43   27   44 1   
    44   28   29 ar  
    45   29   30 ar  
    46   29   45 1   
    47   30   31 ar  
@<TRIPOS>SUBSTRUCTURE
     1 AGS         1 TEMP              0 ****  ****    0 ROOT
