@<TRIPOS>MOLECULE
AGT
   34    33     1     0     0
SMALL
bcc


@<TRIPOS>ATOM
      1 O           2.7710   -1.5340   -1.6480 o         1 AGT     -0.846800
      2 C           1.9370   -0.8600   -0.9870 c         1 AGT      0.881600
      3 CA          2.4430   -0.0600    0.2580 c3        1 AGT      0.019500
      4 N           3.6840   -0.5930    0.8130 n3        1 AGT     -0.884800
      5 CB          2.5780    1.4140   -0.1260 c3        1 AGT      0.030700
      6 SG          1.2910    2.4790    0.4680 ss        1 AGT     -0.363200
      7 CZ         -0.2580    2.0940   -0.4290 c3        1 AGT      0.524800
      8 NH2        -0.0070    1.9750   -1.8550 n3        1 AGT     -0.931800
      9 NE         -0.9550    1.0270    0.2890 n3        1 AGT     -0.845200
     10 CD         -2.3060    0.7900   -0.1780 c3        1 AGT      0.172800
     11 CG         -2.9810   -0.3730    0.5490 c3        1 AGT     -0.082400
     12 CK         -4.3840   -0.5740    0.0200 c3        1 AGT     -0.082400
     13 CJ         -5.0490   -1.7510    0.7300 c3        1 AGT      0.151800
     14 NB         -6.3900   -2.0340    0.2670 n3        1 AGT     -0.915800
     15 OXT         0.7010   -0.7970   -1.2660 o         1 AGT     -0.846800
     16 HA          1.6590   -0.1510    1.0650 h1        1 AGT      0.062700
     17 HN1         3.5250   -1.5610    1.0300 hn        1 AGT      0.332800
     18 HN2         4.3820   -0.5760    0.0890 hn        1 AGT      0.332800
     19 HB          3.4850    1.8760    0.3440 h1        1 AGT      0.068200
     20 HZ         -0.8510    3.0450   -0.2670 h3        1 AGT      0.067700
     21 HH21        0.6110    1.2000   -2.0440 hn        1 AGT      0.363800
     22 HH22       -0.8660    1.8090   -2.3470 hn        1 AGT      0.363800
     23 HE         -0.4170    0.1710    0.2500 hn        1 AGT      0.411800
     24 HDC1       -2.9040    1.7300   -0.0000 h1        1 AGT      0.013700
     25 HDC2       -2.3560    0.5720   -1.2870 h1        1 AGT      0.013700
     26 HGC1       -2.3810   -1.3090    0.4000 hc        1 AGT      0.052200
     27 HGC2       -3.0170   -0.1660    1.6510 hc        1 AGT      0.052200
     28 HKC1       -4.9890    0.3570    0.1760 hc        1 AGT      0.041200
     29 HKC2       -4.3440   -0.7660   -1.0850 hc        1 AGT      0.041200
     30 HJC1       -4.3670   -2.6480    0.6300 h1        1 AGT      0.027700
     31 HJC2       -5.1230   -1.5170    1.8310 h1        1 AGT      0.027700
     32 HBN1       -6.4420   -1.9720   -0.7310 hn        1 AGT      0.339800
     33 HBN2       -6.6610   -2.9550    0.5460 hn        1 AGT      0.339800
     34 HB2         2.6820    1.5030   -1.2330 h1        1 AGT      0.068200
@<TRIPOS>BOND
     1    1    2 1   
     2    2    3 1   
     3    2   15 1   
     4    3    4 1   
     5    3    5 1   
     6    3   16 1   
     7    4   17 1   
     8    4   18 1   
     9    5    6 1   
    10    5   19 1   
    11    5   34 1   
    12    6    7 1   
    13    7    8 1   
    14    7    9 1   
    15    7   20 1   
    16    8   21 1   
    17    8   22 1   
    18    9   10 1   
    19    9   23 1   
    20   10   11 1   
    21   10   24 1   
    22   10   25 1   
    23   11   12 1   
    24   11   26 1   
    25   11   27 1   
    26   12   13 1   
    27   12   28 1   
    28   12   29 1   
    29   13   14 1   
    30   13   30 1   
    31   13   31 1   
    32   14   32 1   
    33   14   33 1   
@<TRIPOS>SUBSTRUCTURE
     1 AGT         1 TEMP              0 ****  ****    0 ROOT
