@<TRIPOS>MOLECULE
AGU
   11     8     1     0     0
SMALL
bcc


@<TRIPOS>ATOM
      1 C           0.3040   -0.2330    0.4320 c1        1 AGU      0.538600
      2 N1          1.6090   -0.2840    0.4170 n1        1 AGU     -0.668800
      3 N2         -0.3910   -0.2220    1.6690 n2        1 AGU     -0.762600
      4 N3         -0.4190   -0.1870   -0.7880 n3        1 AGU     -0.462600
      5 N4         -0.1220    0.7800   -1.7340 n3        1 AGU     -0.679600
      6 HN1         2.0750   -0.3130    1.2020 DU        1 AGU      0.153000
      7 HN21       -0.4080    0.5370    2.1770 hn        1 AGU      0.397300
      8 HN22       -0.8170   -0.9770    1.9600 hn        1 AGU      0.397300
      9 HN3        -1.0800   -0.7940   -0.9490 hn        1 AGU      0.379800
     10 HN41        0.1030    0.3760   -2.5240 hn        1 AGU      0.353800
     11 HN42       -0.8530    1.3160   -1.8620 hn        1 AGU      0.353800
@<TRIPOS>BOND
     1    1    2 3   
     2    1    4 1   
     3    3    7 1   
     4    3    8 1   
     5    4    5 1   
     6    4    9 1   
     7    5   10 1   
     8    5   11 1   
@<TRIPOS>SUBSTRUCTURE
     1 AGU         1 TEMP              0 ****  ****    0 ROOT
