@<TRIPOS>MOLECULE
AGU
   14    13     1     0     0
SMALL
bcc


@<TRIPOS>ATOM
      1 C           0.1040    0.0720    0.1340 c2        1 AGU      0.672100
      2 N1          1.3390    0.1980   -0.0030 n2        1 AGU     -0.622100
      3 N2         -0.7950    0.0440    1.3220 n4        1 AGU     -0.841600
      4 N3         -0.7260   -0.0990   -1.2370 n4        1 AGU     -0.616800
      5 N4          0.0390   -0.0890   -2.4460 n4        1 AGU     -0.655400
      6 HN1         2.1150    0.3210    0.6450 hn        1 AGU      0.642400
      7 HN21       -0.2040    0.1610    2.1860 hn        1 AGU      0.540800
      8 HN22       -1.4830    0.8250    1.3210 hn        1 AGU      0.540800
      9 HN3        -1.2430   -1.0150   -1.1870 hn        1 AGU      0.546800
     10 HN41        0.5620    0.8230   -2.5580 hn        1 AGU      0.568800
     11 HN42       -0.6080   -0.2080   -3.2810 hn        1 AGU      0.568800
     12 H23        -1.2950   -0.8640    1.4220 hn        1 AGU      0.540800
     13 H32        -1.4250    0.6880   -1.2880 hn        1 AGU      0.546800
     14 H43         0.7450   -0.8760   -2.4570 hn        1 AGU      0.568800
@<TRIPOS>BOND
     1    1    2 2   
     2    1    3 1   
     3    1    4 1   
     4    2    6 1   
     5    3    7 1   
     6    3    8 1   
     7    3   12 1   
     8    4    5 1   
     9    4    9 1   
    10    4   13 1   
    11    5   10 1   
    12    5   11 1   
    13    5   14 1   
@<TRIPOS>SUBSTRUCTURE
     1 AGU         1 TEMP              0 ****  ****    0 ROOT
