@<TRIPOS>MOLECULE
AGU
   14    13     1     0     0
SMALL
bcc


@<TRIPOS>ATOM
      1 C           0.1040    0.0740    0.1340 c2        1 AGU      0.672100
      2 N1          1.3320    0.2510   -0.0040 n2        1 AGU     -0.622100
      3 N2         -0.7890   -0.0040    1.3250 n4        1 AGU     -0.841600
      4 N3         -0.7240   -0.1110   -1.2360 n4        1 AGU     -0.616800
      5 N4          0.0350   -0.0530   -2.4480 n4        1 AGU     -0.655400
      6 HN1         2.1060    0.3950    0.6430 hn        1 AGU      0.642400
      7 HN21       -1.2560   -0.9300    1.4130 hn        1 AGU      0.540800
      8 HN22       -1.5050    0.7510    1.3360 hn        1 AGU      0.540800
      9 HN3        -1.4540    0.6470   -1.2740 hn        1 AGU      0.546800
     10 HN41        0.5210    0.8800   -2.5490 hn        1 AGU      0.568800
     11 HN42        0.7720   -0.8110   -2.4720 hn        1 AGU      0.568800
     12 H23        -0.2000    0.1230    2.1880 hn        1 AGU      0.540800
     13 H32        -1.2030   -1.0480   -1.1970 hn        1 AGU      0.546800
     14 H43        -0.6090   -0.1870   -3.2830 hn        1 AGU      0.568800
@<TRIPOS>BOND
     1    1    2 2   
     2    1    3 1   
     3    1    4 1   
     4    2    6 1   
     5    3    7 1   
     6    3    8 1   
     7    3   12 1   
     8    4    5 1   
     9    4    9 1   
    10    4   13 1   
    11    5   10 1   
    12    5   11 1   
    13    5   14 1   
@<TRIPOS>SUBSTRUCTURE
     1 AGU         1 TEMP              0 ****  ****    0 ROOT
