@<TRIPOS>MOLECULE
AGU
   11    10     1     0     0
SMALL
bcc


@<TRIPOS>ATOM
      1 C          -0.0150    0.0670   -0.4700 c2        1 AGU      0.690100
      2 N1         -1.2900    0.3220   -0.3350 n2        1 AGU     -0.883100
      3 N2          0.6570   -0.1890   -1.7040 nh        1 AGU     -0.928800
      4 N3          0.8580    0.0210    0.7200 nh        1 AGU     -0.540000
      5 N4          0.3220    0.1270    1.9650 n3        1 AGU     -0.635600
      6 HN1        -1.8100    0.4270   -1.1780 hn        1 AGU      0.397400
      7 HN21        0.2610    0.2890   -2.4840 hn        1 AGU      0.394800
      8 HN22        1.6500   -0.1060   -1.6770 hn        1 AGU      0.394800
      9 HN3         1.3990   -0.8370    0.6870 hn        1 AGU      0.397800
     10 HN41        0.0470    1.0910    2.1110 hn        1 AGU      0.355800
     11 HN42       -0.5100   -0.4400    2.0960 hn        1 AGU      0.355800
@<TRIPOS>BOND
     1    1    2 2   
     2    1    3 1   
     3    1    4 1   
     4    2    6 1   
     5    3    7 1   
     6    3    8 1   
     7    4    5 1   
     8    4    9 1   
     9    5   10 1   
    10    5   11 1   
@<TRIPOS>SUBSTRUCTURE
     1 AGU         1 TEMP              0 ****  ****    0 ROOT
