@<TRIPOS>MOLECULE
AGU
   14    13     1     0     0
SMALL
bcc


@<TRIPOS>ATOM
      1 C           0.1020    0.0870    0.1330 c2        1 AGU      0.672100
      2 N1          1.3350    0.2330   -0.0040 n2        1 AGU     -0.622100
      3 N2         -0.7980    0.0640    1.3210 nz        1 AGU     -0.841600
      4 N3         -0.7230   -0.1200   -1.2360 ny        1 AGU     -0.616800
      5 N4          0.0430   -0.1160   -2.4440 nz        1 AGU     -0.655400
      6 HN1         2.1080    0.3790    0.6430 hn        1 AGU      0.642400
      7 HN21       -1.2830   -0.8500    1.4350 hn        1 AGU      0.540800
      8 HN22       -1.4990    0.8330    1.3060 hn        1 AGU      0.540800
      9 HN3        -1.4350    0.6540   -1.3000 hn        1 AGU      0.546800
     10 HN41        0.5510    0.8030   -2.5710 hn        1 AGU      0.568800
     11 HN42        0.7630   -0.8900   -2.4420 hn        1 AGU      0.568800
     12 H23        -0.2110    0.2050    2.1830 hn        1 AGU      0.540800
     13 H32        -1.2240   -1.0440   -1.1710 hn        1 AGU      0.546800
     14 H43        -0.6000   -0.2600   -3.2780 hn        1 AGU      0.568800
@<TRIPOS>BOND
     1    1    2 2   
     2    1    3 1   
     3    1    4 1   
     4    2    6 1   
     5    3    7 1   
     6    3    8 1   
     7    3   12 1   
     8    4    5 1   
     9    4    9 1   
    10    4   13 1   
    11    5   10 1   
    12    5   11 1   
    13    5   14 1   
@<TRIPOS>SUBSTRUCTURE
     1 AGU         1 TEMP              0 ****  ****    0 ROOT
