@<TRIPOS>MOLECULE
AGV
   37    34     1     0     0
SMALL
bcc


@<TRIPOS>ATOM
      1 O5'        -4.1870    0.3680   -1.0430 oh        1 AGV     -0.333000
      2 C5'        -2.7580    0.4430   -0.9840 c3        1 AGV     -0.029000
      3 C4'        -2.3500    0.4190    0.3490 c3        1 AGV     -0.107000
      4 C3'        -2.8970    1.7460    1.1260 c3        1 AGV     -0.025000
      5 O3'        -3.9730    1.3750    2.1050 oh        1 AGV     -0.324000
      6 N4'        -0.8570    0.4830    0.4440 n3        1 AGV     -0.213000
      7 C1'        -0.6000    1.7220    0.8750 c3        1 AGV     -0.123000
      8 C2'        -1.9170    2.1940    1.7250 c3        1 AGV      0.017000
      9 O2'        -1.8630    1.6190    3.1340 oh        1 AGV     -0.308000
     10 C7         -0.2730    0.2980   -0.8760 c3        1 AGV     -0.009000
     11 C9          1.1350   -0.2420   -0.7360 c2        1 AGV     -0.139000
     12 C8          2.0470    0.5340   -1.4060 c1        1 AGV     -0.058000
     13 N7          3.2190   -0.1580   -1.4740 n2        1 AGV     -0.185000
     14 C5          3.0340   -1.3730   -0.8420 c1        1 AGV     -0.151000
     15 C4          1.7540   -1.4210   -0.3900 c1        1 AGV      0.028000
     16 C6          3.8880   -2.4520   -0.6240 c1        1 AGV      0.131000
     17 N6          5.2900   -2.7430   -0.7710 n2        1 AGV     -0.314000
     18 N1          3.4440   -3.5400    0.0330 n2        1 AGV     -0.223000
     19 C2          2.1380   -3.5870    0.4920 c1        1 AGV     -0.024000
     20 N3          1.3040   -2.5360    0.2810 n1        1 AGV     -0.146000
     21 H1         -4.4320   -0.0000   -1.8080 ho        1 AGV      0.203000
     22 H2         -2.3480   -0.3620   -1.4840 h1        1 AGV      0.099000
     23 H3         -2.4520    1.2920   -1.4100 h1        1 AGV      0.099000
     24 H4         -2.6890   -0.4090    0.7990 h1        1 AGV      0.114000
     25 H5         -3.2520    2.4430    0.4420 h1        1 AGV      0.094000
     26 H6         -4.5610    2.0480    2.1710 ho        1 AGV      0.220000
     27 H8         -0.4580    2.3350    0.0950 h1        1 AGV      0.100500
     28 H9          0.2300    1.7240    1.4820 h1        1 AGV      0.100500
     29 H10        -1.9650    3.2080    1.7610 h1        1 AGV      0.115000
     30 H11        -1.7100    2.2510    3.6950 ho        1 AGV      0.219000
     31 H12        -0.8410   -0.3670   -1.4120 h1        1 AGV      0.084000
     32 H13        -0.2480    1.1640   -1.3480 h1        1 AGV      0.084000
     33 H14         1.8740    1.3790   -1.8060 DU        1 AGV      0.211500
     34 H15         4.0080    0.1370   -1.8760 DU        1 AGV      0.211500
     35 H16         5.8040   -2.7380   -0.0820 hn        1 AGV      0.194000
     36 H17         5.6400   -2.8910   -1.5980 hn        1 AGV      0.194000
     37 H18         1.8210   -4.3630    0.9610 ha        1 AGV      0.189000
@<TRIPOS>BOND
     1    1    2 1   
     2    1   21 1   
     3    2    3 1   
     4    2   22 1   
     5    2   23 1   
     6    3    4 1   
     7    3    6 1   
     8    3   24 1   
     9    4    5 1   
    10    4    8 1   
    11    4   25 1   
    12    5   26 1   
    13    6    7 1   
    14    6   10 1   
    15    7    8 1   
    16    7   27 1   
    17    7   28 1   
    18    8    9 1   
    19    8   29 1   
    20    9   30 1   
    21   10   11 1   
    22   10   31 1   
    23   10   32 1   
    24   11   12 1   
    25   11   15 1   
    26   12   13 1   
    27   13   14 1   
    28   14   16 1   
    29   15   20 1   
    30   16   18 1   
    31   17   35 1   
    32   17   36 1   
    33   18   19 1   
    34   19   37 1   
@<TRIPOS>SUBSTRUCTURE
     1 AGV         1 TEMP              0 ****  ****    0 ROOT
