@<TRIPOS>MOLECULE
AGV
   37    39     1     0     0
SMALL
bcc


@<TRIPOS>ATOM
      1 O5'        -4.3000    2.1710   -0.6040 oh        1 AGV     -0.595800
      2 C5'        -2.9500    1.7740   -0.4720 c3        1 AGV      0.107400
      3 C4'        -2.8120    0.2410   -0.4570 c3        1 AGV      0.134500
      4 C3'        -3.8200   -0.3600    0.5620 c3        1 AGV      0.094100
      5 O3'        -4.6790   -1.2190   -0.1660 oh        1 AGV     -0.600800
      6 N4'        -1.4840   -0.3000   -0.1450 n3        1 AGV     -0.731600
      7 C1'        -1.5050   -0.8740    1.2000 c3        1 AGV      0.125800
      8 C2'        -2.9730   -1.1500    1.5880 c3        1 AGV      0.101100
      9 O2'        -3.2890   -2.5250    1.5490 oh        1 AGV     -0.596800
     10 C7         -0.3770    0.6130   -0.3890 c3        1 AGV      0.243000
     11 C9          0.9510   -0.0350   -0.3090 cc        1 AGV     -0.267000
     12 C8          1.3050   -1.3190   -0.7330 cd        1 AGV     -0.065100
     13 N7          2.6750   -1.5300   -0.5780 na        1 AGV     -0.165400
     14 C5          3.2200   -0.3900    0.0140 ca        1 AGV     -0.324800
     15 C4          2.1620    0.5950    0.1860 ca        1 AGV      0.454100
     16 C6          4.5480   -0.0410    0.4170 ca        1 AGV      0.653200
     17 N6          5.5740   -0.9970    0.3300 nh        1 AGV     -0.917500
     18 N1          4.7640    1.1950    0.9500 nb        1 AGV     -0.750000
     19 C2          3.6870    2.0270    1.0750 ca        1 AGV      0.639900
     20 N3          2.4020    1.8190    0.7220 nb        1 AGV     -0.681000
     21 H1         -4.6810    1.6670   -1.3350 ho        1 AGV      0.407000
     22 H2         -2.3470    2.2070   -1.3160 h1        1 AGV      0.052200
     23 H3         -2.6150    2.2310    0.4970 h1        1 AGV      0.052200
     24 H4         -3.0710   -0.1410   -1.4890 h1        1 AGV      0.082700
     25 H5         -4.4230    0.4460    1.0580 h1        1 AGV      0.071700
     26 H6         -5.1990   -1.7100    0.4850 ho        1 AGV      0.417000
     27 H8         -0.9200   -1.8330    1.1730 h1        1 AGV      0.055700
     28 H9         -1.0340   -0.1990    1.9670 h1        1 AGV      0.055700
     29 H10        -3.1870   -0.8390    2.6440 h1        1 AGV      0.088700
     30 H11        -3.1210   -2.8330    0.6470 ho        1 AGV      0.417000
     31 H12        -0.5060    1.0180   -1.4370 h1        1 AGV      0.053700
     32 H13        -0.3870    1.4950    0.3210 h1        1 AGV      0.053700
     33 H14         0.6610   -2.0950   -1.1560 h4        1 AGV      0.183000
     34 H15         3.1210   -2.4100   -0.6010 hn        1 AGV      0.301700
     35 H16         5.5760   -1.4850   -0.5390 hn        1 AGV      0.399300
     36 H17         6.4810   -0.6630    0.5870 hn        1 AGV      0.399300
     37 H18         3.9190    3.0170    1.5230 h5        1 AGV      0.052100
@<TRIPOS>BOND
     1    1    2 1   
     2    1   21 1   
     3    2    3 1   
     4    2   22 1   
     5    2   23 1   
     6    3    4 1   
     7    3    6 1   
     8    3   24 1   
     9    4    5 1   
    10    4    8 1   
    11    4   25 1   
    12    5   26 1   
    13    6    7 1   
    14    6   10 1   
    15    7    8 1   
    16    7   27 1   
    17    7   28 1   
    18    8    9 1   
    19    8   29 1   
    20    9   30 1   
    21   10   11 1   
    22   10   31 1   
    23   10   32 1   
    24   11   12 2   
    25   11   15 1   
    26   12   13 1   
    27   12   33 1   
    28   13   14 1   
    29   13   34 1   
    30   14   15 ar  
    31   14   16 ar  
    32   15   20 ar  
    33   16   17 1   
    34   16   18 ar  
    35   17   35 1   
    36   17   36 1   
    37   18   19 ar  
    38   19   20 ar  
    39   19   37 1   
@<TRIPOS>SUBSTRUCTURE
     1 AGV         1 TEMP              0 ****  ****    0 ROOT
