@<TRIPOS>MOLECULE
AGV
   37    39     1     0     0
SMALL
bcc


@<TRIPOS>ATOM
      1 O5'        -0.1290   -0.1810    0.1160 oh        1 AGV     -0.596800
      2 C5'         1.2820   -0.1430    0.0470 c3        1 AGV      0.107400
      3 C4'         1.9070    0.1050    1.4330 c3        1 AGV      0.137500
      4 C3'         1.1710    1.2850    2.1280 c3        1 AGV      0.093100
      5 O3'         0.5960    0.7700    3.3150 oh        1 AGV     -0.598800
      6 N4'         3.3480    0.3880    1.4690 n3        1 AGV     -0.724600
      7 C1'         3.5530    1.7920    1.8120 c3        1 AGV      0.125800
      8 C2'         2.2550    2.3420    2.4410 c3        1 AGV      0.102100
      9 O2'         2.3810    2.5410    3.8320 oh        1 AGV     -0.597800
     10 C7          4.0930   -0.0830    0.3140 c3        1 AGV      0.244000
     11 C9          5.5600   -0.1460    0.5100 cc        1 AGV     -0.250000
     12 C8          6.4290    0.8500    0.9620 cd        1 AGV     -0.080100
     13 N7          7.7420    0.3800    1.0060 na        1 AGV     -0.163400
     14 C5          7.7470   -0.9250    0.5190 ca        1 AGV     -0.320800
     15 C4          6.3780   -1.3080    0.2060 ca        1 AGV      0.455100
     16 C6          8.7890   -1.8870    0.3190 ca        1 AGV      0.652200
     17 N6         10.1260   -1.5190    0.5440 nh        1 AGV     -0.916500
     18 N1          8.4560   -3.1170   -0.1630 nb        1 AGV     -0.749000
     19 C2          7.1360   -3.3540   -0.4350 ca        1 AGV      0.638900
     20 N3          6.0730   -2.5400   -0.2780 nb        1 AGV     -0.679000
     21 H1         -0.3690   -0.7810    0.8330 ho        1 AGV      0.408000
     22 H2          1.6630   -1.1100   -0.3800 h1        1 AGV      0.052200
     23 H3          1.5080    0.6940   -0.6650 h1        1 AGV      0.052200
     24 H4          1.7580   -0.8290    2.0530 h1        1 AGV      0.088700
     25 H5          0.3660    1.7060    1.4690 h1        1 AGV      0.071700
     26 H6          0.2700    1.5290    3.8180 ho        1 AGV      0.416000
     27 H8          4.3910    1.8430    2.5610 h1        1 AGV      0.047200
     28 H9          3.8350    2.4200    0.9210 h1        1 AGV      0.047200
     29 H10         1.9930    3.3520    2.0310 h1        1 AGV      0.085700
     30 H11         2.5940    1.6840    4.2290 ho        1 AGV      0.421000
     31 H12         3.7310   -1.1300    0.0870 h1        1 AGV      0.052700
     32 H13         3.8910    0.5540   -0.6020 h1        1 AGV      0.052700
     33 H14         6.1970    1.8690    1.2820 h4        1 AGV      0.172000
     34 H15         8.5450    0.9440    1.1050 hn        1 AGV      0.302700
     35 H16        10.2510   -1.0310    1.4050 hn        1 AGV      0.398800
     36 H17        10.7890   -2.2560    0.4220 hn        1 AGV      0.398800
     37 H18         6.9230   -4.3690   -0.8340 h5        1 AGV      0.052100
@<TRIPOS>BOND
     1    1    2 1   
     2    1   21 1   
     3    2    3 1   
     4    2   22 1   
     5    2   23 1   
     6    3    4 1   
     7    3    6 1   
     8    3   24 1   
     9    4    5 1   
    10    4    8 1   
    11    4   25 1   
    12    5   26 1   
    13    6    7 1   
    14    6   10 1   
    15    7    8 1   
    16    7   27 1   
    17    7   28 1   
    18    8    9 1   
    19    8   29 1   
    20    9   30 1   
    21   10   11 1   
    22   10   31 1   
    23   10   32 1   
    24   11   12 2   
    25   11   15 1   
    26   12   13 1   
    27   12   33 1   
    28   13   14 1   
    29   13   34 1   
    30   14   15 ar  
    31   14   16 ar  
    32   15   20 ar  
    33   16   17 1   
    34   16   18 ar  
    35   17   35 1   
    36   17   36 1   
    37   18   19 ar  
    38   19   20 ar  
    39   19   37 1   
@<TRIPOS>SUBSTRUCTURE
     1 AGV         1 TEMP              0 ****  ****    0 ROOT
