@<TRIPOS>MOLECULE
AGV
   37    39     1     0     0
SMALL
bcc


@<TRIPOS>ATOM
      1 O5'        -0.2490   -0.6380    0.8850 oh        1 AGV     -0.595800
      2 C5'         1.1580   -0.7350    0.8020 c3        1 AGV      0.107400
      3 C4'         1.8470    0.1730    1.8370 c3        1 AGV      0.134500
      4 C3'         1.2380    1.6010    1.7610 c3        1 AGV      0.094100
      5 O3'         0.6830    1.8810    3.0330 oh        1 AGV     -0.600800
      6 N4'         3.3060    0.3020    1.7360 n3        1 AGV     -0.731600
      7 C1'         3.6330    1.6310    1.2210 c3        1 AGV      0.125800
      8 C2'         2.4160    2.5530    1.4420 c3        1 AGV      0.102100
      9 O2'         2.6220    3.4700    2.4940 oh        1 AGV     -0.596800
     10 C7          3.9710   -0.7910    1.0440 c3        1 AGV      0.243000
     11 C9          5.4450   -0.7630    1.1780 cc        1 AGV     -0.267000
     12 C8          6.1970   -0.3920    2.2950 cd        1 AGV     -0.065100
     13 N7          7.5590   -0.5940    2.0630 na        1 AGV     -0.165400
     14 C5          7.7070   -1.0450    0.7520 ca        1 AGV     -0.324800
     15 C4          6.3860   -1.1850    0.1560 ca        1 AGV      0.454100
     16 C6          8.8500   -1.3990   -0.0340 ca        1 AGV      0.653200
     17 N6         10.1390   -1.2050    0.4890 nv        1 AGV     -0.917500
     18 N1          8.6540   -1.8460   -1.3060 nb        1 AGV     -0.750000
     19 C2          7.3660   -1.9200   -1.7590 ca        1 AGV      0.639900
     20 N3          6.2170   -1.6310   -1.1150 nb        1 AGV     -0.681000
     21 H1         -0.4930   -0.7340    1.8150 ho        1 AGV      0.407000
     22 H2          1.4010   -0.4230   -0.2490 h1        1 AGV      0.052200
     23 H3          1.4710   -1.8020    0.9570 h1        1 AGV      0.052200
     24 H4          1.6400   -0.2530    2.8640 h1        1 AGV      0.082700
     25 H5          0.4370    1.6590    0.9770 h1        1 AGV      0.071700
     26 H6          0.4480    2.8190    3.0350 ho        1 AGV      0.417000
     27 H8          3.9020    1.6170    0.1280 h1        1 AGV      0.055700
     28 H9          4.5220    2.0110    1.7940 h1        1 AGV      0.055700
     29 H10         2.2130    3.1910    0.5430 h1        1 AGV      0.088700
     30 H11         2.7970    2.9560    3.2950 ho        1 AGV      0.417000
     31 H12         3.5960   -1.7530    1.5050 h1        1 AGV      0.053700
     32 H13         3.7130   -0.8170   -0.0580 h1        1 AGV      0.053700
     33 H14         5.8420   -0.0110    3.2570 h4        1 AGV      0.183000
     34 H15         8.2900   -0.2130    2.6060 hn        1 AGV      0.301700
     35 H16        10.2300   -1.5300    1.4280 hn        1 AGV      0.399300
     36 H17        10.8830   -1.5180   -0.1000 hn        1 AGV      0.399300
     37 H18         7.2650   -2.2810   -2.8050 h5        1 AGV      0.052100
@<TRIPOS>BOND
     1    1    2 1   
     2    1   21 1   
     3    2    3 1   
     4    2   22 1   
     5    2   23 1   
     6    3    4 1   
     7    3    6 1   
     8    3   24 1   
     9    4    5 1   
    10    4    8 1   
    11    4   25 1   
    12    5   26 1   
    13    6    7 1   
    14    6   10 1   
    15    7    8 1   
    16    7   27 1   
    17    7   28 1   
    18    8    9 1   
    19    8   29 1   
    20    9   30 1   
    21   10   11 1   
    22   10   31 1   
    23   10   32 1   
    24   11   12 2   
    25   11   15 1   
    26   12   13 1   
    27   12   33 1   
    28   13   14 1   
    29   13   34 1   
    30   14   15 ar  
    31   14   16 ar  
    32   15   20 ar  
    33   16   17 1   
    34   16   18 ar  
    35   17   35 1   
    36   17   36 1   
    37   18   19 ar  
    38   19   20 ar  
    39   19   37 1   
@<TRIPOS>SUBSTRUCTURE
     1 AGV         1 TEMP              0 ****  ****    0 ROOT
