@<TRIPOS>MOLECULE
AGV
   38    40     1     0     0
SMALL
bcc


@<TRIPOS>ATOM
      1 O5'         1.1710   -1.6140    2.0800 oh        1 AGV     -0.583800
      2 C5'         2.0870   -0.8910    1.2880 c3        1 AGV      0.107400
      3 C4'         2.7210    0.2750    2.0680 c3        1 AGV      0.133500
      4 C3'         1.6070    1.1020    2.7790 c3        1 AGV      0.148100
      5 O3'         1.9550    1.1440    4.1460 oh        1 AGV     -0.597800
      6 N4'         3.5410    1.2180    1.3070 n3        1 AGV     -0.751600
      7 C1'         2.7970    2.4540    1.0910 c3        1 AGV      0.141800
      8 C2'         1.6050    2.4810    2.0760 c3        1 AGV      0.100100
      9 O2'         1.7680    3.4730    3.0690 oh        1 AGV     -0.592800
     10 C7          4.2380    0.7160    0.1420 c3        1 AGV      0.244000
     11 C9          5.4930    0.0030    0.4960 cc        1 AGV     -0.224000
     12 C8          6.1840    0.0260    1.7030 cd        1 AGV     -0.023100
     13 N7          7.3500   -0.7590    1.6310 na        1 AGV     -0.191400
     14 C5          7.4320   -1.3030    0.3650 ca        1 AGV     -0.246800
     15 C4          6.2490   -0.8410   -0.4170 ca        1 AGV      0.476100
     16 C6          8.3240   -2.1470   -0.3200 ca        1 AGV      0.438200
     17 N6          9.5330   -2.6720    0.3420 n4        1 AGV     -0.815300
     18 N1          8.1130   -2.5140   -1.6150 nb        1 AGV     -0.668000
     19 C2          7.0010   -2.0290   -2.2200 ca        1 AGV      0.646900
     20 N3          6.0510   -1.2080   -1.6880 nb        1 AGV     -0.591000
     21 H1          1.5860   -1.7830    2.9360 ho        1 AGV      0.409000
     22 H2          1.4800   -0.5260    0.4160 h1        1 AGV      0.046200
     23 H3          2.8920   -1.5840    0.9200 h1        1 AGV      0.046200
     24 H4          3.3950   -0.1660    2.8620 h1        1 AGV      0.072700
     25 H5          0.6050    0.6040    2.6710 h1        1 AGV      0.077700
     26 H6          1.5520    1.9320    4.5360 ho        1 AGV      0.435000
     27 H8          3.4930    3.3120    1.3000 h1        1 AGV      0.052700
     28 H9          2.4180    2.5520    0.0360 h1        1 AGV      0.052700
     29 H10         0.6420    2.6410    1.5220 h1        1 AGV      0.057700
     30 H11         1.6470    4.3280    2.6390 ho        1 AGV      0.419000
     31 H12         4.5240    1.5950   -0.5110 h1        1 AGV      0.067700
     32 H13         3.6060    0.0270   -0.4950 h1        1 AGV      0.067700
     33 H14         5.9250    0.5530    2.6320 h4        1 AGV      0.223000
     34 H15         7.9910   -0.8820    2.3710 hn        1 AGV      0.311700
     35 H16        10.1230   -1.8880    0.6370 hn        1 AGV      0.470133
     36 H17         9.2560   -3.2290    1.1570 hn        1 AGV      0.470133
     37 H18         6.8510   -2.3450   -3.2790 h5        1 AGV      0.097100
     38 H63        10.0680   -3.2700   -0.3060 hn        1 AGV      0.470133
@<TRIPOS>BOND
     1    1    2 1   
     2    1   21 1   
     3    2    3 1   
     4    2   22 1   
     5    2   23 1   
     6    3    4 1   
     7    3    6 1   
     8    3   24 1   
     9    4    5 1   
    10    4    8 1   
    11    4   25 1   
    12    5   26 1   
    13    6    7 1   
    14    6   10 1   
    15    7    8 1   
    16    7   27 1   
    17    7   28 1   
    18    8    9 1   
    19    8   29 1   
    20    9   30 1   
    21   10   11 1   
    22   10   31 1   
    23   10   32 1   
    24   11   12 2   
    25   11   15 1   
    26   12   13 1   
    27   12   33 1   
    28   13   14 1   
    29   13   34 1   
    30   14   15 ar  
    31   14   16 ar  
    32   15   20 ar  
    33   16   17 1   
    34   16   18 ar  
    35   17   35 1   
    36   17   36 1   
    37   17   38 1   
    38   18   19 ar  
    39   19   20 ar  
    40   19   37 1   
@<TRIPOS>SUBSTRUCTURE
     1 AGV         1 TEMP              0 ****  ****    0 ROOT
