@<TRIPOS>MOLECULE
AGX
   36    36     1     0     0
SMALL
bcc


@<TRIPOS>ATOM
      1 C           1.0890    0.1810    1.4270 c3        1 AGX     -0.117000
      2 N          -1.2400   -0.4110    2.2630 na        1 AGX     -0.171000
      3 O          -4.0740   -0.2940    2.5750 os        1 AGX     -0.298000
      4 Cl         -7.2700    3.5980    3.4360 cl        1 AGX     -0.002000
      5 C1          0.8160    1.2680    0.4510 c2        1 AGX      0.178000
      6 N1         -1.0900    0.1550    4.4650 n2        1 AGX     -0.121000
      7 O1         -5.8910   -0.2180    3.9120 o         1 AGX     -0.321000
      8 Cl1        -9.4080    2.9570    5.7680 cl        1 AGX      0.004000
      9 C2          1.1810    1.2110   -0.8160 c1        1 AGX     -0.587000
     10 N2         -6.0140    0.6060    1.6630 ns        1 AGX     -0.155000
     11 C3          1.5240    1.1790   -2.0450 c1        1 AGX      0.208000
     12 C4          0.0510    0.0810    2.4700 c2        1 AGX     -0.135000
     13 C5          0.1210    0.4160    3.8430 c2        1 AGX     -0.151000
     14 C6         -1.9060   -0.3440    3.4940 c2        1 AGX     -0.061000
     15 C7         -3.3190   -0.8090    3.7010 c3        1 AGX      0.122000
     16 C9         -7.2020    1.1360    1.5590 c1        1 AGX     -0.016000
     17 C10       -12.0510    2.2490    3.1930 c2        1 AGX     -0.130000
     18 C11       -10.8480    2.3840    3.6550 c1        1 AGX     -0.154000
     19 C12        -9.6370    2.5360    4.1290 c2        1 AGX     -0.009000
     20 C13        -8.4290    2.3550    3.3300 c2        1 AGX     -0.050000
     21 C14        -8.2420    1.2830    2.5370 c2        1 AGX     -0.156000
     22 C15        -3.4120   -2.3220    3.7050 c3        1 AGX     -0.237000
     23 H           1.2160   -0.8050    0.8970 hc        1 AGX      0.135000
     24 H1          2.0750    0.4120    1.9270 hc        1 AGX      0.135000
     25 H2          0.2910    2.1570    0.8550 ha        1 AGX      0.137000
     26 HN2        -5.4380    0.6130    0.8410 hn        1 AGX      0.272000
     27 H3          0.9700    0.8210    4.3940 h4        1 AGX      0.185000
     28 H7         -3.7270   -0.3780    4.6610 h1        1 AGX      0.158000
     29 H10       -12.5800    1.2830    3.2030 ha        1 AGX      0.140500
     30 H11       -12.6110    3.0940    2.7630 ha        1 AGX      0.140500
     31 H14        -9.0120    0.4870    2.4940 ha        1 AGX      0.173000
     32 H15        -4.4680   -2.6270    3.9000 hc        1 AGX      0.098333
     33 H15A       -3.0890   -2.7440    2.7240 hc        1 AGX      0.098333
     34 H15B       -2.7570   -2.7310    4.5120 hc        1 AGX      0.098333
     35 HN         -1.6350   -0.6960    1.4050 hn        1 AGX      0.261000
     36 C8         -5.3890    0.0280    2.8130 c2        1 AGX      0.328000
@<TRIPOS>BOND
     1    1    5 1   
     2    1   12 1   
     3    1   23 1   
     4    1   24 1   
     5    2   12 1   
     6    2   14 1   
     7    2   35 1   
     8    3   15 1   
     9    3   36 1   
    10    4   20 1   
    11    5    9 1   
    12    5   25 1   
    13    6   13 1   
    14    6   14 1   
    15    7   36 1   
    16    8   19 1   
    17    9   11 1   
    18   10   16 1   
    19   10   26 1   
    20   10   36 1   
    21   12   13 1   
    22   13   27 1   
    23   14   15 1   
    24   15   22 1   
    25   15   28 1   
    26   16   21 1   
    27   17   18 1   
    28   17   29 1   
    29   17   30 1   
    30   18   19 1   
    31   19   20 1   
    32   20   21 1   
    33   21   31 1   
    34   22   32 1   
    35   22   33 1   
    36   22   34 1   
@<TRIPOS>SUBSTRUCTURE
     1 AGX         1 TEMP              0 ****  ****    0 ROOT
