@<TRIPOS>MOLECULE
AGX
   36    32     1     0     0
SMALL
bcc


@<TRIPOS>ATOM
      1 C           5.3980    0.5420   -1.1030 c1        1 AGX     -0.116000
      2 N           3.1790    0.3990    0.2080 n2        1 AGX     -0.175000
      3 O          -0.3440   -0.5450    0.0620 os        1 AGX     -0.302000
      4 CL         -6.3790    3.0970   -1.2330 cl        1 AGX      0.014000
      5 C1          6.1260   -0.0500   -2.1660 c1        1 AGX     -0.116000
      6 N1          2.3390   -1.3290   -0.9270 n2        1 AGX     -0.175000
      7 O1         -1.5310    0.6390    1.5450 o         1 AGX     -0.376000
      8 CL1        -7.5800    2.6540    1.5550 cl        1 AGX      0.014000
      9 C2          5.5730   -1.1520   -2.8800 c1        1 AGX     -0.116000
     10 N2         -2.7830   -0.3460   -0.0460 n         1 AGX     -0.302000
     11 C3          4.3140   -1.6490   -2.5310 c1        1 AGX     -0.116000
     12 C4          4.1000    0.0240   -0.7490 c1        1 AGX     -0.051000
     13 C5          3.5700   -1.0480   -1.4480 c1        1 AGX     -0.051000
     14 C6          2.0920   -0.4370    0.0980 c1        1 AGX     -0.002000
     15 C7          0.8210   -0.3670    0.9340 c2        1 AGX      0.122000
     16 C8         -1.5500   -0.0570    0.6010 c2        1 AGX      0.410000
     17 C9         -3.9410    0.3400    0.3240 c2        1 AGX      0.092000
     18 C10        -4.4920    0.1400    1.5810 c2        1 AGX     -0.152000
     19 C11        -5.6300    0.8540    1.9670 c1        1 AGX     -0.088000
     20 C12        -6.2150    1.7730    1.0800 c1        1 AGX     -0.087000
     21 C13        -5.6710    1.9710   -0.1630 c2        1 AGX     -0.032000
     22 C14        -4.5220    1.2520   -0.5550 c2        1 AGX     -0.173000
     23 C15         0.8440   -1.4180    1.9270 c3        1 AGX     -0.229000
     24 H           5.7910    1.3300   -0.5880 ha        1 AGX      0.138000
     25 H1          7.0720    0.3260   -2.4320 ha        1 AGX      0.138000
     26 H2          6.0900   -1.5740   -3.6280 ha        1 AGX      0.138000
     27 HN2        -2.8230   -0.9740   -0.6520 hn        1 AGX      0.256000
     28 H3          3.8910   -2.4900   -3.0800 ha        1 AGX      0.138000
     29 H7          0.7700    0.4810    1.3680 h4        1 AGX      0.139000
     30 H10        -4.0760   -0.5090    2.2070 ha        1 AGX      0.182000
     31 H11        -6.0370    0.7070    2.8940 ha        1 AGX      0.158000
     32 H14        -4.2250    1.3020   -1.4180 ha        1 AGX      0.152000
     33 H15         1.3620   -1.1290    2.6920 hc        1 AGX      0.102333
     34 H15A       -0.0580   -1.6170    2.2050 hc        1 AGX      0.102333
     35 H15B        1.2520   -2.2250    1.5370 hc        1 AGX      0.102333
     36 HN          3.2730    1.0860    0.8130 DU        1 AGX      0.259000
@<TRIPOS>BOND
     1    1    5 1   
     2    1   24 1   
     3    2   12 1   
     4    2   14 1   
     5    3   15 1   
     6    3   16 1   
     7    4   21 1   
     8    5   25 1   
     9    6   13 1   
    10    6   14 1   
    11    7   16 1   
    12    8   20 1   
    13    9   11 1   
    14    9   26 1   
    15   10   16 1   
    16   10   17 1   
    17   10   27 1   
    18   11   28 1   
    19   12   13 1   
    20   15   23 1   
    21   15   29 1   
    22   17   18 1   
    23   17   22 1   
    24   18   19 1   
    25   18   30 1   
    26   19   31 1   
    27   20   21 1   
    28   21   22 1   
    29   22   32 1   
    30   23   33 1   
    31   23   34 1   
    32   23   35 1   
@<TRIPOS>SUBSTRUCTURE
     1 AGX         1 TEMP              0 ****  ****    0 ROOT
