@<TRIPOS>MOLECULE
AGX
   36    38     1     0     0
SMALL
bcc


@<TRIPOS>ATOM
      1 C           5.5350   -1.0920   -1.5640 ca        1 AGX     -0.136000
      2 N           3.6430   -1.0010    0.1610 na        1 AGX     -0.267300
      3 O           1.0870   -0.9020    1.3810 os        1 AGX     -0.464900
      4 CL         -4.6720    2.2950   -0.4050 cl        1 AGX     -0.057400
      5 C1          6.5890   -0.3300   -2.0450 ca        1 AGX     -0.110000
      6 N1          4.0670    1.1170    0.9590 nc        1 AGX     -0.550100
      7 O1         -0.2450    0.9330    1.3230 o         1 AGX     -0.552000
      8 CL1        -6.3940   -0.0550   -1.6190 cl        1 AGX     -0.065400
      9 C2          6.8630    0.9580   -1.5470 ca        1 AGX     -0.154000
     10 N2         -0.8990   -1.1080    0.2970 n         1 AGX     -0.447100
     11 C3          6.0930    1.5360   -0.5500 ca        1 AGX     -0.065000
     12 C4          4.7440   -0.5280   -0.5550 ca        1 AGX     -0.071200
     13 C5          5.0140    0.8020   -0.0350 ca        1 AGX      0.063400
     14 C6          3.2620    0.0370    1.0420 cd        1 AGX      0.383800
     15 C7          2.1130   -0.1050    2.0080 c3        1 AGX      0.147800
     16 C9         -2.2040   -0.8100   -0.1270 ca        1 AGX      0.084600
     17 C10        -2.9870   -1.8570   -0.6720 ca        1 AGX     -0.174000
     18 C11        -4.2730   -1.6060   -1.1280 ca        1 AGX     -0.089000
     19 C12        -4.8180   -0.3200   -1.0540 ca        1 AGX     -0.009600
     20 C13        -4.0500    0.7210   -0.5140 ca        1 AGX      0.047400
     21 C14        -2.7520    0.4850   -0.0530 ca        1 AGX     -0.150000
     22 C15         2.5480   -0.8640    3.2490 c3        1 AGX     -0.104100
     23 H           5.3300   -2.0960   -1.9570 ha        1 AGX      0.135000
     24 H1          7.2320   -0.7400   -2.8390 ha        1 AGX      0.132000
     25 H2          7.7130    1.5170   -1.9660 ha        1 AGX      0.134000
     26 HN2        -0.5920   -2.0510    0.1940 hn        1 AGX      0.338500
     27 H3          6.3130    2.5420   -0.1660 ha        1 AGX      0.149000
     28 H7          1.7180    0.9180    2.2760 h1        1 AGX      0.126700
     29 H10        -2.5860   -2.8800   -0.7440 ha        1 AGX      0.140000
     30 H11        -4.8700   -2.4300   -1.5510 ha        1 AGX      0.154000
     31 H14        -2.1670    1.3230    0.3680 ha        1 AGX      0.193000
     32 H15         2.8650   -1.9010    2.9890 hc        1 AGX      0.058033
     33 H15A        3.4040   -0.3260    3.7230 hc        1 AGX      0.058033
     34 H15B        1.7000   -0.9200    3.9730 hc        1 AGX      0.058033
     35 HN          3.1300   -1.8240   -0.0110 hn        1 AGX      0.308700
     36 C8         -0.0770   -0.2520    1.0050 c         1 AGX      0.756100
@<TRIPOS>BOND
     1    1    5 ar  
     2    1   12 ar  
     3    1   23 1   
     4    2   12 1   
     5    2   14 1   
     6    2   35 1   
     7    3   15 1   
     8    3   36 1   
     9    4   20 1   
    10    5    9 ar  
    11    5   24 1   
    12    6   13 1   
    13    6   14 2   
    14    7   36 2   
    15    8   19 1   
    16    9   11 ar  
    17    9   25 1   
    18   10   16 1   
    19   10   26 1   
    20   10   36 1   
    21   11   13 ar  
    22   11   27 1   
    23   12   13 ar  
    24   14   15 1   
    25   15   22 1   
    26   15   28 1   
    27   16   17 ar  
    28   16   21 ar  
    29   17   18 ar  
    30   17   29 1   
    31   18   19 ar  
    32   18   30 1   
    33   19   20 ar  
    34   20   21 ar  
    35   21   31 1   
    36   22   32 1   
    37   22   33 1   
    38   22   34 1   
@<TRIPOS>SUBSTRUCTURE
     1 AGX         1 TEMP              0 ****  ****    0 ROOT
