@<TRIPOS>MOLECULE
AGX
   37    37     1     0     0
SMALL
bcc


@<TRIPOS>ATOM
      1 C           0.2760    0.7450    0.5770 c3        1 AGX     -0.124000
      2 N          -1.1870   -0.3030    2.4040 na        1 AGX     -0.136000
      3 O          -4.5820   -0.9590    3.7660 os        1 AGX     -0.244000
      4 CL         -7.1290    3.1400    1.7960 cl        1 AGX      0.025000
      5 C1          1.5420    0.5790    1.3290 c2        1 AGX      0.192000
      6 N1         -3.1880    0.6820    1.9480 n2        1 AGX     -0.225000
      7 O1         -5.1040    1.0540    4.7210 o         1 AGX     -0.194000
      8 CL1        -9.6890    4.8270    2.2880 cl        1 AGX      0.097000
      9 C2          1.6800   -0.0510    2.4810 c1        1 AGX     -0.603000
     10 N2         -6.0710    0.4770    2.6070 n4        1 AGX     -0.029000
     11 C3          1.8840   -0.6440    3.5930 c1        1 AGX      0.214000
     12 C4         -0.9860    0.5440    1.3160 c2        1 AGX     -0.080000
     13 C5         -2.2460    1.1390    1.0460 c2        1 AGX     -0.150000
     14 C6         -2.5280   -0.1860    2.7740 c2        1 AGX     -0.117000
     15 C7         -3.1300   -0.9010    3.9480 c3        1 AGX      0.137000
     16 C9         -7.4610    0.1680    2.8930 c2        1 AGX     -0.232000
     17 C10       -11.8510    2.2850    3.7140 c1        1 AGX     -0.041000
     18 C11       -10.8190    2.6740    3.2420 c1        1 AGX     -0.229000
     19 C12        -9.6380    3.1880    2.6880 c2        1 AGX      0.151000
     20 C13        -8.5200    2.4280    2.4870 c2        1 AGX     -0.173000
     21 C14        -8.4950    1.0290    2.8320 c2        1 AGX      0.005000
     22 C15        -2.7020   -2.3480    4.0600 c3        1 AGX     -0.232000
     23 H           0.2500    1.7820    0.1310 hc        1 AGX      0.145000
     24 H1          0.3100    0.0190   -0.2920 hc        1 AGX      0.145000
     25 H2          2.4290    1.0190    0.8230 ha        1 AGX      0.150000
     26 HN2        -5.9680    1.4760    2.3140 hn        1 AGX      0.280500
     27 H3         -2.4920    1.8580    0.2640 h4        1 AGX      0.192000
     28 H7         -1.6310   -2.3880    4.3750 hc        1 AGX      0.116667
     29 H10        -7.6050   -0.8920    3.1830 hx        1 AGX      0.200000
     30 H11       -12.7690    1.9400    4.1320 ha        1 AGX      0.253000
     31 H14        -9.4920    0.6020    3.0910 ha        1 AGX      0.190000
     32 H15        -2.9260   -0.3250    4.8960 h1        1 AGX      0.145000
     33 H15A       -2.8230   -2.8800    3.0860 hc        1 AGX      0.116667
     34 H15B       -3.3230   -2.8690    4.8300 hc        1 AGX      0.116667
     35 HN         -0.4840   -0.8250    2.8760 hn        1 AGX      0.289000
     36 H22        -5.7370   -0.1330    1.8450 hn        1 AGX      0.280500
     37 C8         -5.1980    0.2560    3.8060 c2        1 AGX      0.370000
@<TRIPOS>BOND
     1    1    5 1   
     2    1   12 1   
     3    1   23 1   
     4    1   24 1   
     5    2   12 1   
     6    2   14 1   
     7    2   35 1   
     8    3   15 1   
     9    3   37 1   
    10    4   20 1   
    11    5    9 1   
    12    5   25 1   
    13    6   13 1   
    14    6   14 1   
    15    7   37 1   
    16    8   19 1   
    17    9   11 1   
    18   10   16 1   
    19   10   26 1   
    20   10   36 1   
    21   10   37 1   
    22   12   13 1   
    23   13   27 1   
    24   14   15 1   
    25   15   22 1   
    26   15   32 1   
    27   16   21 1   
    28   16   29 1   
    29   17   18 1   
    30   17   30 1   
    31   18   19 1   
    32   19   20 1   
    33   20   21 1   
    34   21   31 1   
    35   22   28 1   
    36   22   33 1   
    37   22   34 1   
@<TRIPOS>SUBSTRUCTURE
     1 AGX         1 TEMP              0 ****  ****    0 ROOT
