@<TRIPOS>MOLECULE
AGX
   36    36     1     0     0
SMALL
bcc


@<TRIPOS>ATOM
      1 C           1.1150    0.2040    1.5220 c3        1 AGX     -0.117000
      2 N          -1.2390   -0.4120    2.2670 na        1 AGX     -0.171000
      3 O          -4.0780   -0.2790    2.5260 os        1 AGX     -0.298000
      4 CL         -7.2670    3.5740    3.5830 cl        1 AGX     -0.002000
      5 C1          0.8760    1.3570    0.6150 c2        1 AGX      0.178000
      6 N1         -1.1310    0.0050    4.5040 n2        1 AGX     -0.121000
      7 O1         -5.9250   -0.2780    3.8240 o         1 AGX     -0.321000
      8 CL1        -9.4630    2.7920    5.8150 cl        1 AGX      0.004000
      9 C2          1.2670    1.3800   -0.6450 c1        1 AGX     -0.587000
     10 N2         -5.9890    0.7020    1.6350 n         1 AGX     -0.155000
     11 C3          1.6360    1.4250   -1.8660 c1        1 AGX      0.208000
     12 C4          0.0530    0.0490    2.5340 c2        1 AGX     -0.135000
     13 C5          0.0960    0.2910    3.9270 c2        1 AGX     -0.151000
     14 C6         -1.9310   -0.4190    3.4850 c2        1 AGX     -0.061000
     15 C7         -3.3530   -0.8780    3.6310 c3        1 AGX      0.122000
     16 C9         -7.1700    1.2480    1.5420 c1        1 AGX     -0.016000
     17 C10       -12.0490    2.2770    3.1390 c2        1 AGX     -0.130000
     18 C11       -10.8570    2.3730    3.6360 c1        1 AGX     -0.154000
     19 C12        -9.6560    2.4850    4.1470 c2        1 AGX     -0.009000
     20 C13        -8.4310    2.3510    3.3640 c2        1 AGX     -0.050000
     21 C14        -8.2320    1.3350    2.5040 c2        1 AGX     -0.156000
     22 C15        -3.4630   -2.3860    3.5300 c3        1 AGX     -0.237000
     23 H           1.2420   -0.7450    0.9310 hc        1 AGX      0.134500
     24 H1          2.0920    0.3900    2.0580 hc        1 AGX      0.134500
     25 H2          0.3530    2.2250    1.0670 ha        1 AGX      0.137000
     26 HN2        -5.3930    0.7610    0.8300 hn        1 AGX      0.272000
     27 H3          0.9370    0.6480    4.5210 h4        1 AGX      0.185000
     28 H7         -2.8320   -2.8570    4.3220 hc        1 AGX      0.098333
     29 H10       -12.5830    1.3170    3.0710 ha        1 AGX      0.140500
     30 H11       -12.5950    3.1530    2.7540 ha        1 AGX      0.140500
     31 H14        -9.0060    0.5500    2.3870 ha        1 AGX      0.173000
     32 H15        -3.7770   -0.5070    4.6090 h1        1 AGX      0.158000
     33 H15A       -3.1240   -2.7460    2.5300 hc        1 AGX      0.098333
     34 H15B       -4.5280   -2.6900    3.6810 hc        1 AGX      0.098333
     35 HN         -1.6180   -0.6340    1.3840 hn        1 AGX      0.261000
     36 C8         -5.3960    0.0390    2.7560 c2        1 AGX      0.328000
@<TRIPOS>BOND
     1    1    5 1   
     2    1   12 1   
     3    1   23 1   
     4    1   24 1   
     5    2   12 1   
     6    2   14 1   
     7    2   35 1   
     8    3   15 1   
     9    3   36 1   
    10    4   20 1   
    11    5    9 1   
    12    5   25 1   
    13    6   13 1   
    14    6   14 1   
    15    7   36 1   
    16    8   19 1   
    17    9   11 1   
    18   10   16 1   
    19   10   26 1   
    20   10   36 1   
    21   12   13 1   
    22   13   27 1   
    23   14   15 1   
    24   15   22 1   
    25   15   32 1   
    26   16   21 1   
    27   17   18 1   
    28   17   29 1   
    29   17   30 1   
    30   18   19 1   
    31   19   20 1   
    32   20   21 1   
    33   21   31 1   
    34   22   28 1   
    35   22   33 1   
    36   22   34 1   
@<TRIPOS>SUBSTRUCTURE
     1 AGX         1 TEMP              0 ****  ****    0 ROOT
