@<TRIPOS>MOLECULE
AGY
   54    55     1     0     0
SMALL
bcc


@<TRIPOS>ATOM
      1 C1       -144.2920   61.0230  368.8640 ca        1 AGY     -0.009000
      2 N1       -143.3660   62.5750  370.5600 nu        1 AGY     -0.147500
      3 O1       -144.1770   64.8140  371.2120 o         1 AGY     -0.168500
      4 C2       -144.2800   61.5200  370.2100 ca        1 AGY     -0.127200
      5 N2         97.6520  -39.6050 -246.9880 n8        1 AGY     -0.642600
      6 O2         95.2250  -40.7130 -246.2990 o         1 AGY     -0.417100
      7 C3       -145.1450   59.9200  368.5850 ca        1 AGY     -0.044000
      8 N3         97.2310  -39.6840 -245.6600 ny        1 AGY     -0.466600
      9 O3         91.7950  -41.7020 -241.7150 o         1 AGY     -0.161000
     10 C4       -143.5050   61.5640  367.8140 ca        1 AGY     -0.174000
     11 N4         92.1030  -40.6600 -242.2160 no        1 AGY      0.313200
     12 O4         91.3140  -39.8640 -242.6360 o         1 AGY     -0.161000
     13 C5       -145.0850   60.9670  371.2020 ca        1 AGY     -0.048000
     14 C6       -145.9500   59.3640  369.6130 ca        1 AGY     -0.030000
     15 C7       -145.1810   59.3860  367.2660 ca        1 AGY     -0.085000
     16 C8       -143.5610   61.0270  366.5480 ca        1 AGY     -0.058000
     17 C9       -145.9190   59.8780  370.8900 ca        1 AGY     -0.144000
     18 C10      -143.7920   63.7750  370.8300 c1        1 AGY      0.662500
     19 C11      -144.4060   59.9270  366.2700 ca        1 AGY     -0.113000
     20 C12        95.8270  -40.2550 -245.3400 c         1 AGY      0.553700
     21 C13        95.4060  -40.1520 -243.9510 ca        1 AGY     -0.223600
     22 C14        94.0520  -40.4160 -243.6890 ca        1 AGY      0.006000
     23 C15        96.2560  -39.8310 -242.8790 ca        1 AGY     -0.069000
     24 C16        93.5630  -40.3430 -242.3770 ca        1 AGY     -0.167200
     25 C17        95.7520  -39.7530 -241.5920 ca        1 AGY     -0.132000
     26 C18        94.3910  -39.9880 -241.2900 ca        1 AGY      0.093700
     27 C19        93.9140  -39.8630 -239.8620 c3        1 AGY     -0.032700
     28 C20        93.7700  -41.2650 -239.2680 c3        1 AGY     -0.104767
     29 C21        94.9200  -39.0960 -239.0020 c3        1 AGY     -0.104767
     30 C22        92.5800  -39.1210 -239.7820 c3        1 AGY     -0.104767
     31 HN1      -142.3980   62.4570  370.2790 hn        1 AGY      0.378700
     32 HN2        97.0250  -39.0030 -247.5150 hn        1 AGY      0.417300
     33 HN3        97.9280  -40.2630 -245.1590 hn        1 AGY      0.478800
     34 H4       -142.8400   62.4210  367.9940 ha        1 AGY      0.118000
     35 H5       -145.0780   61.3490  372.2370 ha        1 AGY      0.158000
     36 H6       -146.6050   58.5080  369.3710 ha        1 AGY      0.169000
     37 H7       -145.8440   58.5280  367.0630 ha        1 AGY      0.161000
     38 H8       -142.9480   61.4500  365.7350 ha        1 AGY      0.160000
     39 H9       -146.5450   59.4440  371.6880 ha        1 AGY      0.174000
     40 H11      -144.4320   59.5140  365.2480 ha        1 AGY      0.166000
     41 H14        93.3770  -40.6780 -244.5280 ha        1 AGY      0.191000
     42 H15        97.3320  -39.6470 -243.0230 ha        1 AGY      0.134000
     43 H17        96.4570  -39.5020 -240.7790 ha        1 AGY      0.182000
     44 H120       94.7510  -41.7970 -239.2820 hc        1 AGY      0.058033
     45 H220       93.4300  -41.1740 -238.2070 hc        1 AGY      0.058033
     46 H320       93.0200  -41.8720 -239.8280 hc        1 AGY      0.058033
     47 H121       94.4830  -38.9260 -237.9870 hc        1 AGY      0.058033
     48 H221       95.8620  -39.6790 -238.8630 hc        1 AGY      0.058033
     49 H321       95.1530  -38.1030 -239.4540 hc        1 AGY      0.058033
     50 H122       92.4750  -38.3830 -240.6130 hc        1 AGY      0.058033
     51 H222       92.5090  -38.5620 -238.8160 hc        1 AGY      0.058033
     52 H322       91.7180  -39.8330 -239.8070 hc        1 AGY      0.058033
     53 H22        97.6300  -40.5280 -247.4130 hn        1 AGY      0.417300
     54 H32        97.2810  -38.7270 -245.2660 hn        1 AGY      0.478800
@<TRIPOS>BOND
     1    1    4 ar  
     2    1    7 ar  
     3    1   10 ar  
     4    2    4 1   
     5    2   18 2   
     6    2   31 1   
     7    3   18 2   
     8    4   13 ar  
     9    5    8 1   
    10    5   32 1   
    11    5   53 1   
    12    6   20 2   
    13    7   14 ar  
    14    7   15 ar  
    15    8   20 1   
    16    8   33 1   
    17    8   54 1   
    18    9   11 1   
    19   10   16 ar  
    20   10   34 1   
    21   11   12 1   
    22   11   24 1   
    23   13   17 ar  
    24   13   35 1   
    25   14   17 ar  
    26   14   36 1   
    27   15   19 ar  
    28   15   37 1   
    29   16   19 ar  
    30   16   38 1   
    31   17   39 1   
    32   19   40 1   
    33   20   21 1   
    34   21   22 ar  
    35   21   23 ar  
    36   22   24 ar  
    37   22   41 1   
    38   23   25 ar  
    39   23   42 1   
    40   24   26 ar  
    41   25   26 ar  
    42   25   43 1   
    43   26   27 1   
    44   27   28 1   
    45   27   29 1   
    46   27   30 1   
    47   28   44 1   
    48   28   45 1   
    49   28   46 1   
    50   29   47 1   
    51   29   48 1   
    52   29   49 1   
    53   30   50 1   
    54   30   51 1   
    55   30   52 1   
@<TRIPOS>SUBSTRUCTURE
     1 AGY         1 TEMP              0 ****  ****    0 ROOT
