@<TRIPOS>MOLECULE
AGY
   52    54     1     0     0
SMALL
bcc


@<TRIPOS>ATOM
      1 C1          0.0380    0.2020   -0.0150 ca        1 AGY     -0.052000
      2 N1          2.2350   -0.3600   -0.9640 n         1 AGY     -0.458100
      3 O1          4.2400    0.6210   -0.3010 o         1 AGY     -0.595100
      4 C2          1.4630    0.0160    0.1520 ca        1 AGY      0.070600
      5 N2          4.3330   -0.5850   -2.2590 n         1 AGY     -0.356500
      6 O2          4.1520    1.0960   -4.5030 o         1 AGY     -0.551100
      7 C3         -0.7450    0.4920    1.1330 ca        1 AGY     -0.021000
      8 N3          3.6660   -0.8930   -3.4080 n         1 AGY     -0.444500
      9 O3          5.0250   -0.4690   -9.7440 o         1 AGY     -0.191500
     10 C4         -0.6200    0.1170   -1.2730 ca        1 AGY     -0.125000
     11 N4          3.9020   -0.1400   -9.4760 no        1 AGY      0.309200
     12 O4          3.2860    0.6470  -10.1390 o         1 AGY     -0.191500
     13 C5          2.0310    0.1730    1.4110 ca        1 AGY     -0.143000
     14 C6         -0.1260    0.6340    2.4040 ca        1 AGY     -0.139000
     15 C7         -2.1520    0.6530    1.0000 ca        1 AGY     -0.115000
     16 C8         -1.9800    0.2840   -1.3750 ca        1 AGY     -0.127000
     17 C9          1.2310    0.4880    2.5290 ca        1 AGY     -0.103000
     18 C10         3.5780   -0.0380   -1.1300 c         1 AGY      0.736100
     19 C11        -2.7600    0.5470   -0.2260 ca        1 AGY     -0.126000
     20 C12         3.7250   -0.0690   -4.5620 c         1 AGY      0.636700
     21 C13         3.2010   -0.6580   -5.8240 ca        1 AGY     -0.153600
     22 C14         3.7350   -0.1930   -7.0270 ca        1 AGY     -0.037000
     23 C15         2.1910   -1.6220   -5.8510 ca        1 AGY     -0.070000
     24 C16         3.2690   -0.7120   -8.2450 ca        1 AGY     -0.156200
     25 C17         1.7440   -2.1300   -7.0670 ca        1 AGY     -0.145000
     26 C18         2.2720   -1.7090   -8.2990 ca        1 AGY      0.024700
     27 C19         1.7510   -2.3160   -9.5820 c3        1 AGY     -0.019700
     28 C20         2.8900   -2.6630  -10.5400 c3        1 AGY     -0.099433
     29 C21         0.9740   -3.6060   -9.3130 c3        1 AGY     -0.099433
     30 C22         0.7910   -1.3310  -10.2470 c3        1 AGY     -0.099433
     31 HN1         1.7520   -0.8330   -1.6930 hn        1 AGY      0.329500
     32 HN2         5.1170    0.0430   -2.4260 hn        1 AGY      0.304500
     33 HN3         3.7550   -1.8800   -3.5950 hn        1 AGY      0.319500
     34 H4         -0.0460   -0.0600   -2.1950 ha        1 AGY      0.121000
     35 H5          3.1190    0.0650    1.5580 ha        1 AGY      0.168000
     36 H6         -0.7550    0.8670    3.2750 ha        1 AGY      0.136000
     37 H7         -2.7410    0.8680    1.9050 ha        1 AGY      0.135000
     38 H8         -2.4780    0.2220   -2.3550 ha        1 AGY      0.132000
     39 H9          1.7230    0.6090    3.5070 ha        1 AGY      0.138000
     40 H11        -3.8470    0.6720   -0.3300 ha        1 AGY      0.135000
     41 H14         4.5170    0.5900   -7.0010 ha        1 AGY      0.181000
     42 H15         1.7270   -1.9820   -4.9190 ha        1 AGY      0.149000
     43 H17         0.9430   -2.8860   -7.0360 ha        1 AGY      0.157000
     44 H120        3.8250   -2.9090   -9.9820 hc        1 AGY      0.048589
     45 H220        3.0950   -1.8220  -11.2460 hc        1 AGY      0.048589
     46 H320        2.6170   -3.5510  -11.1620 hc        1 AGY      0.048589
     47 H121        1.5940   -4.3260   -8.7290 hc        1 AGY      0.048589
     48 H221        0.6980   -4.0830  -10.2860 hc        1 AGY      0.048589
     49 H321        0.0250   -3.3970   -8.7640 hc        1 AGY      0.048589
     50 H122       -0.0670   -1.1090   -9.5680 hc        1 AGY      0.048589
     51 H222        1.3030   -0.3730  -10.5020 hc        1 AGY      0.048589
     52 H322        0.3940   -1.7830  -11.1880 hc        1 AGY      0.048589
@<TRIPOS>BOND
     1    1    4 ar  
     2    1    7 ar  
     3    1   10 ar  
     4    2    4 1   
     5    2   18 1   
     6    2   31 1   
     7    3   18 2   
     8    4   13 ar  
     9    5    8 1   
    10    5   18 1   
    11    5   32 1   
    12    6   20 2   
    13    7   14 ar  
    14    7   15 ar  
    15    8   20 1   
    16    8   33 1   
    17    9   11 1   
    18   10   16 ar  
    19   10   34 1   
    20   11   12 1   
    21   11   24 1   
    22   13   17 ar  
    23   13   35 1   
    24   14   17 ar  
    25   14   36 1   
    26   15   19 ar  
    27   15   37 1   
    28   16   19 ar  
    29   16   38 1   
    30   17   39 1   
    31   19   40 1   
    32   20   21 1   
    33   21   22 ar  
    34   21   23 ar  
    35   22   24 ar  
    36   22   41 1   
    37   23   25 ar  
    38   23   42 1   
    39   24   26 ar  
    40   25   26 ar  
    41   25   43 1   
    42   26   27 1   
    43   27   28 1   
    44   27   29 1   
    45   27   30 1   
    46   28   44 1   
    47   28   45 1   
    48   28   46 1   
    49   29   47 1   
    50   29   48 1   
    51   29   49 1   
    52   30   50 1   
    53   30   51 1   
    54   30   52 1   
@<TRIPOS>SUBSTRUCTURE
     1 AGY         1 TEMP              0 ****  ****    0 ROOT
