@<TRIPOS>MOLECULE
AGY
   52    54     1     0     0
SMALL
bcc


@<TRIPOS>ATOM
      1 C1          4.7020   -0.7370    0.2270 ca        1 AGY     -0.052000
      2 N1          3.1230    0.9180   -0.6720 n         1 AGY     -0.458100
      3 O1          3.3680    3.2230   -0.4440 o         1 AGY     -0.595100
      4 C2          4.4500    0.5570   -0.3670 ca        1 AGY      0.070600
      5 N2          1.2950    2.5170   -1.1500 n         1 AGY     -0.356500
      6 O2         -0.5310    2.4130    0.9830 o         1 AGY     -0.551100
      7 C3          6.0490   -1.1290    0.4480 ca        1 AGY     -0.021000
      8 N3          0.3340    1.5610   -0.9980 n         1 AGY     -0.444500
      9 O3         -5.9900    1.6280    0.4790 o         1 AGY     -0.191500
     10 C4          3.6690   -1.6370    0.6130 ca        1 AGY     -0.125000
     11 N4         -5.3830    0.7500    1.0290 no        1 AGY      0.309200
     12 O4         -5.7260    0.2910    2.0820 o         1 AGY     -0.191500
     13 C5          5.5190    1.3960   -0.6600 ca        1 AGY     -0.144000
     14 C6          7.1130   -0.2460    0.1240 ca        1 AGY     -0.139000
     15 C7          6.3250   -2.4080    1.0070 ca        1 AGY     -0.115000
     16 C8          3.9630   -2.8630    1.1580 ca        1 AGY     -0.127000
     17 C9          6.8460    0.9900   -0.4060 ca        1 AGY     -0.103000
     18 C10         2.6550    2.2280   -0.6940 c         1 AGY      0.736100
     19 C11         5.3060   -3.2600    1.3510 ca        1 AGY     -0.126000
     20 C12        -0.6520    1.6360    0.0210 c         1 AGY      0.636700
     21 C13        -1.8030    0.7010   -0.1010 ca        1 AGY     -0.153600
     22 C14        -3.0180    1.0910    0.4650 ca        1 AGY     -0.037000
     23 C15        -1.7070   -0.5450   -0.7250 ca        1 AGY     -0.070000
     24 C16        -4.1320    0.2400    0.3830 ca        1 AGY     -0.156200
     25 C17        -2.8210   -1.3740   -0.8020 ca        1 AGY     -0.145000
     26 C18        -4.0700   -1.0100   -0.2690 ca        1 AGY      0.024700
     27 C19        -5.2440   -1.9520   -0.4040 c3        1 AGY     -0.019700
     28 C20        -6.5140   -1.2100   -0.8170 c3        1 AGY     -0.099433
     29 C21        -4.9800   -3.0250   -1.4630 c3        1 AGY     -0.099433
     30 C22        -5.4670   -2.6670    0.9280 c3        1 AGY     -0.099433
     31 HN1         2.4870    0.1700   -0.8180 hn        1 AGY      0.329500
     32 HN2         1.0230    3.4060   -0.7360 hn        1 AGY      0.304500
     33 HN3        -0.0210    1.2920   -1.9020 hn        1 AGY      0.319500
     34 H4          2.6120   -1.3550    0.5030 ha        1 AGY      0.121000
     35 H5          5.3510    2.3990   -1.0870 ha        1 AGY      0.168000
     36 H6          8.1470   -0.5710    0.3120 ha        1 AGY      0.136000
     37 H7          7.3760   -2.6950    1.1600 ha        1 AGY      0.135000
     38 H8          3.1550   -3.5480    1.4560 ha        1 AGY      0.132000
     39 H9          7.6620    1.6880   -0.6480 ha        1 AGY      0.138000
     40 H11         5.5180   -4.2490    1.7830 ha        1 AGY      0.135000
     41 H14        -3.0820    2.0670    0.9810 ha        1 AGY      0.181000
     42 H15        -0.7520   -0.8930   -1.1490 ha        1 AGY      0.149000
     43 H17        -2.6950   -2.3490   -1.3000 ha        1 AGY      0.157000
     44 H120       -7.1700   -1.8740   -1.4320 hc        1 AGY      0.048589
     45 H220       -7.1100   -0.9000    0.0760 hc        1 AGY      0.048589
     46 H320       -6.2710   -0.3060   -1.4260 hc        1 AGY      0.048589
     47 H121       -4.1700   -3.7210   -1.1370 hc        1 AGY      0.048589
     48 H221       -5.9040   -3.6350   -1.6130 hc        1 AGY      0.048589
     49 H321       -4.7020   -2.5570   -2.4370 hc        1 AGY      0.048589
     50 H122       -5.6980   -1.9430    1.7450 hc        1 AGY      0.048589
     51 H222       -6.3250   -3.3740    0.8270 hc        1 AGY      0.048589
     52 H322       -4.5570   -3.2480    1.2120 hc        1 AGY      0.048589
@<TRIPOS>BOND
     1    1    4 ar  
     2    1    7 ar  
     3    1   10 ar  
     4    2    4 1   
     5    2   18 1   
     6    2   31 1   
     7    3   18 2   
     8    4   13 ar  
     9    5    8 1   
    10    5   18 1   
    11    5   32 1   
    12    6   20 2   
    13    7   14 ar  
    14    7   15 ar  
    15    8   20 1   
    16    8   33 1   
    17    9   11 1   
    18   10   16 ar  
    19   10   34 1   
    20   11   12 1   
    21   11   24 1   
    22   13   17 ar  
    23   13   35 1   
    24   14   17 ar  
    25   14   36 1   
    26   15   19 ar  
    27   15   37 1   
    28   16   19 ar  
    29   16   38 1   
    30   17   39 1   
    31   19   40 1   
    32   20   21 1   
    33   21   22 ar  
    34   21   23 ar  
    35   22   24 ar  
    36   22   41 1   
    37   23   25 ar  
    38   23   42 1   
    39   24   26 ar  
    40   25   26 ar  
    41   25   43 1   
    42   26   27 1   
    43   27   28 1   
    44   27   29 1   
    45   27   30 1   
    46   28   44 1   
    47   28   45 1   
    48   28   46 1   
    49   29   47 1   
    50   29   48 1   
    51   29   49 1   
    52   30   50 1   
    53   30   51 1   
    54   30   52 1   
@<TRIPOS>SUBSTRUCTURE
     1 AGY         1 TEMP              0 ****  ****    0 ROOT
