@<TRIPOS>MOLECULE
AGY
   52    48     1     0     0
SMALL
bcc


@<TRIPOS>ATOM
      1 C1         -5.4800   -0.6940   -1.4790 c1        1 AGY     -0.022500
      2 N1         -3.9440   -1.6420    0.6610 n         1 AGY     -0.300000
      3 O1         -2.2690   -0.6610   -0.5760 o         1 AGY     -0.356000
      4 C2         -4.9670   -1.2470   -0.2830 c1        1 AGY      0.057000
      5 N2         -1.5480   -1.7320    1.3310 n         1 AGY     -0.188000
      6 O2          0.9640   -2.7560    1.9200 o         1 AGY     -0.324000
      7 C3         -6.8330   -0.7540   -1.7410 c1        1 AGY     -0.022500
      8 N3         -0.4070   -0.9470    1.5340 n         1 AGY     -0.228000
      9 O3          3.7060   -0.0970   -2.3520 o         1 AGY     -0.287700
     10 C4         -4.6100   -0.0790   -2.4040 c2        1 AGY     -0.109500
     11 N4          4.2600    0.4430   -1.4000 n2        1 AGY      0.508700
     12 O4          5.2920    1.3100   -1.6130 os        1 AGY     -0.346000
     13 C5         -5.8290   -1.8530    0.6310 c1        1 AGY     -0.156000
     14 C6         -7.7050   -1.3680   -0.8140 c1        1 AGY     -0.117500
     15 C7         -7.3470   -0.2000   -2.9340 c2        1 AGY     -0.109500
     16 C8         -5.1180    0.4680   -3.5820 c1        1 AGY     -0.123500
     17 C9         -7.1980   -1.9130    0.3650 c1        1 AGY     -0.117500
     18 C10        -2.5720   -1.2910    0.4220 c2        1 AGY      0.306000
     19 C11        -6.4870    0.4070   -3.8460 c1        1 AGY     -0.123500
     20 C12         0.8820   -1.5710    1.6450 c2        1 AGY      0.296000
     21 C13         2.1520   -0.7470    1.4240 c2        1 AGY     -0.128000
     22 C14         2.6540   -0.5750    0.1370 c2        1 AGY     -0.038000
     23 C15         2.7830   -0.1360    2.5060 c1        1 AGY     -0.066000
     24 C16         3.7870    0.2080   -0.0700 c2        1 AGY     -0.110000
     25 C17         3.9160    0.6470    2.3010 c1        1 AGY     -0.145000
     26 C18         4.4190    0.8200    1.0150 c2        1 AGY      0.029000
     27 C19         5.7030    1.6580    0.7910 c3        1 AGY     -0.027000
     28 C20         5.3460    2.9560    0.0440 c3        1 AGY     -0.217000
     29 C21         6.7080    0.8460   -0.0450 c3        1 AGY     -0.217000
     30 C22         6.3320    2.0070    2.1510 c3        1 AGY     -0.217000
     31 HN1        -4.1710   -2.1200    1.4080 hn        1 AGY      0.225000
     32 HN2        -1.6620   -2.5070    1.8100 hn        1 AGY      0.211000
     33 HN3        -0.4890   -0.0420    1.6490 hn        1 AGY      0.235000
     34 H4         -3.6500   -0.0360   -2.2200 ha        1 AGY      0.138500
     35 H5         -5.4740   -2.2360    1.4590 ha        1 AGY      0.133000
     36 H6         -8.6680   -1.4110   -1.0000 ha        1 AGY      0.136000
     37 H7         -8.3090   -0.2430   -3.1210 ha        1 AGY      0.138500
     38 H8         -4.5130    0.8960   -4.2250 ha        1 AGY      0.135000
     39 H9         -7.8040   -2.3400    1.0090 ha        1 AGY      0.136000
     40 H11        -6.8440    0.7920   -4.6750 ha        1 AGY      0.135000
     41 H14         2.2320   -1.0350   -0.6190 ha        1 AGY      0.179000
     42 H15         2.4280   -0.2580    3.4140 ha        1 AGY      0.155000
     43 H17         4.3600    1.0770    3.0620 ha        1 AGY      0.156000
     44 H120        6.1490    3.3110   -0.4000 hc        1 AGY      0.087222
     45 H220        5.0040    3.6200    0.6850 hc        1 AGY      0.087222
     46 H320        4.6570    2.7670   -0.6290 hc        1 AGY      0.087222
     47 H121        6.2540    0.0680   -0.4370 hc        1 AGY      0.087222
     48 H221        7.4430    0.5400    0.5330 hc        1 AGY      0.087222
     49 H321        7.0690    1.4110   -0.7650 hc        1 AGY      0.087222
     50 H122        7.2150    2.4180    2.0090 hc        1 AGY      0.087222
     51 H222        5.7500    2.6390    2.6290 hc        1 AGY      0.087222
     52 H322        6.4340    1.1870    2.6840 hc        1 AGY      0.087222
@<TRIPOS>BOND
     1    1    7 1   
     2    1   10 1   
     3    2    4 1   
     4    2   18 1   
     5    2   31 1   
     6    3   18 1   
     7    4   13 1   
     8    5    8 1   
     9    5   18 1   
    10    5   32 1   
    11    6   20 1   
    12    7   15 1   
    13    8   20 1   
    14    8   33 1   
    15    9   11 2   
    16   10   16 1   
    17   10   34 1   
    18   11   24 1   
    19   13   35 1   
    20   14   17 1   
    21   14   36 1   
    22   15   19 1   
    23   15   37 1   
    24   16   38 1   
    25   17   39 1   
    26   19   40 1   
    27   20   21 1   
    28   21   22 1   
    29   21   23 1   
    30   22   24 1   
    31   22   41 1   
    32   23   42 1   
    33   24   26 1   
    34   25   26 1   
    35   25   43 1   
    36   26   27 1   
    37   27   28 1   
    38   27   29 1   
    39   27   30 1   
    40   28   44 1   
    41   28   45 1   
    42   28   46 1   
    43   29   47 1   
    44   29   48 1   
    45   29   49 1   
    46   30   50 1   
    47   30   51 1   
    48   30   52 1   
@<TRIPOS>SUBSTRUCTURE
     1 AGY         1 TEMP              0 ****  ****    0 ROOT
