@<TRIPOS>MOLECULE
AGY
   54    55     1     0     0
SMALL
bcc


@<TRIPOS>ATOM
      1 C1        -46.3160   16.1080  126.3580 ca        1 AGY     -0.009000
      2 N1        -47.0230   15.8810  128.7220 nh        1 AGY     -0.147500
      3 O1        -48.5040   17.3530  130.0390 o         1 AGY     -0.168500
      4 C2        -47.2640   15.6330  127.3250 ca        1 AGY     -0.127200
      5 N2         32.3040  -10.9450  -93.2840 n3        1 AGY     -0.642600
      6 O2         30.4430  -10.5000  -91.3000 o         1 AGY     -0.417100
      7 C3        -46.5460   15.7620  124.9980 ca        1 AGY     -0.044000
      8 N3         32.5510  -11.2870  -91.9540 n4        1 AGY     -0.466600
      9 O3         29.7000  -10.9470  -85.5560 o         1 AGY     -0.161000
     10 C4        -45.1760   16.8880  126.6830 ca        1 AGY     -0.174000
     11 N4         30.4310  -10.2260  -86.1680 no        1 AGY      0.313200
     12 O4         30.4200   -9.0320  -86.0770 o         1 AGY     -0.161000
     13 C5        -48.3770   14.8860  126.9550 ca        1 AGY     -0.048000
     14 C6        -47.6830   14.9900  124.6420 ca        1 AGY     -0.030000
     15 C7        -45.6260   16.2010  124.0040 ca        1 AGY     -0.085000
     16 C8        -44.3040   17.2990  125.7000 ca        1 AGY     -0.058000
     17 C9        -48.5760   14.5640  125.5990 ca        1 AGY     -0.144000
     18 C10       -47.7600   16.7160  129.3970 c1        1 AGY      0.662500
     19 C11       -44.5290   16.9520  124.3470 ca        1 AGY     -0.113000
     20 C12        31.4950  -10.9500  -90.8730 c         1 AGY      0.553700
     21 C13        31.9020  -11.1920  -89.4960 ca        1 AGY     -0.223600
     22 C14        31.0780  -10.6490  -88.4980 ca        1 AGY      0.006000
     23 C15        33.0330  -11.9350  -89.1160 ca        1 AGY     -0.069000
     24 C16        31.3950  -10.8390  -87.1460 ca        1 AGY     -0.167200
     25 C17        33.3340  -12.1020  -87.7750 ca        1 AGY     -0.132000
     26 C18        32.5440  -11.5520  -86.7410 ca        1 AGY      0.093700
     27 C19        32.9520  -11.7610  -85.3020 c3        1 AGY     -0.032700
     28 C20        32.0820  -12.8650  -84.6990 c3        1 AGY     -0.104767
     29 C21        34.4100  -12.2100  -85.1940 c3        1 AGY     -0.104767
     30 C22        32.8050  -10.4760  -84.4870 c3        1 AGY     -0.104767
     31 HN1       -46.0990   15.6560  129.0770 hn        1 AGY      0.378700
     32 HN2        32.1930   -9.9380  -93.3680 hn        1 AGY      0.417300
     33 HN3        32.7070  -12.3120  -91.9330 hn        1 AGY      0.479300
     34 H4        -44.9720   17.1790  127.7230 ha        1 AGY      0.118000
     35 H5        -49.1080   14.5220  127.6970 ha        1 AGY      0.158000
     36 H6        -47.8400   14.7360  123.5790 ha        1 AGY      0.169000
     37 H7        -45.8140   15.9230  122.9530 ha        1 AGY      0.161000
     38 H8        -43.4190   17.9050  125.9580 ha        1 AGY      0.160000
     39 H9        -49.4580   13.9630  125.3200 ha        1 AGY      0.174000
     40 H11       -43.8160   17.2920  123.5790 ha        1 AGY      0.166000
     41 H14        30.1790  -10.0690  -88.7900 ha        1 AGY      0.191000
     42 H15        33.6950  -12.4100  -89.8560 ha        1 AGY      0.134000
     43 H17        34.2300  -12.6970  -87.5220 ha        1 AGY      0.182000
     44 H120       32.3900  -13.0300  -83.6380 hc        1 AGY      0.058033
     45 H220       31.0010  -12.5870  -84.7130 hc        1 AGY      0.058033
     46 H320       32.2180  -13.8190  -85.2620 hc        1 AGY      0.058033
     47 H121       34.7070  -12.2450  -84.1160 hc        1 AGY      0.058033
     48 H221       35.0860  -11.4960  -85.7220 hc        1 AGY      0.058033
     49 H321       34.5490  -13.2380  -85.6070 hc        1 AGY      0.058033
     50 H122       31.8030  -10.4200  -83.9950 hc        1 AGY      0.058033
     51 H222       32.9560   -9.5720  -85.1230 hc        1 AGY      0.058033
     52 H322       33.5680  -10.4500  -83.6690 hc        1 AGY      0.058033
     53 H22        31.4410  -11.3820  -93.5990 hn        1 AGY      0.417300
     54 H32        33.4410  -10.8320  -91.6810 hn        1 AGY      0.479300
@<TRIPOS>BOND
     1    1    4 ar  
     2    1    7 ar  
     3    1   10 ar  
     4    2    4 1   
     5    2   18 2   
     6    2   31 1   
     7    3   18 2   
     8    4   13 ar  
     9    5    8 1   
    10    5   32 1   
    11    5   53 1   
    12    6   20 2   
    13    7   14 ar  
    14    7   15 ar  
    15    8   20 1   
    16    8   33 1   
    17    8   54 1   
    18    9   11 1   
    19   10   16 ar  
    20   10   34 1   
    21   11   12 1   
    22   11   24 1   
    23   13   17 ar  
    24   13   35 1   
    25   14   17 ar  
    26   14   36 1   
    27   15   19 ar  
    28   15   37 1   
    29   16   19 ar  
    30   16   38 1   
    31   17   39 1   
    32   19   40 1   
    33   20   21 1   
    34   21   22 ar  
    35   21   23 ar  
    36   22   24 ar  
    37   22   41 1   
    38   23   25 ar  
    39   23   42 1   
    40   24   26 ar  
    41   25   26 ar  
    42   25   43 1   
    43   26   27 1   
    44   27   28 1   
    45   27   29 1   
    46   27   30 1   
    47   28   44 1   
    48   28   45 1   
    49   28   46 1   
    50   29   47 1   
    51   29   48 1   
    52   29   49 1   
    53   30   50 1   
    54   30   51 1   
    55   30   52 1   
@<TRIPOS>SUBSTRUCTURE
     1 AGY         1 TEMP              0 ****  ****    0 ROOT
