@<TRIPOS>MOLECULE
AH0
   36    37     1     0     0
SMALL
bcc


@<TRIPOS>ATOM
      1 C1         -0.3650    0.3240    0.1090 c3        1 AH0      0.311900
      2 C2          1.1470    0.6470    0.2510 c3        1 AH0      0.046500
      3 N2          1.8130    0.7420   -1.0880 n4        1 AH0     -0.681800
      4 C7          1.8260   -0.5190   -1.8990 c         1 AH0      0.568100
      5 O7          0.9350   -0.6270   -2.7360 o         1 AH0     -0.476100
      6 C8          2.9390   -1.4740   -1.6400 c3        1 AH0     -0.201100
      7 C3          1.9120   -0.2700    1.2640 c3        1 AH0      0.135100
      8 O3          2.2160    0.5240    2.4030 os        1 AH0     -0.423600
      9 C4          1.1320   -1.4910    1.8110 c3        1 AH0      0.118100
     10 O4          1.6740   -2.6150    1.1300 oh        1 AH0     -0.603800
     11 C5         -0.3780   -1.3910    1.5820 c3        1 AH0      0.068100
     12 O5         -0.5880   -1.0760    0.1890 os        1 AH0     -0.407600
     13 C6         -0.9580   -0.1550    2.2990 c3        1 AH0      0.100400
     14 O6         -1.0490    0.8320    1.2500 os        1 AH0     -0.411600
     15 CA          3.5190    1.1600    2.3570 c3        1 AH0      0.040100
     16 CB          3.4740    2.2730    3.3780 c3        1 AH0     -0.087100
     17 C           3.7750    1.6650    0.9330 c         1 AH0      0.870600
     18 O           4.3640    0.8730    0.1190 o         1 AH0     -0.840800
     19 OXT         3.2480    2.7340    0.5190 o         1 AH0     -0.840800
     20 H1         -0.8570    0.7220   -0.8130 h2        1 AH0      0.123700
     21 H2          1.2180    1.7040    0.6890 hx        1 AH0      0.171700
     22 HN2         1.3260    1.4760   -1.6130 hn        1 AH0      0.488800
     23 H81         3.1610   -2.0290   -2.5860 hc        1 AH0      0.118033
     24 H82         2.6060   -2.2080   -0.8550 hc        1 AH0      0.118033
     25 H83         3.8700   -0.9600   -1.2740 hc        1 AH0      0.118033
     26 H3          2.8650   -0.6630    0.7950 h1        1 AH0      0.116700
     27 H4          1.3380   -1.5820    2.9160 h1        1 AH0      0.079700
     28 HO4         1.2090   -3.3950    1.4540 ho        1 AH0      0.414000
     29 H5         -0.9200   -2.3460    1.7750 h1        1 AH0      0.102700
     30 H61        -0.2790    0.2470    3.0920 h1        1 AH0      0.083200
     31 H62        -1.9950   -0.3150    2.6780 h1        1 AH0      0.083200
     32 HA          4.2790    0.3770    2.6280 h1        1 AH0      0.055700
     33 HB1         3.0500    1.9040    4.3420 hc        1 AH0      0.049700
     34 HB2         4.5110    2.6470    3.5490 hc        1 AH0      0.049700
     35 HB3         2.8440    3.1130    2.9970 hc        1 AH0      0.049700
     36 H22         2.8180    1.0500   -0.9480 hn        1 AH0      0.488800
@<TRIPOS>BOND
     1    1    2 1   
     2    1   12 1   
     3    1   14 1   
     4    1   20 1   
     5    2    3 1   
     6    2    7 1   
     7    2   21 1   
     8    3    4 1   
     9    3   22 1   
    10    3   36 1   
    11    4    5 2   
    12    4    6 1   
    13    6   23 1   
    14    6   24 1   
    15    6   25 1   
    16    7    8 1   
    17    7    9 1   
    18    7   26 1   
    19    8   15 1   
    20    9   10 1   
    21    9   11 1   
    22    9   27 1   
    23   10   28 1   
    24   11   12 1   
    25   11   13 1   
    26   11   29 1   
    27   13   14 1   
    28   13   30 1   
    29   13   31 1   
    30   15   16 1   
    31   15   17 1   
    32   15   32 1   
    33   16   33 1   
    34   16   34 1   
    35   16   35 1   
    36   17   18 1   
    37   17   19 1   
@<TRIPOS>SUBSTRUCTURE
     1 AH0         1 TEMP              0 ****  ****    0 ROOT
