@<TRIPOS>MOLECULE
AH0
   35    36     1     0     0
SMALL
bcc


@<TRIPOS>ATOM
      1 C1         -2.1040   -0.0980   -0.9070 c3        1 AH0      0.315900
      2 C2         -0.5790   -0.0950   -0.8670 c3        1 AH0      0.052700
      3 N2         -0.1030   -1.2820   -1.5460 n         1 AH0     -0.545900
      4 C7          0.0370   -1.2840   -2.9640 c         1 AH0      0.661100
      5 O7         -0.2430   -0.2920   -3.6020 o         1 AH0     -0.645100
      6 C8          0.5380   -2.5310   -3.6780 c3        1 AH0     -0.192100
      7 C3          0.0290   -0.0650    0.5490 c3        1 AH0      0.091100
      8 O3          0.8480    1.1050    0.6650 os        1 AH0     -0.421600
      9 C4         -0.9910   -0.0510    1.6780 c3        1 AH0      0.109100
     10 O4         -0.7710   -1.2020    2.4950 oh        1 AH0     -0.605800
     11 C5         -2.4440   -0.0580    1.2200 c3        1 AH0      0.071100
     12 O5         -2.6800   -0.6400    0.0670 os        1 AH0     -0.427600
     13 C6         -2.7810    1.3620    0.8580 c3        1 AH0      0.104400
     14 O6         -2.5400    1.3530   -0.7040 os        1 AH0     -0.442600
     15 CA          2.1410    0.8580    1.2030 c3        1 AH0      0.025100
     16 CB          2.4350    1.8600    2.2650 c3        1 AH0     -0.072100
     17 C           3.1880    0.9710    0.0900 c         1 AH0      0.886600
     18 O           4.0810    0.0790   -0.0330 o         1 AH0     -0.840300
     19 OXT         3.1940    1.9790   -0.6690 o         1 AH0     -0.840300
     20 H1         -2.4390   -0.4520   -1.7620 h2        1 AH0      0.114700
     21 H2         -0.2610    0.6880   -1.3550 h1        1 AH0      0.099700
     22 HN2         0.0860   -2.0370   -1.0670 hn        1 AH0      0.350500
     23 H81         1.4140   -2.7830   -3.3200 hc        1 AH0      0.074700
     24 H82         0.6190   -2.3450   -4.6500 hc        1 AH0      0.074700
     25 H83        -0.0950   -3.2640   -3.5370 hc        1 AH0      0.074700
     26 H3          0.5890   -0.8410    0.6540 h1        1 AH0      0.113700
     27 H4         -0.8400    0.7560    2.2260 h1        1 AH0      0.084700
     28 HO4        -1.0680   -1.0420    3.3230 ho        1 AH0      0.410000
     29 H5         -3.0370   -0.3930    1.9150 h1        1 AH0      0.091700
     30 H61        -3.7180    1.5670    1.0680 h1        1 AH0      0.050200
     31 H62        -2.1750    1.9890    1.3010 h1        1 AH0      0.050200
     32 HA          2.1690   -0.0470    1.5890 h1        1 AH0      0.023700
     33 HB1         2.1240    2.7360    1.9800 hc        1 AH0      0.033367
     34 HB2         1.9760    1.6030    3.0920 hc        1 AH0      0.033367
     35 HB3         3.4020    1.8930    2.4250 hc        1 AH0      0.033367
@<TRIPOS>BOND
     1    1    2 1   
     2    1   12 1   
     3    1   14 1   
     4    1   20 1   
     5    2    3 1   
     6    2    7 1   
     7    2   21 1   
     8    3    4 1   
     9    3   22 1   
    10    4    5 2   
    11    4    6 1   
    12    6   23 1   
    13    6   24 1   
    14    6   25 1   
    15    7    8 1   
    16    7    9 1   
    17    7   26 1   
    18    8   15 1   
    19    9   10 1   
    20    9   11 1   
    21    9   27 1   
    22   10   28 1   
    23   11   12 1   
    24   11   13 1   
    25   11   29 1   
    26   13   14 1   
    27   13   30 1   
    28   13   31 1   
    29   15   16 1   
    30   15   17 1   
    31   15   32 1   
    32   16   33 1   
    33   16   34 1   
    34   16   35 1   
    35   17   18 1   
    36   17   19 1   
@<TRIPOS>SUBSTRUCTURE
     1 AH0         1 TEMP              0 ****  ****    0 ROOT
