@<TRIPOS>MOLECULE
AH0
   35    36     1     0     0
SMALL
bcc


@<TRIPOS>ATOM
      1 C1          1.4100    0.8490    1.2780 c3        1 AH0      0.310900
      2 C2          1.0300   -0.3510    0.3580 c3        1 AH0      0.049700
      3 N2          2.2030   -0.9150   -0.2710 n         1 AH0     -0.565900
      4 C7          3.1020   -1.7200    0.3900 c         1 AH0      0.655100
      5 O7          2.9750   -2.0050    1.5980 o         1 AH0     -0.614100
      6 C8          4.2600   -2.2610   -0.4190 c3        1 AH0     -0.176100
      7 C3         -0.0320    0.0460   -0.7180 c3        1 AH0      0.106100
      8 O3         -1.3040   -0.1630   -0.1280 os        1 AH0     -0.384600
      9 C4          0.0640    1.5240   -1.1670 c3        1 AH0      0.095100
     10 O4          1.0210    1.6510   -2.2080 oh        1 AH0     -0.608800
     11 C5          0.4330    2.4440    0.0030 c3        1 AH0      0.075100
     12 O5          1.7240    1.9920    0.4770 os        1 AH0     -0.457600
     13 C6         -0.4720    2.2080    1.2260 c3        1 AH0      0.101400
     14 O6          0.2960    1.2950    2.0400 os        1 AH0     -0.417600
     15 CA         -2.2510   -0.8580   -0.9450 c3        1 AH0     -0.004900
     16 CB         -2.5230   -0.1650   -2.2610 c3        1 AH0     -0.113100
     17 C          -3.5790   -0.9010   -0.1090 c         1 AH0      0.935600
     18 O          -4.0800    0.1930    0.2560 o         1 AH0     -0.820800
     19 OXT        -4.0670   -2.0450    0.0850 o         1 AH0     -0.820800
     20 H1          2.2580    0.6330    1.9720 h2        1 AH0      0.109700
     21 H2          0.5620   -1.1310    1.0330 h1        1 AH0      0.119700
     22 HN2         2.3910   -0.6420   -1.2050 hn        1 AH0      0.306500
     23 H81         4.8690   -1.4270   -0.8420 hc        1 AH0      0.058700
     24 H82         4.9050   -2.8810    0.2500 hc        1 AH0      0.058700
     25 H83         3.8850   -2.9000   -1.2540 hc        1 AH0      0.058700
     26 H3          0.0980   -0.5970   -1.6350 h1        1 AH0      0.054700
     27 H4         -0.9170    1.8320   -1.6250 h1        1 AH0      0.106700
     28 HO4         1.8930    1.5910   -1.7960 ho        1 AH0      0.399000
     29 H5          0.5550    3.5080   -0.3010 h1        1 AH0      0.085700
     30 H61        -0.6110    3.1330    1.8350 h1        1 AH0      0.090200
     31 H62        -1.4520    1.7210    0.9810 h1        1 AH0      0.090200
     32 HA         -1.8730   -1.9020   -1.1200 h1        1 AH0      0.027700
     33 HB1        -2.9460    0.8510   -2.0690 hc        1 AH0      0.029367
     34 HB2        -1.6000   -0.0650   -2.8810 hc        1 AH0      0.029367
     35 HB3        -3.2770   -0.7590   -2.8320 hc        1 AH0      0.029367
@<TRIPOS>BOND
     1    1    2 1   
     2    1   12 1   
     3    1   14 1   
     4    1   20 1   
     5    2    3 1   
     6    2    7 1   
     7    2   21 1   
     8    3    4 1   
     9    3   22 1   
    10    4    5 2   
    11    4    6 1   
    12    6   23 1   
    13    6   24 1   
    14    6   25 1   
    15    7    8 1   
    16    7    9 1   
    17    7   26 1   
    18    8   15 1   
    19    9   10 1   
    20    9   11 1   
    21    9   27 1   
    22   10   28 1   
    23   11   12 1   
    24   11   13 1   
    25   11   29 1   
    26   13   14 1   
    27   13   30 1   
    28   13   31 1   
    29   15   16 1   
    30   15   17 1   
    31   15   32 1   
    32   16   33 1   
    33   16   34 1   
    34   16   35 1   
    35   17   18 1   
    36   17   19 1   
@<TRIPOS>SUBSTRUCTURE
     1 AH0         1 TEMP              0 ****  ****    0 ROOT
