@<TRIPOS>MOLECULE
AH0
   36    37     1     0     0
SMALL
bcc


@<TRIPOS>ATOM
      1 C1         -0.3740    0.2240    0.1120 c3        1 AH0      0.311900
      2 C2          1.1290    0.5970    0.2240 c3        1 AH0      0.046500
      3 N2          1.7830    0.6380   -1.1230 n4        1 AH0     -0.681800
      4 C7          1.8280   -0.6650   -1.8640 c         1 AH0      0.568100
      5 O7          0.9350   -0.8450   -2.6870 o         1 AH0     -0.476100
      6 C8          2.9700   -1.5720   -1.5620 c3        1 AH0     -0.201100
      7 C3          1.9260   -0.2400    1.2790 c3        1 AH0      0.135100
      8 O3          2.2150    0.6230    2.3710 os        1 AH0     -0.423600
      9 C4          1.1860   -1.4520    1.8980 c3        1 AH0      0.118100
     10 O4          1.7560   -2.5950    1.2750 oh        1 AH0     -0.603800
     11 C5         -0.3280   -1.4080    1.6760 c3        1 AH0      0.068100
     12 O5         -0.5560   -1.1750    0.2700 os        1 AH0     -0.407600
     13 C6         -0.9390   -0.1510    2.3290 c3        1 AH0      0.100400
     14 O6         -1.0650    0.7740    1.2290 os        1 AH0     -0.411600
     15 CA          3.4980    1.2930    2.2810 c3        1 AH0      0.040100
     16 CB          3.4280    2.4580    3.2400 c3        1 AH0     -0.087100
     17 C           3.7310    1.7260    0.8280 c         1 AH0      0.870600
     18 O           4.3380    0.9070    0.0550 o         1 AH0     -0.840800
     19 OXT         3.1700    2.7550    0.3610 o         1 AH0     -0.840800
     20 H1         -0.8830    0.5570   -0.8270 h2        1 AH0      0.123700
     21 H2          1.1720    1.6790    0.6030 hx        1 AH0      0.171700
     22 HN2         1.2720    1.3280   -1.6840 hn        1 AH0      0.488800
     23 H81         3.8880   -1.0120   -1.2330 hc        1 AH0      0.118033
     24 H82         2.6640   -2.2710   -0.7360 hc        1 AH0      0.118033
     25 H83         3.2020   -2.1710   -2.4780 hc        1 AH0      0.118033
     26 H3          2.8870   -0.6320    0.8250 h1        1 AH0      0.116700
     27 H4          1.4010   -1.4760    3.0050 h1        1 AH0      0.079700
     28 HO4         1.3160   -3.3690    1.6450 ho        1 AH0      0.414000
     29 H5         -0.8410   -2.3650    1.9260 h1        1 AH0      0.102700
     30 H61        -0.2670    0.3130    3.0940 h1        1 AH0      0.083200
     31 H62        -1.9680   -0.3200    2.7250 h1        1 AH0      0.083200
     32 HA          4.2820    0.5480    2.5870 h1        1 AH0      0.055700
     33 HB1         4.4550    2.8700    3.3810 hc        1 AH0      0.049700
     34 HB2         3.0200    2.1310    4.2250 hc        1 AH0      0.049700
     35 HB3         2.7710    3.2570    2.8180 hc        1 AH0      0.049700
     36 H22         2.7800    0.9810   -1.0080 hn        1 AH0      0.488800
@<TRIPOS>BOND
     1    1    2 1   
     2    1   12 1   
     3    1   14 1   
     4    1   20 1   
     5    2    3 1   
     6    2    7 1   
     7    2   21 1   
     8    3    4 1   
     9    3   22 1   
    10    3   36 1   
    11    4    5 2   
    12    4    6 1   
    13    6   23 1   
    14    6   24 1   
    15    6   25 1   
    16    7    8 1   
    17    7    9 1   
    18    7   26 1   
    19    8   15 1   
    20    9   10 1   
    21    9   11 1   
    22    9   27 1   
    23   10   28 1   
    24   11   12 1   
    25   11   13 1   
    26   11   29 1   
    27   13   14 1   
    28   13   30 1   
    29   13   31 1   
    30   15   16 1   
    31   15   17 1   
    32   15   32 1   
    33   16   33 1   
    34   16   34 1   
    35   16   35 1   
    36   17   18 1   
    37   17   19 1   
@<TRIPOS>SUBSTRUCTURE
     1 AH0         1 TEMP              0 ****  ****    0 ROOT
