@<TRIPOS>MOLECULE
AH0
   36    37     1     0     0
SMALL
bcc


@<TRIPOS>ATOM
      1 C1         -0.5440   -0.6050    0.5370 c3        1 AH0      0.314900
      2 C2          0.8600   -0.1360    0.0540 c3        1 AH0      0.059700
      3 N2          1.2820   -0.9290   -1.0680 ns        1 AH0     -0.577900
      4 C7          1.7910   -0.3790   -2.2330 c         1 AH0      0.663100
      5 O7          1.8550    0.8550   -2.3910 o         1 AH0     -0.596100
      6 C8          2.2420   -1.3420   -3.3030 c3        1 AH0     -0.175100
      7 C3          1.9070   -0.1680    1.2150 c3        1 AH0      0.081100
      8 O3          1.8790    1.1480    1.7780 os        1 AH0     -0.396600
      9 C4          1.6290   -1.1940    2.3390 c3        1 AH0      0.097100
     10 O4          2.2880   -2.4110    2.0510 oh        1 AH0     -0.586800
     11 C5          0.1260   -1.4280    2.5390 c3        1 AH0      0.074100
     12 O5         -0.4090   -1.8290    1.2600 os        1 AH0     -0.438600
     13 C6         -0.6110   -0.1030    2.8060 c3        1 AH0      0.107400
     14 O6         -1.0840    0.2910    1.5030 os        1 AH0     -0.417600
     15 CA          3.1330    1.6080    2.2760 c3        1 AH0      0.105100
     16 CB          2.8210    2.6690    3.3150 c3        1 AH0     -0.095100
     17 C           3.9540    2.2020    1.1470 c         1 AH0      0.611100
     18 O           4.3800    1.2820    0.2370 oh        1 AH0     -0.613100
     19 OXT         4.3020    3.3700    0.9710 o         1 AH0     -0.530000
     20 H1         -1.2930   -0.7400   -0.2820 h2        1 AH0      0.118700
     21 H2          0.7620    0.9450   -0.2750 h1        1 AH0      0.131700
     22 HN2         1.2960   -1.9130   -0.9450 hn        1 AH0      0.310500
     23 H81         3.0820   -1.9770   -2.9290 hc        1 AH0      0.068033
     24 H82         1.3990   -2.0010   -3.6210 hc        1 AH0      0.068033
     25 H83         2.5960   -0.7550   -4.1860 hc        1 AH0      0.068033
     26 H3          2.9310   -0.3860    0.7940 h1        1 AH0      0.093700
     27 H4          2.0960   -0.8330    3.2980 h1        1 AH0      0.086700
     28 HO4         1.8020   -2.8340    1.3300 ho        1 AH0      0.410000
     29 H5         -0.0940   -2.2530    3.2550 h1        1 AH0      0.107700
     30 H61         0.0570    0.7050    3.1910 h1        1 AH0      0.072700
     31 H62        -1.5140   -0.2330    3.4510 h1        1 AH0      0.072700
     32 HA          3.7220    0.7580    2.7240 h1        1 AH0      0.071700
     33 HB1         3.7750    3.0820    3.7200 hc        1 AH0      0.060367
     34 HB2         2.2340    3.5000    2.8530 hc        1 AH0      0.060367
     35 HB3         2.2210    2.2190    4.1410 hc        1 AH0      0.060367
     36 H22         4.8440    1.7280   -0.4910 ho        1 AH0      0.451000
@<TRIPOS>BOND
     1    1    2 1   
     2    1   12 1   
     3    1   14 1   
     4    1   20 1   
     5    2    3 1   
     6    2    7 1   
     7    2   21 1   
     8    3    4 1   
     9    3   22 1   
    10    4    5 2   
    11    4    6 1   
    12    6   23 1   
    13    6   24 1   
    14    6   25 1   
    15    7    8 1   
    16    7    9 1   
    17    7   26 1   
    18    8   15 1   
    19    9   10 1   
    20    9   11 1   
    21    9   27 1   
    22   10   28 1   
    23   11   12 1   
    24   11   13 1   
    25   11   29 1   
    26   13   14 1   
    27   13   30 1   
    28   13   31 1   
    29   15   16 1   
    30   15   17 1   
    31   15   32 1   
    32   16   33 1   
    33   16   34 1   
    34   16   35 1   
    35   17   18 1   
    36   17   19 2   
    37   18   36 1   
@<TRIPOS>SUBSTRUCTURE
     1 AH0         1 TEMP              0 ****  ****    0 ROOT
