@<TRIPOS>MOLECULE
AH1
   74    78     1     0     0
SMALL
bcc


@<TRIPOS>ATOM
      1 N01         1.4540   -0.5730   -0.2110 n         1 AH1     -0.453300
      2 C02         0.7780   -1.0860    0.9090 c         1 AH1      0.798500
      3 N03        -0.6080   -0.8220    1.1200 n         1 AH1     -0.453300
      4 C04        -1.1210    0.5360    1.1210 c3        1 AH1      0.096200
      5 C05        -0.0800    1.6260    0.7810 c3        1 AH1      0.112100
      6 C06         0.3230    1.6290   -0.7000 c3        1 AH1      0.112100
      7 C07         0.7560    0.2210   -1.1940 c3        1 AH1      0.096200
      8 C08         2.8660   -0.8720   -0.3360 c3        1 AH1      0.135800
      9 C09         3.7980    0.1530    0.2480 ca        1 AH1     -0.117300
     10 C10         3.8080    0.3800    1.6290 ca        1 AH1     -0.115500
     11 C11         4.7030    1.2930    2.1820 ca        1 AH1     -0.137000
     12 C12         5.5960    1.9820    1.3610 ca        1 AH1     -0.125500
     13 C13         5.5920    1.7550   -0.0150 ca        1 AH1     -0.137000
     14 C14         4.6950    0.8440   -0.5720 ca        1 AH1     -0.115500
     15 O15         1.3840   -1.8730    1.6800 o         1 AH1     -0.678500
     16 C16        -1.3030   -1.7350    2.0150 c3        1 AH1      0.135800
     17 C17        -1.3260   -1.3720    3.4730 ca        1 AH1     -0.117300
     18 C18        -2.4540   -0.7470    4.0180 ca        1 AH1     -0.115500
     19 C19        -2.5010   -0.4530    5.3800 ca        1 AH1     -0.137000
     20 C20        -1.4220   -0.7770    6.2030 ca        1 AH1     -0.125500
     21 C21        -0.2940   -1.3950    5.6610 ca        1 AH1     -0.137000
     22 C22        -0.2440   -1.6920    4.3000 ca        1 AH1     -0.115500
     23 C23        -2.3490    0.7020    0.1930 c3        1 AH1      0.122400
     24 O24        -3.4610    0.1900    0.9360 os        1 AH1     -0.336900
     25 C25        -4.6950    0.2850    0.3200 ca        1 AH1      0.122600
     26 C26        -5.7670   -0.2190    1.0810 ca        1 AH1     -0.179750
     27 C27        -7.0520   -0.1710    0.5530 ca        1 AH1     -0.096500
     28 C28        -7.2780    0.3690   -0.7150 ca        1 AH1     -0.163000
     29 C29        -6.2110    0.8650   -1.4600 ca        1 AH1     -0.096500
     30 C30        -4.9120    0.8280   -0.9520 ca        1 AH1     -0.179750
     31 O31        -0.6380    2.9140    1.0120 oh        1 AH1     -0.601800
     32 O32         1.3930    2.5310   -0.9160 oh        1 AH1     -0.601800
     33 C33         1.5000    0.4460   -2.5260 c3        1 AH1      0.122400
     34 O34         1.5480   -0.8250   -3.1830 os        1 AH1     -0.336900
     35 C35         2.1070   -0.8250   -4.4480 ca        1 AH1      0.122600
     36 C36         2.1080   -2.0810   -5.0850 ca        1 AH1     -0.179750
     37 C37         2.6510   -2.1920   -6.3590 ca        1 AH1     -0.096500
     38 C38         3.1880   -1.0730   -7.0010 ca        1 AH1     -0.163000
     39 C39         3.1830    0.1650   -6.3620 ca        1 AH1     -0.096500
     40 C40         2.6440    0.3010   -5.0820 ca        1 AH1     -0.179750
     41 H04        -1.4930    0.7720    2.1720 h1        1 AH1      0.075700
     42 H05         0.8350    1.5010    1.4290 h1        1 AH1      0.062700
     43 H06        -0.5610    1.9590   -1.3200 h1        1 AH1      0.062700
     44 H07        -0.2020   -0.3350   -1.4500 h1        1 AH1      0.075700
     45 H081        3.0640   -1.8550    0.1920 h1        1 AH1      0.079450
     46 H082        3.1010   -1.0300   -1.4280 h1        1 AH1      0.079450
     47 H10         3.1100   -0.1820    2.2720 ha        1 AH1      0.146250
     48 H11         4.7080    1.4660    3.2680 ha        1 AH1      0.130500
     49 H12         6.3030    2.7010    1.7980 ha        1 AH1      0.129000
     50 H13         6.2970    2.2940   -0.6640 ha        1 AH1      0.130500
     51 H14         4.6970    0.6690   -1.6580 ha        1 AH1      0.146250
     52 H161       -2.3670   -1.7800    1.6340 h1        1 AH1      0.079450
     53 H162       -0.8320   -2.7540    1.9030 h1        1 AH1      0.079450
     54 H18        -3.3030   -0.4890    3.3640 ha        1 AH1      0.146250
     55 H19        -3.3900    0.0340    5.8060 ha        1 AH1      0.130500
     56 H20        -1.4610   -0.5480    7.2770 ha        1 AH1      0.129000
     57 H21         0.5570   -1.6520    6.3080 ha        1 AH1      0.130500
     58 H22         0.6460   -2.1750    3.8620 ha        1 AH1      0.146250
     59 H231       -2.5080    1.7950   -0.0120 h1        1 AH1      0.060700
     60 H232       -2.2410    0.1340   -0.7660 h1        1 AH1      0.060700
     61 H26        -5.5710   -0.6410    2.0760 ha        1 AH1      0.143000
     62 H27        -7.8950   -0.5640    1.1410 ha        1 AH1      0.133750
     63 H28        -8.2980    0.4020   -1.1240 ha        1 AH1      0.134000
     64 H29        -6.3880    1.2900   -2.4590 ha        1 AH1      0.133750
     65 H30        -4.0810    1.2230   -1.5520 ha        1 AH1      0.143000
     66 HO1        -0.8090    2.9860    1.9590 ho        1 AH1      0.420000
     67 HO2         1.1490    3.3630   -0.4870 ho        1 AH1      0.420000
     68 H331        0.9070    1.1700   -3.1460 h1        1 AH1      0.060700
     69 H332        2.5340    0.8490   -2.3650 h1        1 AH1      0.060700
     70 H36         1.6820   -2.9510   -4.5660 ha        1 AH1      0.143000
     71 H37         2.6560   -3.1690   -6.8650 ha        1 AH1      0.133750
     72 H38         3.6150   -1.1710   -8.0090 ha        1 AH1      0.134000
     73 H39         3.6060    1.0460   -6.8660 ha        1 AH1      0.133750
     74 H40         2.6490    1.2840   -4.5920 ha        1 AH1      0.143000
@<TRIPOS>BOND
     1    1    2 1   
     2    1    7 1   
     3    1    8 1   
     4    2    3 1   
     5    2   15 2   
     6    3    4 1   
     7    3   16 1   
     8    4    5 1   
     9    4   23 1   
    10    4   41 1   
    11    5    6 1   
    12    5   31 1   
    13    5   42 1   
    14    6    7 1   
    15    6   32 1   
    16    6   43 1   
    17    7   33 1   
    18    7   44 1   
    19    8    9 1   
    20    8   45 1   
    21    8   46 1   
    22    9   10 ar  
    23    9   14 ar  
    24   10   11 ar  
    25   10   47 1   
    26   11   12 ar  
    27   11   48 1   
    28   12   13 ar  
    29   12   49 1   
    30   13   14 ar  
    31   13   50 1   
    32   14   51 1   
    33   16   17 1   
    34   16   52 1   
    35   16   53 1   
    36   17   18 ar  
    37   17   22 ar  
    38   18   19 ar  
    39   18   54 1   
    40   19   20 ar  
    41   19   55 1   
    42   20   21 ar  
    43   20   56 1   
    44   21   22 ar  
    45   21   57 1   
    46   22   58 1   
    47   23   24 1   
    48   23   59 1   
    49   23   60 1   
    50   24   25 1   
    51   25   26 ar  
    52   25   30 ar  
    53   26   27 ar  
    54   26   61 1   
    55   27   28 ar  
    56   27   62 1   
    57   28   29 ar  
    58   28   63 1   
    59   29   30 ar  
    60   29   64 1   
    61   30   65 1   
    62   31   66 1   
    63   32   67 1   
    64   33   34 1   
    65   33   68 1   
    66   33   69 1   
    67   34   35 1   
    68   35   36 ar  
    69   35   40 ar  
    70   36   37 ar  
    71   36   70 1   
    72   37   38 ar  
    73   37   71 1   
    74   38   39 ar  
    75   38   72 1   
    76   39   40 ar  
    77   39   73 1   
    78   40   74 1   
@<TRIPOS>SUBSTRUCTURE
     1 AH1         1 TEMP              0 ****  ****    0 ROOT
