@<TRIPOS>MOLECULE
AH1
   74    78     1     0     0
SMALL
bcc


@<TRIPOS>ATOM
      1 N01        -0.4430    0.3230   -0.3950 n         1 AH1     -0.453300
      2 C02         0.9550    0.2590   -0.2790 c         1 AH1      0.798500
      3 N03         1.5750   -0.3000    0.8790 n         1 AH1     -0.453300
      4 C04         1.2340    0.1680    2.2100 c3        1 AH1      0.096200
      5 C05         0.1040    1.2190    2.2630 c3        1 AH1      0.112100
      6 C06        -1.2800    0.6260    1.9660 c3        1 AH1      0.112100
      7 C07        -1.2950   -0.1960    0.6470 c3        1 AH1      0.096200
      8 C08        -0.9890    0.9250   -1.5950 c3        1 AH1      0.135800
      9 C09        -1.2880    2.3950   -1.5020 ca        1 AH1     -0.117300
     10 C10        -0.2430    3.3090   -1.3280 ca        1 AH1     -0.115500
     11 C11        -0.5080    4.6770   -1.2900 ca        1 AH1     -0.137000
     12 C12        -1.8180    5.1390   -1.4290 ca        1 AH1     -0.125500
     13 C13        -2.8600    4.2310   -1.6070 ca        1 AH1     -0.137000
     14 C14        -2.5980    2.8610   -1.6420 ca        1 AH1     -0.115500
     15 O15         1.6670    0.6080   -1.2550 o         1 AH1     -0.678500
     16 C16         2.9560   -0.7290    0.7200 c3        1 AH1      0.135800
     17 C17         4.0230    0.2870    1.0160 ca        1 AH1     -0.117300
     18 C18         4.6700    0.2770    2.2570 ca        1 AH1     -0.115500
     19 C19         5.6950    1.1850    2.5180 ca        1 AH1     -0.137000
     20 C20         6.0750    2.1090    1.5440 ca        1 AH1     -0.125500
     21 C21         5.4280    2.1250    0.3090 ca        1 AH1     -0.137000
     22 C22         4.4030    1.2170    0.0430 ca        1 AH1     -0.115500
     23 C23         0.8900   -0.9940    3.1730 c3        1 AH1      0.122400
     24 O24         2.1510   -1.5310    3.5900 os        1 AH1     -0.336900
     25 C25         2.0940   -2.5620    4.5090 ca        1 AH1      0.122600
     26 C26         3.3510   -3.0610    4.9040 ca        1 AH1     -0.179750
     27 C27         3.4070   -4.0990    5.8250 ca        1 AH1     -0.096500
     28 C28         2.2330   -4.6430    6.3540 ca        1 AH1     -0.163000
     29 C29         0.9960   -4.1420    5.9580 ca        1 AH1     -0.096500
     30 C30         0.9130   -3.1000    5.0330 ca        1 AH1     -0.179750
     31 O31        -0.0000    1.7500    3.5790 oh        1 AH1     -0.601800
     32 O32        -2.2460    1.6570    1.8640 oh        1 AH1     -0.601800
     33 C33        -2.7810   -0.3760    0.2730 c3        1 AH1      0.122400
     34 O34        -2.8330   -1.4420   -0.6800 os        1 AH1     -0.336900
     35 C35        -4.0990   -1.8230   -1.0860 ca        1 AH1      0.122600
     36 C36        -4.1220   -2.8990   -1.9940 ca        1 AH1     -0.179750
     37 C37        -5.3450   -3.3580   -2.4670 ca        1 AH1     -0.096500
     38 C38        -6.5370   -2.7610   -2.0470 ca        1 AH1     -0.163000
     39 C39        -6.5040   -1.6980   -1.1490 ca        1 AH1     -0.096500
     40 C40        -5.2870   -1.2190   -0.6600 ca        1 AH1     -0.179750
     41 H04         2.1550    0.6740    2.6530 h1        1 AH1      0.075700
     42 H05         0.3250    2.0600    1.5440 h1        1 AH1      0.062700
     43 H06        -1.5730   -0.0640    2.8100 h1        1 AH1      0.062700
     44 H07        -0.9030   -1.2300    0.9120 h1        1 AH1      0.075700
     45 H081       -1.9200    0.3590   -1.8870 h1        1 AH1      0.079450
     46 H082       -0.2370    0.7810   -2.4310 h1        1 AH1      0.079450
     47 H10         0.7900    2.9360   -1.2360 ha        1 AH1      0.146250
     48 H11         0.3160    5.3920   -1.1550 ha        1 AH1      0.130500
     49 H12        -2.0260    6.2180   -1.4000 ha        1 AH1      0.129000
     50 H13        -3.8930    4.5930   -1.7200 ha        1 AH1      0.130500
     51 H14        -3.4250    2.1500   -1.7840 ha        1 AH1      0.146250
     52 H161        3.0820   -1.6060    1.4230 h1        1 AH1      0.079450
     53 H162        3.0850   -1.0920   -0.3400 h1        1 AH1      0.079450
     54 H18         4.3640   -0.4540    3.0240 ha        1 AH1      0.146250
     55 H19         6.2040    1.1720    3.4930 ha        1 AH1      0.130500
     56 H20         6.8860    2.8230    1.7510 ha        1 AH1      0.129000
     57 H21         5.7260    2.8530   -0.4600 ha        1 AH1      0.130500
     58 H22         3.8820    1.2270   -0.9290 ha        1 AH1      0.146250
     59 H231        0.2830   -1.7950    2.6780 h1        1 AH1      0.060700
     60 H232        0.3460   -0.5830    4.0650 h1        1 AH1      0.060700
     61 H26         4.2640   -2.6230    4.4770 ha        1 AH1      0.143000
     62 H27         4.3840   -4.4960    6.1380 ha        1 AH1      0.133750
     63 H28         2.2880   -5.4640    7.0820 ha        1 AH1      0.134000
     64 H29         0.0700   -4.5700    6.3730 ha        1 AH1      0.133750
     65 H30        -0.0700   -2.7170    4.7310 ha        1 AH1      0.143000
     66 HO1         0.8210    2.2240    3.7620 ho        1 AH1      0.420000
     67 HO2        -2.1280    2.2280    2.6360 ho        1 AH1      0.420000
     68 H331       -3.3470   -0.6670    1.1980 h1        1 AH1      0.060700
     69 H332       -3.2200    0.5620   -0.1560 h1        1 AH1      0.060700
     70 H36        -3.1750   -3.3560   -2.3150 ha        1 AH1      0.143000
     71 H37        -5.3730   -4.1970   -3.1780 ha        1 AH1      0.133750
     72 H38        -7.5000   -3.1320   -2.4270 ha        1 AH1      0.134000
     73 H39        -7.4410   -1.2270   -0.8180 ha        1 AH1      0.133750
     74 H40        -5.2790   -0.3780    0.0470 ha        1 AH1      0.143000
@<TRIPOS>BOND
     1    1    2 1   
     2    1    7 1   
     3    1    8 1   
     4    2    3 1   
     5    2   15 2   
     6    3    4 1   
     7    3   16 1   
     8    4    5 1   
     9    4   23 1   
    10    4   41 1   
    11    5    6 1   
    12    5   31 1   
    13    5   42 1   
    14    6    7 1   
    15    6   32 1   
    16    6   43 1   
    17    7   33 1   
    18    7   44 1   
    19    8    9 1   
    20    8   45 1   
    21    8   46 1   
    22    9   10 ar  
    23    9   14 ar  
    24   10   11 ar  
    25   10   47 1   
    26   11   12 ar  
    27   11   48 1   
    28   12   13 ar  
    29   12   49 1   
    30   13   14 ar  
    31   13   50 1   
    32   14   51 1   
    33   16   17 1   
    34   16   52 1   
    35   16   53 1   
    36   17   18 ar  
    37   17   22 ar  
    38   18   19 ar  
    39   18   54 1   
    40   19   20 ar  
    41   19   55 1   
    42   20   21 ar  
    43   20   56 1   
    44   21   22 ar  
    45   21   57 1   
    46   22   58 1   
    47   23   24 1   
    48   23   59 1   
    49   23   60 1   
    50   24   25 1   
    51   25   26 ar  
    52   25   30 ar  
    53   26   27 ar  
    54   26   61 1   
    55   27   28 ar  
    56   27   62 1   
    57   28   29 ar  
    58   28   63 1   
    59   29   30 ar  
    60   29   64 1   
    61   30   65 1   
    62   31   66 1   
    63   32   67 1   
    64   33   34 1   
    65   33   68 1   
    66   33   69 1   
    67   34   35 1   
    68   35   36 ar  
    69   35   40 ar  
    70   36   37 ar  
    71   36   70 1   
    72   37   38 ar  
    73   37   71 1   
    74   38   39 ar  
    75   38   72 1   
    76   39   40 ar  
    77   39   73 1   
    78   40   74 1   
@<TRIPOS>SUBSTRUCTURE
     1 AH1         1 TEMP              0 ****  ****    0 ROOT
