@<TRIPOS>MOLECULE
AH1
   74    78     1     0     0
SMALL
bcc


@<TRIPOS>ATOM
      1 N01        -0.4450    0.3320   -0.3920 n         1 AH1     -0.453300
      2 C02         0.9530    0.2630   -0.2790 c         1 AH1      0.798500
      3 N03         1.5730   -0.3040    0.8750 n         1 AH1     -0.453300
      4 C04         1.2370    0.1580    2.2090 c3        1 AH1      0.096200
      5 C05         0.1100    1.2110    2.2700 c3        1 AH1      0.112100
      6 C06        -1.2770    0.6240    1.9720 c3        1 AH1      0.112100
      7 C07        -1.2970   -0.1910    0.6490 c3        1 AH1      0.096200
      8 C08        -0.9910    0.9430   -1.5880 c3        1 AH1      0.135800
      9 C09        -1.2850    2.4130   -1.4860 ca        1 AH1     -0.117300
     10 C10        -0.2370    3.3230   -1.3080 ca        1 AH1     -0.115500
     11 C11        -0.4980    4.6910   -1.2610 ca        1 AH1     -0.137000
     12 C12        -1.8060    5.1590   -1.3950 ca        1 AH1     -0.125500
     13 C13        -2.8520    4.2540   -1.5760 ca        1 AH1     -0.137000
     14 C14        -2.5940    2.8840   -1.6200 ca        1 AH1     -0.115500
     15 O15         1.6640    0.6150   -1.2540 o         1 AH1     -0.678500
     16 C16         2.9530   -0.7370    0.7100 c3        1 AH1      0.135800
     17 C17         4.0230    0.2740    1.0100 ca        1 AH1     -0.117300
     18 C18         4.6730    0.2560    2.2490 ca        1 AH1     -0.115500
     19 C19         5.7010    1.1590    2.5140 ca        1 AH1     -0.137000
     20 C20         6.0820    2.0870    1.5440 ca        1 AH1     -0.125500
     21 C21         5.4330    2.1120    0.3100 ca        1 AH1     -0.137000
     22 C22         4.4050    1.2080    0.0410 ca        1 AH1     -0.115500
     23 C23         0.8910   -1.0090    3.1660 c3        1 AH1      0.122400
     24 O24         2.1510   -1.5520    3.5780 os        1 AH1     -0.336900
     25 C25         2.0930   -2.5870    4.4920 ca        1 AH1      0.122600
     26 C26         3.3490   -3.0910    4.8820 ca        1 AH1     -0.179750
     27 C27         3.4040   -4.1350    5.7980 ca        1 AH1     -0.096500
     28 C28         2.2300   -4.6770    6.3260 ca        1 AH1     -0.163000
     29 C29         0.9930   -4.1720    5.9340 ca        1 AH1     -0.096500
     30 C30         0.9120   -3.1240    5.0150 ca        1 AH1     -0.179750
     31 O31         0.0100    1.7360    3.5890 oh        1 AH1     -0.601800
     32 O32        -2.2400    1.6580    1.8780 oh        1 AH1     -0.601800
     33 C33        -2.7840   -0.3640    0.2760 c3        1 AH1      0.122400
     34 O34        -2.8410   -1.4240   -0.6830 os        1 AH1     -0.336900
     35 C35        -4.1090   -1.7990   -1.0880 ca        1 AH1      0.122600
     36 C36        -4.1360   -2.8690   -2.0030 ca        1 AH1     -0.179750
     37 C37        -5.3620   -3.3210   -2.4770 ca        1 AH1     -0.096500
     38 C38        -6.5510   -2.7240   -2.0510 ca        1 AH1     -0.163000
     39 C39        -6.5130   -1.6660   -1.1460 ca        1 AH1     -0.096500
     40 C40        -5.2940   -1.1940   -0.6570 ca        1 AH1     -0.179750
     41 H04         2.1600    0.6580    2.6520 h1        1 AH1      0.075700
     42 H05         0.3320    2.0560    1.5550 h1        1 AH1      0.062700
     43 H06        -1.5700   -0.0700    2.8130 h1        1 AH1      0.062700
     44 H07        -0.9070   -1.2270    0.9080 h1        1 AH1      0.075700
     45 H081       -1.9250    0.3820   -1.8810 h1        1 AH1      0.079450
     46 H082       -0.2420    0.8010   -2.4260 h1        1 AH1      0.079450
     47 H10         0.7950    2.9460   -1.2210 ha        1 AH1      0.146250
     48 H11         0.3290    5.4030   -1.1250 ha        1 AH1      0.130500
     49 H12        -2.0120    6.2380   -1.3590 ha        1 AH1      0.129000
     50 H13        -3.8840    4.6210   -1.6840 ha        1 AH1      0.130500
     51 H14        -3.4250    2.1760   -1.7640 ha        1 AH1      0.146250
     52 H161        3.0780   -1.6180    1.4090 h1        1 AH1      0.079450
     53 H162        3.0790   -1.0940   -0.3520 h1        1 AH1      0.079450
     54 H18         4.3670   -0.4780    3.0130 ha        1 AH1      0.146250
     55 H19         6.2130    1.1390    3.4870 ha        1 AH1      0.130500
     56 H20         6.8960    2.7980    1.7530 ha        1 AH1      0.129000
     57 H21         5.7320    2.8430   -0.4550 ha        1 AH1      0.130500
     58 H22         3.8810    1.2250   -0.9300 ha        1 AH1      0.146250
     59 H231        0.3500   -0.6010    4.0610 h1        1 AH1      0.060700
     60 H232        0.2810   -1.8060    2.6680 h1        1 AH1      0.060700
     61 H26         4.2630   -2.6530    4.4560 ha        1 AH1      0.143000
     62 H27         4.3810   -4.5350    6.1080 ha        1 AH1      0.133750
     63 H28         2.2840   -5.5030    7.0500 ha        1 AH1      0.134000
     64 H29         0.0680   -4.5990    6.3490 ha        1 AH1      0.133750
     65 H30        -0.0710   -2.7380    4.7160 ha        1 AH1      0.143000
     66 HO1         0.8330    2.2050    3.7730 ho        1 AH1      0.420000
     67 HO2        -2.1180    2.2250    2.6530 ho        1 AH1      0.420000
     68 H331       -3.3490   -0.6590    1.2010 h1        1 AH1      0.060700
     69 H332       -3.2210    0.5780   -0.1460 h1        1 AH1      0.060700
     70 H36        -3.1920   -3.3270   -2.3280 ha        1 AH1      0.143000
     71 H37        -5.3930   -4.1560   -3.1930 ha        1 AH1      0.133750
     72 H38        -7.5160   -3.0890   -2.4320 ha        1 AH1      0.134000
     73 H39        -7.4490   -1.1940   -0.8100 ha        1 AH1      0.133750
     74 H40        -5.2820   -0.3570    0.0560 ha        1 AH1      0.143000
@<TRIPOS>BOND
     1    1    2 1   
     2    1    7 1   
     3    1    8 1   
     4    2    3 1   
     5    2   15 2   
     6    3    4 1   
     7    3   16 1   
     8    4    5 1   
     9    4   23 1   
    10    4   41 1   
    11    5    6 1   
    12    5   31 1   
    13    5   42 1   
    14    6    7 1   
    15    6   32 1   
    16    6   43 1   
    17    7   33 1   
    18    7   44 1   
    19    8    9 1   
    20    8   45 1   
    21    8   46 1   
    22    9   10 ar  
    23    9   14 ar  
    24   10   11 ar  
    25   10   47 1   
    26   11   12 ar  
    27   11   48 1   
    28   12   13 ar  
    29   12   49 1   
    30   13   14 ar  
    31   13   50 1   
    32   14   51 1   
    33   16   17 1   
    34   16   52 1   
    35   16   53 1   
    36   17   18 ar  
    37   17   22 ar  
    38   18   19 ar  
    39   18   54 1   
    40   19   20 ar  
    41   19   55 1   
    42   20   21 ar  
    43   20   56 1   
    44   21   22 ar  
    45   21   57 1   
    46   22   58 1   
    47   23   24 1   
    48   23   59 1   
    49   23   60 1   
    50   24   25 1   
    51   25   26 ar  
    52   25   30 ar  
    53   26   27 ar  
    54   26   61 1   
    55   27   28 ar  
    56   27   62 1   
    57   28   29 ar  
    58   28   63 1   
    59   29   30 ar  
    60   29   64 1   
    61   30   65 1   
    62   31   66 1   
    63   32   67 1   
    64   33   34 1   
    65   33   68 1   
    66   33   69 1   
    67   34   35 1   
    68   35   36 ar  
    69   35   40 ar  
    70   36   37 ar  
    71   36   70 1   
    72   37   38 ar  
    73   37   71 1   
    74   38   39 ar  
    75   38   72 1   
    76   39   40 ar  
    77   39   73 1   
    78   40   74 1   
@<TRIPOS>SUBSTRUCTURE
     1 AH1         1 TEMP              0 ****  ****    0 ROOT
