@<TRIPOS>MOLECULE
AH1
   74    70     1     0     0
SMALL
bcc


@<TRIPOS>ATOM
      1 N01        -0.8370    0.2420   -0.5560 n         1 AH1     -0.299000
      2 C02         0.1900    0.2480   -0.5110 c2        1 AH1      0.372000
      3 N03         0.4930    0.1920    0.4820 n         1 AH1     -0.299000
      4 C04         1.3980    0.8440    0.6330 c3        1 AH1      0.006000
      5 C05         1.5050    1.9830   -0.6100 c3        1 AH1     -0.002500
      6 C06        -0.1900    2.3060   -1.4160 c3        1 AH1     -0.002500
      7 C07        -1.1830    0.9350   -1.3570 c3        1 AH1      0.006000
      8 C08        -1.7200   -0.7330    0.1600 c3        1 AH1     -0.001500
      9 C09        -1.7290   -2.0660   -0.6070 c2        1 AH1     -0.108000
     10 C10        -2.8420   -2.8680   -0.5740 c1        1 AH1     -0.115500
     11 C11        -2.7860   -4.1720   -1.1130 c1        1 AH1     -0.128750
     12 C12        -1.5900   -4.6470   -1.6830 c1        1 AH1     -0.128750
     13 C13        -0.4740   -3.8400   -1.7150 c1        1 AH1     -0.133000
     14 C14        -0.5290   -2.5470   -1.1810 c2        1 AH1     -0.116000
     15 O15         0.8150    0.9190   -1.2830 o         1 AH1     -0.390000
     16 C16         0.0690   -0.8530    1.4180 c3        1 AH1     -0.001500
     17 C17         1.3240   -1.5420    2.0240 c2        1 AH1     -0.108000
     18 C18         1.3550   -1.8580    3.4020 c2        1 AH1     -0.116000
     19 C19         2.3570   -2.6480    3.9030 c1        1 AH1     -0.133000
     20 C20         3.3640   -3.1490    3.0410 c1        1 AH1     -0.128750
     21 C21         3.3370   -2.8430    1.6970 c1        1 AH1     -0.128750
     22 C22         2.3110   -2.0340    1.1820 c1        1 AH1     -0.115500
     23 C23         1.2750    1.6190    2.0610 c3        1 AH1     -0.053500
     24 O24         2.4930    1.4160    2.8270 os        1 AH1     -0.227500
     25 C25         2.4810    2.0390    4.1000 c2        1 AH1      0.080000
     26 C26         1.3610    1.9000    4.9470 c2        1 AH1     -0.179000
     27 C27         1.3420    2.5390    6.1890 c1        1 AH1     -0.097000
     28 C28         2.4150    3.3040    6.5840 c1        1 AH1     -0.128750
     29 C29         3.5180    3.4390    5.7460 c1        1 AH1     -0.128750
     30 C30         3.5360    2.7920    4.4910 c1        1 AH1     -0.176500
     31 O31         1.9080    2.9500   -0.1890 oh        1 AH1     -0.330500
     32 O32        -0.0400    2.6080   -2.4880 oh        1 AH1     -0.330500
     33 C33        -1.1330    0.1590   -2.8350 c3        1 AH1     -0.053500
     34 O34        -2.4300   -0.2300   -3.2010 os        1 AH1     -0.227500
     35 C35        -2.8620    0.2970   -4.5260 c2        1 AH1      0.080000
     36 C36        -3.8360    1.2610   -4.5960 c2        1 AH1     -0.179000
     37 C37        -4.3420    1.6590   -5.8490 c1        1 AH1     -0.097000
     38 C38        -3.8530    1.0720   -7.0220 c1        1 AH1     -0.128750
     39 C39        -2.8850    0.1140   -6.9520 c1        1 AH1     -0.128750
     40 C40        -2.3760   -0.2870   -5.7000 c1        1 AH1     -0.176500
     41 H04         2.2280    0.2700    0.6360 h1        1 AH1      0.138000
     42 H05         2.1820    1.6200   -1.3620 h1        1 AH1      0.113500
     43 H06        -0.6080    2.9990   -0.9660 h1        1 AH1      0.113500
     44 H07        -2.0770    1.1980   -1.1720 h1        1 AH1      0.138000
     45 H081       -1.3730   -0.8840    1.0870 h1        1 AH1      0.115500
     46 H082       -2.6460   -0.3710    0.2070 h1        1 AH1      0.115500
     47 H10        -3.6740   -2.5360   -0.1790 ha        1 AH1      0.132000
     48 H11        -3.5900   -4.7540   -1.0900 ha        1 AH1      0.132875
     49 H12        -1.5500   -5.5940   -2.0730 ha        1 AH1      0.132875
     50 H13         0.3990   -4.1860   -2.1310 ha        1 AH1      0.134000
     51 H14         0.2310   -1.9980   -1.2050 ha        1 AH1      0.150500
     52 H161       -0.5160   -1.5710    0.9070 h1        1 AH1      0.115500
     53 H162       -0.4550   -0.4560    2.1270 h1        1 AH1      0.115500
     54 H18         0.6560   -1.5080    4.0050 ha        1 AH1      0.150500
     55 H19         2.3750   -2.8590    4.8360 ha        1 AH1      0.134000
     56 H20         4.0720   -3.7080    3.3970 ha        1 AH1      0.132875
     57 H21         4.0840   -3.2130    1.0580 ha        1 AH1      0.132875
     58 H22         2.2960   -1.8250    0.2710 ha        1 AH1      0.132000
     59 H231        0.5490    1.2810    2.5380 h1        1 AH1      0.103000
     60 H232        1.1430    2.5870    1.8990 h1        1 AH1      0.103000
     61 H26         0.6530    1.3930    4.6870 ha        1 AH1      0.142500
     62 H27         0.5250    2.4380    6.8080 ha        1 AH1      0.133500
     63 H28         2.4030    3.7560    7.4620 ha        1 AH1      0.132875
     64 H29         4.3230    4.0120    6.0400 ha        1 AH1      0.132875
     65 H30         4.2790    2.8820    3.9300 ha        1 AH1      0.143000
     66 HO1         2.5870    3.2350   -0.6910 ho        1 AH1      0.222500
     67 HO2        -0.7700    3.0840   -2.7760 ho        1 AH1      0.222500
     68 H331       -0.7760    0.7670   -3.5100 h1        1 AH1      0.103000
     69 H332       -0.5290   -0.6740   -2.7680 h1        1 AH1      0.103000
     70 H36        -4.1950    1.6940   -3.7320 ha        1 AH1      0.142500
     71 H37        -5.0070    2.3170   -5.8970 ha        1 AH1      0.133500
     72 H38        -4.2000    1.3450   -7.8810 ha        1 AH1      0.132875
     73 H39        -2.5600   -0.2750   -7.7300 ha        1 AH1      0.132875
     74 H40        -1.6670   -0.9870   -5.6540 ha        1 AH1      0.143000
@<TRIPOS>BOND
     1    1    2 1   
     2    1    7 1   
     3    1    8 1   
     4    2    3 1   
     5    2   15 1   
     6    3    4 1   
     7    3   16 1   
     8    4    5 1   
     9    4   23 1   
    10    4   41 1   
    11    5    6 1   
    12    5   31 1   
    13    5   42 1   
    14    6    7 1   
    15    6   32 1   
    16    6   43 1   
    17    7   33 1   
    18    7   44 1   
    19    8    9 1   
    20    8   45 1   
    21    8   46 1   
    22    9   10 1   
    23    9   14 1   
    24   10   47 1   
    25   11   12 1   
    26   11   48 1   
    27   12   49 1   
    28   13   14 1   
    29   13   50 1   
    30   14   51 1   
    31   16   17 1   
    32   16   52 1   
    33   16   53 1   
    34   17   18 1   
    35   17   22 1   
    36   18   19 1   
    37   18   54 1   
    38   19   55 1   
    39   20   21 1   
    40   20   56 1   
    41   21   57 1   
    42   22   58 1   
    43   23   24 1   
    44   23   59 1   
    45   23   60 1   
    46   24   25 1   
    47   25   26 1   
    48   25   30 1   
    49   26   27 1   
    50   26   61 1   
    51   27   62 1   
    52   28   29 1   
    53   28   63 1   
    54   29   64 1   
    55   30   65 1   
    56   31   66 1   
    57   32   67 1   
    58   33   34 1   
    59   33   68 1   
    60   33   69 1   
    61   34   35 1   
    62   35   36 1   
    63   35   40 1   
    64   36   37 1   
    65   36   70 1   
    66   37   71 1   
    67   38   39 1   
    68   38   72 1   
    69   39   73 1   
    70   40   74 1   
@<TRIPOS>SUBSTRUCTURE
     1 AH1         1 TEMP              0 ****  ****    0 ROOT
