@<TRIPOS>MOLECULE
AH1
   74    78     1     0     0
SMALL
bcc


@<TRIPOS>ATOM
      1 N01        -0.4530    0.3250   -0.3920 n         1 AH1     -0.453300
      2 C02         0.9460    0.2610   -0.2840 c         1 AH1      0.798500
      3 N03         1.5730   -0.2990    0.8690 n         1 AH1     -0.453300
      4 C04         1.2400    0.1650    2.2030 c3        1 AH1      0.096200
      5 C05         0.1080    1.2150    2.2650 c3        1 AH1      0.112100
      6 C06        -1.2770    0.6210    1.9740 c3        1 AH1      0.112100
      7 C07        -1.2980   -0.1980    0.6540 c3        1 AH1      0.096200
      8 C08        -1.0060    0.9300   -1.5870 c3        1 AH1      0.135800
      9 C09        -1.3050    2.3990   -1.4880 ca        1 AH1     -0.117300
     10 C10        -0.2590    3.3140   -1.3190 ca        1 AH1     -0.115500
     11 C11        -0.5250    4.6810   -1.2740 ca        1 AH1     -0.137000
     12 C12        -1.8350    5.1430   -1.4020 ca        1 AH1     -0.125500
     13 C13        -2.8790    4.2350   -1.5760 ca        1 AH1     -0.137000
     14 C14        -2.6160    2.8660   -1.6170 ca        1 AH1     -0.115500
     15 O15         1.6520    0.6130   -1.2630 o         1 AH1     -0.678500
     16 C16         2.9530   -0.7270    0.7010 c3        1 AH1      0.135800
     17 C17         4.0210    0.2890    0.9930 ca        1 AH1     -0.117300
     18 C18         4.6760    0.2780    2.2300 ca        1 AH1     -0.115500
     19 C19         5.7010    1.1870    2.4870 ca        1 AH1     -0.137000
     20 C20         6.0750    2.1130    1.5130 ca        1 AH1     -0.125500
     21 C21         5.4210    2.1300    0.2810 ca        1 AH1     -0.137000
     22 C22         4.3950    1.2220    0.0200 ca        1 AH1     -0.115500
     23 C23         0.9030   -1.0000    3.1650 c3        1 AH1      0.122400
     24 O24         2.1660   -1.5360    3.5740 os        1 AH1     -0.336900
     25 C25         2.1160   -2.5670    4.4940 ca        1 AH1      0.122600
     26 C26         3.3760   -3.0620    4.8830 ca        1 AH1     -0.179750
     27 C27         3.4380   -4.1010    5.8040 ca        1 AH1     -0.096500
     28 C28         2.2680   -4.6460    6.3380 ca        1 AH1     -0.163000
     29 C29         1.0280   -4.1490    5.9470 ca        1 AH1     -0.096500
     30 C30         0.9390   -3.1070    5.0230 ca        1 AH1     -0.179750
     31 O31         0.0110    1.7430    3.5820 oh        1 AH1     -0.601800
     32 O32        -2.2440    1.6510    1.8810 oh        1 AH1     -0.601800
     33 C33        -2.7860   -0.3790    0.2870 c3        1 AH1      0.122400
     34 O34        -2.8420   -1.4420   -0.6680 os        1 AH1     -0.336900
     35 C35        -4.1100   -1.8210   -1.0700 ca        1 AH1      0.122600
     36 C36        -4.1370   -2.8930   -1.9840 ca        1 AH1     -0.179750
     37 C37        -5.3620   -3.3500   -2.4530 ca        1 AH1     -0.096500
     38 C38        -6.5520   -2.7560   -2.0240 ca        1 AH1     -0.163000
     39 C39        -6.5150   -1.6980   -1.1200 ca        1 AH1     -0.096500
     40 C40        -5.2960   -1.2200   -0.6350 ca        1 AH1     -0.179750
     41 H04         2.1630    0.6710    2.6420 h1        1 AH1      0.075700
     42 H05         0.3240    2.0580    1.5470 h1        1 AH1      0.062700
     43 H06        -1.5640   -0.0720    2.8180 h1        1 AH1      0.062700
     44 H07        -0.9040   -1.2320    0.9140 h1        1 AH1      0.075700
     45 H081       -1.9380    0.3640   -1.8750 h1        1 AH1      0.079450
     46 H082       -0.2590    0.7890   -2.4280 h1        1 AH1      0.079450
     47 H10         0.7750    2.9400   -1.2350 ha        1 AH1      0.146250
     48 H11         0.3010    5.3960   -1.1440 ha        1 AH1      0.130500
     49 H12        -2.0440    6.2220   -1.3690 ha        1 AH1      0.129000
     50 H13        -3.9120    4.5970   -1.6800 ha        1 AH1      0.130500
     51 H14        -3.4440    2.1550   -1.7550 ha        1 AH1      0.146250
     52 H161        3.0770   -1.0880   -0.3610 h1        1 AH1      0.079450
     53 H162        3.0850   -1.6050    1.4020 h1        1 AH1      0.079450
     54 H18         4.3750   -0.4540    2.9980 ha        1 AH1      0.146250
     55 H19         6.2160    1.1720    3.4580 ha        1 AH1      0.130500
     56 H20         6.8860    2.8270    1.7160 ha        1 AH1      0.129000
     57 H21         5.7140    2.8600   -0.4880 ha        1 AH1      0.130500
     58 H22         3.8680    1.2330   -0.9500 ha        1 AH1      0.146250
     59 H231        0.2940   -1.8000    2.6720 h1        1 AH1      0.060700
     60 H232        0.3630   -0.5910    4.0610 h1        1 AH1      0.060700
     61 H26         4.2860   -2.6220    4.4520 ha        1 AH1      0.143000
     62 H27         4.4180   -4.4950    6.1130 ha        1 AH1      0.133750
     63 H28         2.3280   -5.4680    7.0660 ha        1 AH1      0.134000
     64 H29         0.1050   -4.5790    6.3670 ha        1 AH1      0.133750
     65 H30        -0.0470   -2.7270    4.7250 ha        1 AH1      0.143000
     66 HO1         0.8330    2.2160    3.7620 ho        1 AH1      0.420000
     67 HO2        -2.1220    2.2200    2.6540 ho        1 AH1      0.420000
     68 H331       -3.2290    0.5600   -0.1360 h1        1 AH1      0.060700
     69 H332       -3.3460   -0.6740    1.2150 h1        1 AH1      0.060700
     70 H36        -3.1910   -3.3480   -2.3110 ha        1 AH1      0.143000
     71 H37        -5.3930   -4.1860   -3.1670 ha        1 AH1      0.133750
     72 H38        -7.5160   -3.1260   -2.4010 ha        1 AH1      0.134000
     73 H39        -7.4510   -1.2290   -0.7820 ha        1 AH1      0.133750
     74 H40        -5.2850   -0.3830    0.0760 ha        1 AH1      0.143000
@<TRIPOS>BOND
     1    1    2 1   
     2    1    7 1   
     3    1    8 1   
     4    2    3 1   
     5    2   15 2   
     6    3    4 1   
     7    3   16 1   
     8    4    5 1   
     9    4   23 1   
    10    4   41 1   
    11    5    6 1   
    12    5   31 1   
    13    5   42 1   
    14    6    7 1   
    15    6   32 1   
    16    6   43 1   
    17    7   33 1   
    18    7   44 1   
    19    8    9 1   
    20    8   45 1   
    21    8   46 1   
    22    9   10 ar  
    23    9   14 ar  
    24   10   11 ar  
    25   10   47 1   
    26   11   12 ar  
    27   11   48 1   
    28   12   13 ar  
    29   12   49 1   
    30   13   14 ar  
    31   13   50 1   
    32   14   51 1   
    33   16   17 1   
    34   16   52 1   
    35   16   53 1   
    36   17   18 ar  
    37   17   22 ar  
    38   18   19 ar  
    39   18   54 1   
    40   19   20 ar  
    41   19   55 1   
    42   20   21 ar  
    43   20   56 1   
    44   21   22 ar  
    45   21   57 1   
    46   22   58 1   
    47   23   24 1   
    48   23   59 1   
    49   23   60 1   
    50   24   25 1   
    51   25   26 ar  
    52   25   30 ar  
    53   26   27 ar  
    54   26   61 1   
    55   27   28 ar  
    56   27   62 1   
    57   28   29 ar  
    58   28   63 1   
    59   29   30 ar  
    60   29   64 1   
    61   30   65 1   
    62   31   66 1   
    63   32   67 1   
    64   33   34 1   
    65   33   68 1   
    66   33   69 1   
    67   34   35 1   
    68   35   36 ar  
    69   35   40 ar  
    70   36   37 ar  
    71   36   70 1   
    72   37   38 ar  
    73   37   71 1   
    74   38   39 ar  
    75   38   72 1   
    76   39   40 ar  
    77   39   73 1   
    78   40   74 1   
@<TRIPOS>SUBSTRUCTURE
     1 AH1         1 TEMP              0 ****  ****    0 ROOT
