@<TRIPOS>MOLECULE
AH8
   21    21     1     0     0
SMALL
bcc


@<TRIPOS>ATOM
      1 C1          0.1760   -0.0300   -0.0470 c3        1 AH8      0.364300
      2 N1         -0.2260    1.2490   -0.6430 n2        1 AH8     -0.480200
      3 C2          1.7210   -0.0330    0.1470 c3        1 AH8      0.106100
      4 N2         -1.4370    1.5490   -0.7610 n1        1 AH8      0.238000
      5 O2          2.1730   -1.2670   -0.3780 oh        1 AH8     -0.585800
      6 C3          1.9290    0.0420    1.6780 c3        1 AH8      0.083100
      7 N3         -2.4630    1.9960   -0.9400 n1        1 AH8     -0.033000
      8 O3          2.7110    1.1520    2.0520 oh        1 AH8     -0.584800
      9 C4          0.5130    0.0880    2.2860 c3        1 AH8      0.074100
     10 O4         -0.4140   -0.2470    1.2460 os        1 AH8     -0.417600
     11 C5          0.3270   -0.9200    3.4210 c3        1 AH8      0.130400
     12 O5         -0.7550   -0.5850    4.2600 oh        1 AH8     -0.582800
     13 H1         -0.1530   -0.9160   -0.6680 h2        1 AH8      0.103700
     14 H2          2.2360    0.8220   -0.3670 h1        1 AH8      0.079700
     15 HO2         3.1380   -1.2340   -0.3700 ho        1 AH8      0.415000
     16 H3          2.5090   -0.8500    2.0450 h1        1 AH8      0.101700
     17 HO3         2.2580    1.9500    1.7460 ho        1 AH8      0.410000
     18 H4          0.2720    1.1280    2.6430 h1        1 AH8      0.055700
     19 H5          0.0630   -1.9310    3.0080 h1        1 AH8      0.063200
     20 H5A         1.2780   -0.9790    4.0170 h1        1 AH8      0.063200
     21 HO5        -0.5770    0.2880    4.6310 ho        1 AH8      0.397000
@<TRIPOS>BOND
     1    1    2 1   
     2    1    3 1   
     3    1   10 1   
     4    1   13 1   
     5    2    4 1   
     6    3    5 1   
     7    3    6 1   
     8    3   14 1   
     9    4    7 3   
    10    5   15 1   
    11    6    8 1   
    12    6    9 1   
    13    6   16 1   
    14    8   17 1   
    15    9   10 1   
    16    9   11 1   
    17    9   18 1   
    18   11   12 1   
    19   11   19 1   
    20   11   20 1   
    21   12   21 1   
@<TRIPOS>SUBSTRUCTURE
     1 AH8         1 TEMP              0 ****  ****    0 ROOT
