@<TRIPOS>MOLECULE
AH8
   21    21     1     0     0
SMALL
bcc


@<TRIPOS>ATOM
      1 C1         -0.6560    0.6610   -0.8690 c3        1 AH8      0.326300
      2 N1         -1.2900    2.0150   -0.9250 n2        1 AH8     -0.476200
      3 C2          0.8190    0.8000   -0.7900 c3        1 AH8      0.108100
      4 N2         -2.8530    2.1450   -0.9560 n1        1 AH8      0.236000
      5 O2          1.4650   -0.1550   -1.7320 oh        1 AH8     -0.570800
      6 C3          1.1930    0.4700    0.5600 c3        1 AH8      0.091100
      7 N3         -4.5900    2.2900   -0.9900 n1        1 AH8     -0.025000
      8 O3          1.2420    1.6340    1.3770 oh        1 AH8     -0.574800
      9 C4          0.1780   -0.4370    1.0470 c3        1 AH8      0.051100
     10 O4         -1.0100   -0.0370    0.4900 os        1 AH8     -0.451600
     11 C5          0.5040   -1.9100    0.5860 c3        1 AH8      0.134400
     12 O5         -0.2510   -2.8550    1.4030 oh        1 AH8     -0.589800
     13 H1         -1.1030    0.1550   -1.8750 h2        1 AH8      0.090700
     14 H2          1.0710    1.6930   -0.9990 h1        1 AH8      0.126700
     15 HO2         1.4960   -0.9200   -1.3760 ho        1 AH8      0.405000
     16 H3          2.1340    0.0040    0.5660 h1        1 AH8      0.103700
     17 HO3         0.7560    2.1590    1.1040 ho        1 AH8      0.414000
     18 H4          0.1090   -0.3810    2.1650 h1        1 AH8      0.083700
     19 H5          0.2480   -2.0150   -0.3490 h1        1 AH8      0.052700
     20 H5A         1.5340   -2.1000    0.6880 h1        1 AH8      0.052700
     21 HO5        -0.9980   -3.2140    0.8780 ho        1 AH8      0.413000
@<TRIPOS>BOND
     1    1    2 1   
     2    1    3 1   
     3    1   10 1   
     4    1   13 1   
     5    2    4 1   
     6    3    5 1   
     7    3    6 1   
     8    3   14 1   
     9    4    7 3   
    10    5   15 1   
    11    6    8 1   
    12    6    9 1   
    13    6   16 1   
    14    8   17 1   
    15    9   10 1   
    16    9   11 1   
    17    9   18 1   
    18   11   12 1   
    19   11   19 1   
    20   11   20 1   
    21   12   21 1   
@<TRIPOS>SUBSTRUCTURE
     1 AH8         1 TEMP              0 ****  ****    0 ROOT
