@<TRIPOS>MOLECULE
AH8
   21    21     1     0     0
SMALL
bcc


@<TRIPOS>ATOM
      1 C1          0.7970    0.0450    0.8810 c3        1 AH8      0.347300
      2 N1          2.1090   -0.4680    0.5200 n2        1 AH8     -0.466200
      3 C2          0.4060    1.4040    0.2260 c3        1 AH8      0.068100
      4 N2          2.3430   -0.9980   -0.5940 n1        1 AH8      0.232000
      5 O2          0.1810    2.3900    1.2130 oh        1 AH8     -0.589800
      6 C3         -0.9400    1.1490   -0.4860 c3        1 AH8      0.119100
      7 N3          2.7380   -1.5290   -1.5140 n1        1 AH8     -0.029000
      8 O3         -0.8310    1.4030   -1.8730 oh        1 AH8     -0.588800
      9 C4         -1.2190   -0.3520   -0.3110 c3        1 AH8      0.094100
     10 O4         -0.2680   -0.8850    0.6220 os        1 AH8     -0.434600
     11 C5         -2.6120   -0.6160    0.2640 c3        1 AH8      0.131400
     12 O5         -2.8640   -1.9980    0.3750 oh        1 AH8     -0.592800
     13 H1          0.8620    0.1410    2.0070 h2        1 AH8      0.113700
     14 H2          1.1800    1.7610   -0.5050 h1        1 AH8      0.067700
     15 HO2         1.0270    2.5490    1.6510 ho        1 AH8      0.416000
     16 H3         -1.7500    1.7780   -0.0270 h1        1 AH8      0.078700
     17 HO3        -0.8200    2.3620   -1.9810 ho        1 AH8      0.414000
     18 H4         -1.0860   -0.9040   -1.2820 h1        1 AH8      0.090700
     19 H5         -2.7160   -0.1180    1.2650 h1        1 AH8      0.056200
     20 H5A        -3.3930   -0.2300   -0.4440 h1        1 AH8      0.056200
     21 HO5        -2.1690   -2.3710    0.9340 ho        1 AH8      0.415000
@<TRIPOS>BOND
     1    1    2 1   
     2    1    3 1   
     3    1   10 1   
     4    1   13 1   
     5    2    4 1   
     6    3    5 1   
     7    3    6 1   
     8    3   14 1   
     9    4    7 3   
    10    5   15 1   
    11    6    8 1   
    12    6    9 1   
    13    6   16 1   
    14    8   17 1   
    15    9   10 1   
    16    9   11 1   
    17    9   18 1   
    18   11   12 1   
    19   11   19 1   
    20   11   20 1   
    21   12   21 1   
@<TRIPOS>SUBSTRUCTURE
     1 AH8         1 TEMP              0 ****  ****    0 ROOT
