@<TRIPOS>MOLECULE
AH8
   21    21     1     0     0
SMALL
bcc


@<TRIPOS>ATOM
      1 C1          0.0830   -0.0110   -0.0950 c3        1 AH8      0.366300
      2 N1         -0.2840    1.2990   -0.6410 n2        1 AH8     -0.476200
      3 C2          1.6340   -0.0980    0.0200 c3        1 AH8      0.106100
      4 N2         -1.4850    1.6550   -0.7020 n1        1 AH8      0.237000
      5 O2          1.9820   -1.3580   -0.5200 oh        1 AH8     -0.588800
      6 C3          1.9250   -0.0170    1.5360 c3        1 AH8      0.082100
      7 N3         -2.4950    2.1530   -0.8270 n1        1 AH8     -0.034000
      8 O3          2.7530    1.0760    1.8560 oh        1 AH8     -0.580800
      9 C4          0.5460    0.0660    2.2190 c3        1 AH8      0.068100
     10 O4         -0.4470   -0.2280    1.2250 os        1 AH8     -0.439600
     11 C5          0.3700   -0.9550    3.3430 c3        1 AH8      0.133400
     12 O5          0.6420   -2.2720    2.9180 oh        1 AH8     -0.596800
     13 H1         -0.3240   -0.8670   -0.7130 h2        1 AH8      0.101700
     14 H2          2.1680    0.7200   -0.5350 h1        1 AH8      0.080700
     15 HO2         2.9410   -1.4370   -0.4450 ho        1 AH8      0.417000
     16 H3          2.4910   -0.9250    1.8910 h1        1 AH8      0.116700
     17 HO3         2.3010    1.8820    1.5730 ho        1 AH8      0.408000
     18 H4          0.3550    1.1020    2.6110 h1        1 AH8      0.063700
     19 H5         -0.6760   -0.8850    3.7450 h1        1 AH8      0.059700
     20 H5A         1.1140   -0.7500    4.1580 h1        1 AH8      0.059700
     21 HO5         0.0680   -2.4500    2.1620 ho        1 AH8      0.414000
@<TRIPOS>BOND
     1    1    2 1   
     2    1    3 1   
     3    1   10 1   
     4    1   13 1   
     5    2    4 1   
     6    3    5 1   
     7    3    6 1   
     8    3   14 1   
     9    4    7 3   
    10    5   15 1   
    11    6    8 1   
    12    6    9 1   
    13    6   16 1   
    14    8   17 1   
    15    9   10 1   
    16    9   11 1   
    17    9   18 1   
    18   11   12 1   
    19   11   19 1   
    20   11   20 1   
    21   12   21 1   
@<TRIPOS>SUBSTRUCTURE
     1 AH8         1 TEMP              0 ****  ****    0 ROOT
