@<TRIPOS>MOLECULE
AHA
   22    21     1     0     0
SMALL
bcc


@<TRIPOS>ATOM
      1 C1          1.1810   -0.8190    1.3830 c         1 AHA      0.635100
      2 C2          1.5990    0.2200    0.3930 c3        1 AHA     -0.124400
      3 C3          2.5170    1.2730    0.9780 c3        1 AHA     -0.075400
      4 C4          3.9300    0.7810    1.2190 c3        1 AHA     -0.083400
      5 C5          4.0790    0.1050    2.5650 c3        1 AHA     -0.084400
      6 C6          5.4940   -0.4470    2.7260 c3        1 AHA      0.160800
      7 N           5.7170   -1.0850    4.0010 n8        1 AHA     -0.914800
      8 O1          1.2620   -2.0470    1.2930 o         1 AHA     -0.549000
      9 O2          0.6030   -0.3290    2.5180 oh        1 AHA     -0.611100
     10 H21         0.6640    0.7140    0.0120 hc        1 AHA      0.078200
     11 H22         2.0960   -0.3030   -0.4680 hc        1 AHA      0.078200
     12 H31         2.0780    1.6590    1.9360 hc        1 AHA      0.056200
     13 H32         2.5540    2.1320    0.2540 hc        1 AHA      0.056200
     14 H41         4.6310    1.6570    1.1700 hc        1 AHA      0.044200
     15 H42         4.2330    0.0720    0.4030 hc        1 AHA      0.044200
     16 H51         3.8560    0.8410    3.3810 hc        1 AHA      0.049700
     17 H52         3.3310   -0.7290    2.6550 hc        1 AHA      0.049700
     18 H61         6.2210    0.3990    2.5320 h1        1 AHA      0.024200
     19 H62         5.6730   -1.2230    1.9270 h1        1 AHA      0.024200
     20 HN1         5.4610   -0.4810    4.7570 hn        1 AHA      0.348800
     21 HN2         6.6780   -1.3440    4.0970 hn        1 AHA      0.348800
     22 HN3         0.3610   -1.0670    3.1020 ho        1 AHA      0.445000
@<TRIPOS>BOND
     1    1    2 1   
     2    1    8 2   
     3    1    9 1   
     4    2    3 1   
     5    2   10 1   
     6    2   11 1   
     7    3    4 1   
     8    3   12 1   
     9    3   13 1   
    10    4    5 1   
    11    4   14 1   
    12    4   15 1   
    13    5    6 1   
    14    5   16 1   
    15    5   17 1   
    16    6    7 1   
    17    6   18 1   
    18    6   19 1   
    19    7   20 1   
    20    7   21 1   
    21    9   22 1   
@<TRIPOS>SUBSTRUCTURE
     1 AHA         1 TEMP              0 ****  ****    0 ROOT
