@<TRIPOS>MOLECULE
AHA
   21    19     1     0     0
SMALL
bcc


@<TRIPOS>ATOM
      1 C1         -3.2570    0.0130   -1.7920 c1        1 AHA      0.327000
      2 C2         -1.7440    0.0130   -1.7920 c2        1 AHA     -0.223000
      3 C3         -1.2400    0.0130   -0.3660 c3        1 AHA     -0.144000
      4 C4          0.2730   -0.0180   -0.3650 c3        1 AHA     -0.154000
      5 C5          0.7780    0.0090    1.0610 c3        1 AHA     -0.196000
      6 C6          2.2900   -0.0280    1.0610 c3        1 AHA     -0.096000
      7 N           2.7660    0.0110    2.4040 n3        1 AHA     -0.339000
      8 O1         -3.8870   -1.0770   -1.8000 o         1 AHA     -0.587500
      9 O2         -3.8870    1.1030   -1.7840 o         1 AHA     -0.587500
     10 H21        -1.4190   -0.7840   -2.2520 ha        1 AHA      0.059000
     11 H22        -1.4190    0.8100   -2.2520 ha        1 AHA      0.059000
     12 H31        -1.5490    0.8200    0.0890 hc        1 AHA      0.083500
     13 H32        -1.5810   -0.7740    0.1000 hc        1 AHA      0.083500
     14 H41         0.5820   -0.8330   -0.8050 hc        1 AHA      0.067000
     15 H42         0.6140    0.7600   -0.8460 hc        1 AHA      0.067000
     16 H51         0.4330   -0.7660    1.5430 hc        1 AHA      0.075000
     17 H52         0.4720    0.8270    1.4980 hc        1 AHA      0.075000
     18 H61         2.6350    0.7430    0.5710 h1        1 AHA      0.085500
     19 H62         2.5950   -0.8490    0.6310 h1        1 AHA      0.085500
     20 HN1         3.2930    0.7470    2.5190 hn        1 AHA      0.130500
     21 HN2         3.2520   -0.7410    2.5770 hn        1 AHA      0.130500
@<TRIPOS>BOND
     1    1    8 1   
     2    1    9 1   
     3    2    3 1   
     4    2   10 1   
     5    2   11 1   
     6    3    4 1   
     7    3   12 1   
     8    3   13 1   
     9    4    5 1   
    10    4   14 1   
    11    4   15 1   
    12    5    6 1   
    13    5   16 1   
    14    5   17 1   
    15    6    7 1   
    16    6   18 1   
    17    6   19 1   
    18    7   20 1   
    19    7   21 1   
@<TRIPOS>SUBSTRUCTURE
     1 AHA         1 TEMP              0 ****  ****    0 ROOT
