@<TRIPOS>MOLECULE
AHA
   22    21     1     0     0
SMALL
bcc


@<TRIPOS>ATOM
      1 C1          1.1380   -0.8030    1.5520 c         1 AHA      0.635100
      2 C2          1.5240    0.1590    0.4760 c3        1 AHA     -0.124400
      3 C3          2.4920    1.2280    0.9430 c3        1 AHA     -0.075400
      4 C4          3.9060    0.7220    1.1420 c3        1 AHA     -0.082400
      5 C5          4.1120    0.1260    2.5180 c3        1 AHA     -0.084400
      6 C6          5.5250   -0.4430    2.6420 c3        1 AHA      0.160800
      7 N           5.8020   -1.0050    3.9420 n3        1 AHA     -0.914800
      8 O1          1.1910   -2.0360    1.5400 o         1 AHA     -0.549000
      9 O2          0.6280   -0.2280    2.6800 oh        1 AHA     -0.611100
     10 H21         0.5810    0.6480    0.1100 hc        1 AHA      0.078200
     11 H22         1.9660   -0.4300   -0.3720 hc        1 AHA      0.078200
     12 H31         2.1100    1.6830    1.8950 hc        1 AHA      0.056200
     13 H32         2.5060    2.0370    0.1640 hc        1 AHA      0.056200
     14 H41         4.6190    1.5780    1.0030 hc        1 AHA      0.044200
     15 H42         4.1540   -0.0430    0.3580 hc        1 AHA      0.044200
     16 H51         3.9430    0.9150    3.2980 hc        1 AHA      0.049700
     17 H52         3.3570   -0.6850    2.6970 hc        1 AHA      0.049700
     18 H61         6.2550    0.3750    2.3610 h1        1 AHA      0.024200
     19 H62         5.6500   -1.2690    1.8850 h1        1 AHA      0.024200
     20 HN1         5.5940   -0.3530    4.6710 hn        1 AHA      0.348800
     21 HN2         6.7620   -1.2770    4.0050 hn        1 AHA      0.348800
     22 HN3         0.4030   -0.9200    3.3230 ho        1 AHA      0.445000
@<TRIPOS>BOND
     1    1    2 1   
     2    1    8 2   
     3    1    9 1   
     4    2    3 1   
     5    2   10 1   
     6    2   11 1   
     7    3    4 1   
     8    3   12 1   
     9    3   13 1   
    10    4    5 1   
    11    4   14 1   
    12    4   15 1   
    13    5    6 1   
    14    5   16 1   
    15    5   17 1   
    16    6    7 1   
    17    6   18 1   
    18    6   19 1   
    19    7   20 1   
    20    7   21 1   
    21    9   22 1   
@<TRIPOS>SUBSTRUCTURE
     1 AHA         1 TEMP              0 ****  ****    0 ROOT
