@<TRIPOS>MOLECULE
AHA
   22    21     1     0     0
SMALL
bcc


@<TRIPOS>ATOM
      1 C1          2.1000   -1.4890    1.1950 c         1 AHA      0.649100
      2 C2          1.8290   -0.2170    0.4530 c3        1 AHA     -0.127400
      3 C3          2.3200    0.9710    1.2600 c3        1 AHA     -0.071400
      4 C4          3.8360    1.0710    1.2760 c3        1 AHA     -0.085400
      5 C5          4.3940    1.3670    2.6530 c3        1 AHA     -0.082400
      6 C6          4.9570    0.1340    3.3590 c3        1 AHA      0.160800
      7 N           4.0660   -1.0000    3.4110 n3        1 AHA     -0.931800
      8 O1          1.5130   -1.9420    2.1840 o         1 AHA     -0.568000
      9 O2          3.1270   -2.2230    0.6900 oh        1 AHA     -0.599100
     10 H21         0.7210   -0.1400    0.2940 hc        1 AHA      0.075700
     11 H22         2.3330   -0.2460   -0.5480 hc        1 AHA      0.075700
     12 H31         1.9150    0.8870    2.3040 hc        1 AHA      0.050200
     13 H32         1.8870    1.9050    0.8140 hc        1 AHA      0.050200
     14 H41         4.2830    0.1150    0.8880 hc        1 AHA      0.054200
     15 H42         4.1510    1.8840    0.5700 hc        1 AHA      0.054200
     16 H51         5.2350    2.1040    2.5610 hc        1 AHA      0.041700
     17 H52         3.6110    1.8450    3.2980 hc        1 AHA      0.041700
     18 H61         5.2920    0.4620    4.3880 h1        1 AHA      0.025200
     19 H62         5.8810   -0.2070    2.8070 h1        1 AHA      0.025200
     20 HN1         3.1120   -0.7220    3.5360 hn        1 AHA      0.356300
     21 HN2         4.3290   -1.6210    4.1490 hn        1 AHA      0.356300
     22 HN3         3.3260   -2.9600    1.2910 ho        1 AHA      0.448000
@<TRIPOS>BOND
     1    1    2 1   
     2    1    8 2   
     3    1    9 1   
     4    2    3 1   
     5    2   10 1   
     6    2   11 1   
     7    3    4 1   
     8    3   12 1   
     9    3   13 1   
    10    4    5 1   
    11    4   14 1   
    12    4   15 1   
    13    5    6 1   
    14    5   16 1   
    15    5   17 1   
    16    6    7 1   
    17    6   18 1   
    18    6   19 1   
    19    7   20 1   
    20    7   21 1   
    21    9   22 1   
@<TRIPOS>SUBSTRUCTURE
     1 AHA         1 TEMP              0 ****  ****    0 ROOT
