@<TRIPOS>MOLECULE
AHA
   21    20     1     0     0
SMALL
bcc


@<TRIPOS>ATOM
      1 C1         -0.1020    0.1580   -2.7670 c         1 AHA      0.907600
      2 C2          0.7140   -0.0560   -1.4790 c3        1 AHA     -0.194400
      3 C3         -0.1690    0.0030   -0.2570 c3        1 AHA     -0.065400
      4 C4          0.6360   -0.0160    1.0260 c3        1 AHA     -0.075400
      5 C5         -0.2620    0.0360    2.2410 c3        1 AHA     -0.117400
      6 C6          0.5580    0.0210    3.5300 c3        1 AHA      0.140800
      7 N          -0.1870    0.0730    4.7660 n3        1 AHA     -0.906800
      8 O1         -0.9520    1.0950   -2.7950 o         1 AHA     -0.852800
      9 O2          0.1330   -0.6090   -3.7450 o         1 AHA     -0.852800
     10 H21         1.4910    0.7490   -1.4290 hc        1 AHA      0.019700
     11 H22         1.2410   -1.0400   -1.5330 hc        1 AHA      0.019700
     12 H31        -0.8780   -0.8660   -0.2660 hc        1 AHA      0.044200
     13 H32        -0.7910    0.9370   -0.3090 hc        1 AHA      0.044200
     14 H41         1.3390    0.8590    1.0410 hc        1 AHA      0.027700
     15 H42         1.2650   -0.9440    1.0630 hc        1 AHA      0.027700
     16 H51        -0.9630   -0.8390    2.2250 hc        1 AHA      0.035700
     17 H52        -0.8910    0.9650    2.1990 hc        1 AHA      0.035700
     18 H61         1.2640    0.8990    3.5200 h1        1 AHA      0.046200
     19 H62         1.1850   -0.9150    3.5490 h1        1 AHA      0.046200
     20 HN1        -0.7350    0.9120    4.8060 hn        1 AHA      0.335300
     21 HN2        -0.8150   -0.7070    4.8260 hn        1 AHA      0.335300
@<TRIPOS>BOND
     1    1    2 1   
     2    1    8 1   
     3    1    9 1   
     4    2    3 1   
     5    2   10 1   
     6    2   11 1   
     7    3    4 1   
     8    3   12 1   
     9    3   13 1   
    10    4    5 1   
    11    4   14 1   
    12    4   15 1   
    13    5    6 1   
    14    5   16 1   
    15    5   17 1   
    16    6    7 1   
    17    6   18 1   
    18    6   19 1   
    19    7   20 1   
    20    7   21 1   
@<TRIPOS>SUBSTRUCTURE
     1 AHA         1 TEMP              0 ****  ****    0 ROOT
