@<TRIPOS>MOLECULE
AHB
   17    16     1     0     0
SMALL
bcc


@<TRIPOS>ATOM
      1 N           0.2020    0.5310    1.8150 n3        1 AHB     -0.896800
      2 CA          0.3740   -0.3040    0.6460 c3        1 AHB     -0.006500
      3 CB         -0.6000    0.0160   -0.5160 c3        1 AHB      0.069100
      4 OB         -0.5600    1.3760   -0.9020 oh        1 AHB     -0.618800
      5 CG         -2.0280   -0.2850   -0.0590 c         1 AHB      0.649100
      6 OD1        -2.7890    0.5630    0.4460 o         1 AHB     -0.619100
      7 ND2        -2.4730   -1.5870   -0.2220 n         1 AHB     -0.673000
      8 C           1.8140   -0.2100    0.0310 c         1 AHB      0.914600
      9 O           2.2360    0.9540   -0.2310 o         1 AHB     -0.827800
     10 OXT         2.4220   -1.2840   -0.1960 o         1 AHB     -0.827800
     11 H           0.8840    1.2690    1.7950 hn        1 AHB      0.346800
     12 H2         -0.7110    0.9520    1.8060 hn        1 AHB      0.346800
     13 HA          0.1950   -1.3710    0.9630 h1        1 AHB      0.050700
     14 HB         -0.3260   -0.6160   -1.4080 h1        1 AHB      0.056700
     15 HOB         0.3710    1.6570   -0.8210 ho        1 AHB      0.454000
     16 HD21       -1.8060   -2.2970   -0.3940 hn        1 AHB      0.291000
     17 HD22       -3.3110   -1.8550    0.2320 hn        1 AHB      0.291000
@<TRIPOS>BOND
     1    1    2 1   
     2    1   11 1   
     3    1   12 1   
     4    2    3 1   
     5    2    8 1   
     6    2   13 1   
     7    3    4 1   
     8    3    5 1   
     9    3   14 1   
    10    4   15 1   
    11    5    6 2   
    12    5    7 1   
    13    7   16 1   
    14    7   17 1   
    15    8    9 1   
    16    8   10 1   
@<TRIPOS>SUBSTRUCTURE
     1 AHB         1 TEMP              0 ****  ****    0 ROOT
