@<TRIPOS>MOLECULE
AHC
   22    22     1     0     0
SMALL
bcc


@<TRIPOS>ATOM
      1 CA          0.0150   -0.1030   -0.0330 c3        1 AHC     -0.191400
      2 C           1.5400   -0.3110    0.0060 c         1 AHC      0.907600
      3 OT1         2.0350   -0.9600    0.9740 o         1 AHC     -0.849800
      4 OT2         2.2210    0.1640   -0.9470 o         1 AHC     -0.849800
      5 CB         -0.5210    0.2500    1.3370 c3        1 AHC     -0.036100
      6 CG         -2.0050    0.1690    1.4110 ca        1 AHC     -0.067300
      7 CD1        -2.6480   -1.0760    1.3770 ca        1 AHC     -0.109000
      8 CD2        -2.7900    1.3210    1.5170 ca        1 AHC     -0.109000
      9 CE1        -4.0320   -1.1710    1.4390 ca        1 AHC     -0.180500
     10 CE2        -4.1780    1.2440    1.5800 ca        1 AHC     -0.180500
     11 CZ         -4.8260   -0.0080    1.5460 ca        1 AHC      0.078600
     12 NH         -6.2280   -0.1010    1.6890 nh        1 AHC     -0.800200
     13 HA1        -0.2320    0.7010   -0.7700 hc        1 AHC      0.023700
     14 HA2        -0.4500   -1.0560   -0.3920 hc        1 AHC      0.023700
     15 HB1        -0.0640   -0.4600    2.0820 hc        1 AHC      0.057700
     16 HB2        -0.1790    1.2830    1.6120 hc        1 AHC      0.057700
     17 HD1        -2.0370   -1.9880    1.2900 ha        1 AHC      0.135000
     18 HD2        -2.3020    2.3080    1.5430 ha        1 AHC      0.135000
     19 HE1        -4.5070   -2.1630    1.4110 ha        1 AHC      0.116000
     20 HE2        -4.7660    2.1690    1.6620 ha        1 AHC      0.116000
     21 HNH1       -6.5950   -0.9270    1.2640 hn        1 AHC      0.361300
     22 HNH2       -6.6940    0.7130    1.3460 hn        1 AHC      0.361300
@<TRIPOS>BOND
     1    1    2 1   
     2    1    5 1   
     3    1   13 1   
     4    1   14 1   
     5    2    3 1   
     6    2    4 1   
     7    5    6 1   
     8    5   15 1   
     9    5   16 1   
    10    6    7 ar  
    11    6    8 ar  
    12    7    9 ar  
    13    7   17 1   
    14    8   10 ar  
    15    8   18 1   
    16    9   11 ar  
    17    9   19 1   
    18   10   11 ar  
    19   10   20 1   
    20   11   12 1   
    21   12   21 1   
    22   12   22 1   
@<TRIPOS>SUBSTRUCTURE
     1 AHC         1 TEMP              0 ****  ****    0 ROOT
