@<TRIPOS>MOLECULE
AHC
   23    23     1     0     0
SMALL
bcc


@<TRIPOS>ATOM
      1 CA          0.1950   -0.4470   -0.1580 c3        1 AHC     -0.200400
      2 C          -0.2810    0.9840    0.1600 c         1 AHC      0.898600
      3 OT1        -1.0620    1.1450    1.1390 o         1 AHC     -0.841800
      4 OT2         0.0910    1.9200   -0.6080 o         1 AHC     -0.841800
      5 CB         -0.3390   -0.9100   -1.5060 c3        1 AHC     -0.037100
      6 CG         -1.7840   -0.5700   -1.6160 ca        1 AHC      0.030700
      7 CD1        -2.7800   -1.5030   -1.2970 ca        1 AHC     -0.096500
      8 CD2        -2.1490    0.7500   -1.9400 ca        1 AHC     -0.096500
      9 CE1        -4.1100   -1.1120   -1.1880 ca        1 AHC     -0.100500
     10 CE2        -3.4690    1.1620   -1.8380 ca        1 AHC     -0.100500
     11 CZ         -4.4410    0.2330   -1.4220 ca        1 AHC     -0.119400
     12 NH         -5.7940    0.7070   -1.1380 n4        1 AHC     -0.689000
     13 HA1        -0.1500   -1.1390    0.6500 hc        1 AHC      0.044700
     14 HA2         1.3120   -0.4580   -0.1870 hc        1 AHC      0.044700
     15 HB1        -0.1850   -2.0140   -1.6270 hc        1 AHC      0.050700
     16 HB2         0.2310   -0.3830   -2.3180 hc        1 AHC      0.050700
     17 HD1        -2.5030   -2.5470   -1.0810 ha        1 AHC      0.190500
     18 HD2        -1.3480    1.4900   -2.1670 ha        1 AHC      0.190500
     19 HE1        -4.8730   -1.8480   -0.8940 ha        1 AHC      0.137000
     20 HE2        -3.7240    2.2150   -2.0340 ha        1 AHC      0.137000
     21 HNH1       -6.0640    1.4180   -1.8230 hn        1 AHC      0.449133
     22 HNH2       -6.4560   -0.0710   -1.1690 hn        1 AHC      0.449133
     23 HH3        -5.8020    1.1250   -0.2000 hn        1 AHC      0.449133
@<TRIPOS>BOND
     1    1    2 1   
     2    1    5 1   
     3    1   13 1   
     4    1   14 1   
     5    2    3 1   
     6    2    4 1   
     7    5    6 1   
     8    5   15 1   
     9    5   16 1   
    10    6    7 ar  
    11    6    8 ar  
    12    7    9 ar  
    13    7   17 1   
    14    8   10 ar  
    15    8   18 1   
    16    9   11 ar  
    17    9   19 1   
    18   10   11 ar  
    19   10   20 1   
    20   11   12 1   
    21   12   21 1   
    22   12   22 1   
    23   12   23 1   
@<TRIPOS>SUBSTRUCTURE
     1 AHC         1 TEMP              0 ****  ****    0 ROOT
