@<TRIPOS>MOLECULE
AHC
   22    20     1     0     0
SMALL
bcc


@<TRIPOS>ATOM
      1 CA          2.2580    0.0970   -1.0360 c3        1 AHC     -0.220000
      2 C           3.7700    0.0340   -1.0130 c2        1 AHC      0.327000
      3 OT1         4.3520   -1.0670   -0.8250 o         1 AHC     -0.584500
      4 OT2         4.4460    1.0860   -1.1610 o         1 AHC     -0.584500
      5 CB          1.7290   -0.0020    0.3780 c3        1 AHC     -0.121000
      6 CG          0.2160   -0.0100    0.3500 c2        1 AHC     -0.060000
      7 CD1        -0.4680   -1.2050    0.1990 c1        1 AHC     -0.104000
      8 CD2        -0.4850    1.1740    0.5180 c2        1 AHC     -0.114000
      9 CE1        -1.8540   -1.2180    0.2160 c1        1 AHC     -0.180000
     10 CE2        -1.8710    1.1610    0.5350 c1        1 AHC     -0.181000
     11 CZ         -2.5550   -0.0340    0.3840 c1        1 AHC     -0.003000
     12 NH         -3.9730   -0.0500    0.4230 n3        1 AHC     -0.309000
     13 HA1         1.9090   -0.6450   -1.5680 hc        1 AHC      0.063000
     14 HA2         1.9730    0.9450   -1.4310 hc        1 AHC      0.063000
     15 HB1         2.0510   -0.8290    0.7890 hc        1 AHC      0.096500
     16 HB2         2.0410    0.7650    0.8980 hc        1 AHC      0.096500
     17 HD1         0.0260   -2.0400    0.0900 ha        1 AHC      0.142000
     18 HD2        -0.0040    2.0160    0.6240 ha        1 AHC      0.128000
     19 HE1        -2.3360   -2.0600    0.1100 ha        1 AHC      0.117000
     20 HE2        -2.3650    1.9950    0.6530 ha        1 AHC      0.115000
     21 HNH1       -4.4100   -0.6710    0.9340 hn        1 AHC      0.156500
     22 HNH2       -4.4510    0.5580   -0.0650 hn        1 AHC      0.156500
@<TRIPOS>BOND
     1    1    2 1   
     2    1    5 1   
     3    1   13 1   
     4    1   14 1   
     5    2    3 1   
     6    2    4 1   
     7    5    6 1   
     8    5   15 1   
     9    5   16 1   
    10    6    7 1   
    11    6    8 1   
    12    7   17 1   
    13    8   10 1   
    14    8   18 1   
    15    9   11 1   
    16    9   19 1   
    17   10   20 1   
    18   11   12 1   
    19   12   21 1   
    20   12   22 1   
@<TRIPOS>SUBSTRUCTURE
     1 AHC         1 TEMP              0 ****  ****    0 ROOT
