@<TRIPOS>MOLECULE
AHC
   22    22     1     0     0
SMALL
bcc


@<TRIPOS>ATOM
      1 CA          0.0760    0.5300   -1.8570 c3        1 AHC     -0.191400
      2 C           0.2820    0.1460   -3.3340 c         1 AHC      0.907600
      3 OT1         0.9520   -0.8940   -3.5990 o         1 AHC     -0.849800
      4 OT2        -0.2160    0.9080   -4.2120 o         1 AHC     -0.849800
      5 CB         -0.2480   -0.6890   -1.0200 c3        1 AHC     -0.035100
      6 CG         -0.1620   -0.4200    0.4410 ca        1 AHC     -0.067300
      7 CD1        -1.3110   -0.3620    1.2360 ca        1 AHC     -0.109000
      8 CD2         1.0830   -0.2190    1.0510 ca        1 AHC     -0.109000
      9 CE1        -1.2300   -0.1050    2.6010 ca        1 AHC     -0.180500
     10 CE2         1.1830    0.0380    2.4130 ca        1 AHC     -0.180500
     11 CZ          0.0230    0.0960    3.2170 ca        1 AHC      0.078600
     12 NH          0.1210    0.2790    4.6140 nh        1 AHC     -0.800200
     13 HA1        -0.7420    1.2870   -1.7800 hc        1 AHC      0.023700
     14 HA2         1.0230    1.0030   -1.4920 hc        1 AHC      0.023700
     15 HB1         0.4760   -1.5050   -1.3000 hc        1 AHC      0.057200
     16 HB2        -1.2750   -1.0540   -1.2840 hc        1 AHC      0.057200
     17 HD1        -2.2980   -0.5160    0.7730 ha        1 AHC      0.135000
     18 HD2         1.9930   -0.2600    0.4310 ha        1 AHC      0.135000
     19 HE1        -2.1520   -0.0660    3.1990 ha        1 AHC      0.116000
     20 HE2         2.1750    0.1910    2.8630 ha        1 AHC      0.116000
     21 HNH1        0.9410    0.7900    4.8690 hn        1 AHC      0.361300
     22 HNH2       -0.6970    0.7070    4.9950 hn        1 AHC      0.361300
@<TRIPOS>BOND
     1    1    2 1   
     2    1    5 1   
     3    1   13 1   
     4    1   14 1   
     5    2    3 1   
     6    2    4 1   
     7    5    6 1   
     8    5   15 1   
     9    5   16 1   
    10    6    7 ar  
    11    6    8 ar  
    12    7    9 ar  
    13    7   17 1   
    14    8   10 ar  
    15    8   18 1   
    16    9   11 ar  
    17    9   19 1   
    18   10   11 ar  
    19   10   20 1   
    20   11   12 1   
    21   12   21 1   
    22   12   22 1   
@<TRIPOS>SUBSTRUCTURE
     1 AHC         1 TEMP              0 ****  ****    0 ROOT
