@<TRIPOS>MOLECULE
AHC
   22    22     1     0     0
SMALL
bcc


@<TRIPOS>ATOM
      1 CA          0.0210   -0.0290   -0.0180 c3        1 AHC     -0.191400
      2 C           1.5560    0.0980   -0.0170 c         1 AHC      0.908600
      3 OT1         2.0920    0.9240    0.7770 o         1 AHC     -0.850300
      4 OT2         2.2030   -0.6240   -0.8290 o         1 AHC     -0.850300
      5 CB         -0.5190   -0.0510    1.3950 c3        1 AHC     -0.033100
      6 CG         -2.0060   -0.0360    1.4400 ca        1 AHC     -0.069300
      7 CD1        -2.7420   -1.1560    1.0340 ca        1 AHC     -0.108000
      8 CD2        -2.7020    1.0930    1.8860 ca        1 AHC     -0.108000
      9 CE1        -4.1310   -1.1540    1.0650 ca        1 AHC     -0.181000
     10 CE2        -4.0920    1.1130    1.9240 ca        1 AHC     -0.181000
     11 CZ         -4.8350   -0.0160    1.5170 ca        1 AHC      0.079600
     12 NH         -6.2420   -0.0340    1.6280 nv        1 AHC     -0.800200
     13 HA1        -0.2770   -0.9590   -0.5630 hc        1 AHC      0.023700
     14 HA2        -0.3950    0.8470   -0.5750 hc        1 AHC      0.023700
     15 HB1        -0.1460   -0.9750    1.9150 hc        1 AHC      0.056200
     16 HB2        -0.0950    0.8320    1.9470 hc        1 AHC      0.056200
     17 HD1        -2.2040   -2.0460    0.6730 ha        1 AHC      0.135500
     18 HD2        -2.1380    1.9830    2.2040 ha        1 AHC      0.135500
     19 HE1        -4.6810   -2.0490    0.7390 ha        1 AHC      0.116000
     20 HE2        -4.6100    2.0160    2.2790 ha        1 AHC      0.116000
     21 HNH1       -6.6630   -0.6580    0.9700 hn        1 AHC      0.361800
     22 HNH2       -6.6360    0.8810    1.5520 hn        1 AHC      0.361800
@<TRIPOS>BOND
     1    1    2 1   
     2    1    5 1   
     3    1   13 1   
     4    1   14 1   
     5    2    3 1   
     6    2    4 1   
     7    5    6 1   
     8    5   15 1   
     9    5   16 1   
    10    6    7 ar  
    11    6    8 ar  
    12    7    9 ar  
    13    7   17 1   
    14    8   10 ar  
    15    8   18 1   
    16    9   11 ar  
    17    9   19 1   
    18   10   11 ar  
    19   10   20 1   
    20   11   12 1   
    21   12   21 1   
    22   12   22 1   
@<TRIPOS>SUBSTRUCTURE
     1 AHC         1 TEMP              0 ****  ****    0 ROOT
