@<TRIPOS>MOLECULE
AHD
   23    22     1     0     0
SMALL
bcc


@<TRIPOS>ATOM
      1 C2          0.8350   -0.0000   -0.9650 c3        1 AHD     -0.097400
      2 C3          2.3480   -0.0000   -0.9650 c3        1 AHD      0.125800
      3 C7          0.3310   -0.0000    0.4620 c3        1 AHD      0.016600
      4 C8         -1.1820   -0.0000    0.4620 c3        1 AHD     -0.207600
      5 O12        -1.4020   -2.7120    0.5310 o         1 AHD     -0.988833
      6 P9         -1.7870   -1.4820    1.3190 p5        1 AHD      1.251700
      7 O10        -3.2900   -1.4140    1.4430 o         1 AHD     -0.988833
      8 O11        -1.1710   -1.5540    2.6960 o         1 AHD     -0.988833
      9 P14        -1.7870    1.4830    1.3160 p5        1 AHD      1.251700
     10 O15        -1.1720    1.5560    2.6930 o         1 AHD     -0.988833
     11 O16        -3.2910    1.4140    1.4400 o         1 AHD     -0.988833
     12 O17        -1.4030    2.7110    0.5270 o         1 AHD     -0.988833
     13 O13        -1.6510   -0.0020   -0.8650 oh        1 AHD     -0.668800
     14 N4          2.8230    0.0010   -2.3090 n3        1 AHD     -0.934800
     15 H21         0.5100    0.7970   -1.4250 hc        1 AHD      0.058700
     16 H22         0.5100   -0.7970   -1.4250 hc        1 AHD      0.058700
     17 H31         2.6730   -0.7980   -0.5050 h1        1 AHD      0.024700
     18 H32         2.6730    0.7960   -0.5040 h1        1 AHD      0.024700
     19 H71         0.6560    0.7970    0.9220 hc        1 AHD      0.005700
     20 H72         0.6560   -0.7970    0.9220 hc        1 AHD      0.005700
     21 H13        -2.5390   -0.0020   -0.8650 ho        1 AHD      0.410000
     22 HN41        3.3300   -0.7440   -2.4530 hn        1 AHD      0.304800
     23 HN42        3.3300    0.7460   -2.4520 hn        1 AHD      0.304800
@<TRIPOS>BOND
     1    1    2 1   
     2    1    3 1   
     3    1   15 1   
     4    1   16 1   
     5    2   14 1   
     6    2   17 1   
     7    2   18 1   
     8    3    4 1   
     9    3   19 1   
    10    3   20 1   
    11    4    6 1   
    12    4    9 1   
    13    4   13 1   
    14    5    6 1   
    15    6    7 1   
    16    6    8 1   
    17    9   10 1   
    18    9   11 1   
    19    9   12 1   
    20   13   21 1   
    21   14   22 1   
    22   14   23 1   
@<TRIPOS>SUBSTRUCTURE
     1 AHD         1 TEMP              0 ****  ****    0 ROOT
