@<TRIPOS>MOLECULE
AHD
   23    22     1     0     0
SMALL
bcc


@<TRIPOS>ATOM
      1 C2          2.0210   -1.4550   -0.3530 c3        1 AHD     -0.086400
      2 C3          3.4110   -1.3920    0.2800 c3        1 AHD      0.177800
      3 C7          0.9310   -0.8620    0.5340 c3        1 AHD     -0.067400
      4 C8         -0.1120   -0.0050   -0.1580 c3        1 AHD     -0.167600
      5 O12        -1.3300   -1.9800   -1.3960 o         1 AHD     -0.983167
      6 P9         -1.6110   -1.0790   -0.1830 p5        1 AHD      1.254700
      7 O10        -2.9080   -0.3170   -0.3910 o         1 AHD     -0.983167
      8 O11        -1.6830   -1.9360    1.0790 o         1 AHD     -0.983167
      9 P14         0.4240    1.7380    0.4430 p5        1 AHD      1.254700
     10 O15         0.1240    1.8390    1.9290 o         1 AHD     -0.983167
     11 O16        -0.2170    2.8640   -0.3430 o         1 AHD     -0.983167
     12 O17         1.9480    1.7610    0.2510 o         1 AHD     -0.983167
     13 O13         0.1660    0.2080   -1.5280 oh        1 AHD     -0.635800
     14 N4          4.0670   -0.0990    0.2910 n3        1 AHD     -0.966800
     15 H21         2.0370   -0.9050   -1.3310 hc        1 AHD      0.018200
     16 H22         1.7880   -2.5290   -0.5760 hc        1 AHD      0.018200
     17 H31         4.0970   -2.1150   -0.2640 h1        1 AHD     -0.043300
     18 H32         3.3490   -1.7570    1.3450 h1        1 AHD     -0.043300
     19 H71         0.4210   -1.7190    1.0620 hc        1 AHD      0.030700
     20 H72         1.4250   -0.2520    1.3440 hc        1 AHD      0.030700
     21 H13        -0.1120   -0.5880   -2.0160 ho        1 AHD      0.362000
     22 HN41        4.0220    0.2770   -0.6420 hn        1 AHD      0.380300
     23 HN42        3.4830    0.5480    0.8290 hn        1 AHD      0.380300
@<TRIPOS>BOND
     1    1    2 1   
     2    1    3 1   
     3    1   15 1   
     4    1   16 1   
     5    2   14 1   
     6    2   17 1   
     7    2   18 1   
     8    3    4 1   
     9    3   19 1   
    10    3   20 1   
    11    4    6 1   
    12    4    9 1   
    13    4   13 1   
    14    5    6 1   
    15    6    7 1   
    16    6    8 1   
    17    9   10 1   
    18    9   11 1   
    19    9   12 1   
    20   13   21 1   
    21   14   22 1   
    22   14   23 1   
@<TRIPOS>SUBSTRUCTURE
     1 AHD         1 TEMP              0 ****  ****    0 ROOT
