@<TRIPOS>MOLECULE
AHE
   42    41     1     0     0
SMALL
bcc


@<TRIPOS>ATOM
      1 N1          1.3960   -0.3280   -0.6750 nz        1 AHE     -0.830600
      2 CA1         1.3680    0.6760    0.4340 c3        1 AHE     -0.055500
      3 CB1         0.3660    0.3000    1.5250 c3        1 AHE     -0.083400
      4 CG1         0.4020    1.2980    2.6720 c3        1 AHE     -0.136400
      5 CD1         1.2060    0.7640    3.8320 c         1 AHE      0.573100
      6 OE1         1.0570   -0.3320    4.3590 o         1 AHE     -0.450100
      7 N2          2.2800    1.6560    4.3710 ny        1 AHE     -0.665800
      8 CA2         2.5340    1.5040    5.8360 c3        1 AHE      0.047500
      9 CB2         3.9430    1.9690    6.2290 c3        1 AHE     -0.066300
     10 SG2         5.1650    1.6380    5.0060 ss        1 AHE     -0.292200
     11 CD2         5.3360    3.2230    4.1650 c3        1 AHE      0.212500
     12 OE2         4.1660    3.5810    3.4820 oh        1 AHE     -0.621800
     13 C2          1.5020    2.3170    6.6560 c         1 AHE      0.645100
     14 O2          0.6340    2.9980    6.0770 o         1 AHE     -0.587100
     15 N3          1.5680    2.1900    8.0310 ns        1 AHE     -0.496900
     16 CA3         1.0080    3.2200    8.8670 c3        1 AHE     -0.026000
     17 C3          1.9600    4.3830    9.1060 c         1 AHE      0.598100
     18 O31         3.0860    4.5060    8.6210 o         1 AHE     -0.501000
     19 O32         1.5730    5.3990    9.9190 oh        1 AHE     -0.543100
     20 C1          2.8260    0.8050    1.0480 c         1 AHE      0.931600
     21 O11         3.0090    1.8170    1.7730 o         1 AHE     -0.783300
     22 O12         3.6350   -0.1060    0.7750 o         1 AHE     -0.783300
     23 HN11        1.5220    0.1470   -1.5700 hn        1 AHE      0.460133
     24 HN12        2.2230   -0.9420   -0.5100 hn        1 AHE      0.460133
     25 HA1         1.0930    1.6770   -0.0060 hx        1 AHE      0.110700
     26 HB11       -0.6740    0.3000    1.0970 hc        1 AHE      0.075700
     27 HB12        0.5720   -0.7360    1.9100 hc        1 AHE      0.075700
     28 HG11        0.7980    2.2880    2.3100 hc        1 AHE      0.119200
     29 HG12       -0.6410    1.4630    3.0670 hc        1 AHE      0.119200
     30 HN2         2.0510    2.6420    4.1570 hn        1 AHE      0.506300
     31 HA2         2.4190    0.4030    6.0820 hx        1 AHE      0.141700
     32 HB21        3.9340    3.0590    6.4980 h1        1 AHE      0.119700
     33 HB22        4.2500    1.3970    7.1440 h1        1 AHE      0.119700
     34 HD21        5.5270    4.0340    4.9140 h2        1 AHE      0.100700
     35 HD22        6.2190    3.0860    3.4930 h2        1 AHE      0.100700
     36 HE2         4.2490    3.3110    2.5520 ho        1 AHE      0.460000
     37 HN3         0.6780    5.2410   10.2550 ho        1 AHE      0.437000
     38 HA31        0.7450    2.7570    9.8620 h1        1 AHE      0.110200
     39 HA32        0.0660    3.6210    8.3890 h1        1 AHE      0.110200
     40 H13         0.5470   -0.8900   -0.6990 hn        1 AHE      0.460133
     41 H22         3.1810    1.4470    3.8440 hn        1 AHE      0.506300
     42 H32         2.3760    1.7380    8.4050 hn        1 AHE      0.322500
@<TRIPOS>BOND
     1    1    2 1   
     2    1   23 1   
     3    1   24 1   
     4    1   40 1   
     5    2    3 1   
     6    2   20 1   
     7    2   25 1   
     8    3    4 1   
     9    3   26 1   
    10    3   27 1   
    11    4    5 1   
    12    4   28 1   
    13    4   29 1   
    14    5    6 2   
    15    5    7 1   
    16    7    8 1   
    17    7   30 1   
    18    7   41 1   
    19    8    9 1   
    20    8   13 1   
    21    8   31 1   
    22    9   10 1   
    23    9   32 1   
    24    9   33 1   
    25   10   11 1   
    26   11   12 1   
    27   11   34 1   
    28   11   35 1   
    29   12   36 1   
    30   13   14 2   
    31   13   15 1   
    32   15   16 1   
    33   15   42 1   
    34   16   17 1   
    35   16   38 1   
    36   16   39 1   
    37   17   18 2   
    38   17   19 1   
    39   19   37 1   
    40   20   21 1   
    41   20   22 1   
@<TRIPOS>SUBSTRUCTURE
     1 AHE         1 TEMP              0 ****  ****    0 ROOT
