@<TRIPOS>MOLECULE
AHE
   42    41     1     0     0
SMALL
bcc


@<TRIPOS>ATOM
      1 N1          1.4280   -0.4350   -0.6310 n4        1 AHE     -0.830600
      2 CA1         1.3590    0.5780    0.4680 c3        1 AHE     -0.055500
      3 CB1         0.4100    0.1500    1.5870 c3        1 AHE     -0.083400
      4 CG1         0.4060    1.1620    2.7220 c3        1 AHE     -0.136400
      5 CD1         1.2700    0.6960    3.8670 c         1 AHE      0.573100
      6 OE1         1.2060   -0.4010    4.4090 o         1 AHE     -0.450100
      7 N2          2.2950    1.6640    4.3710 n4        1 AHE     -0.665800
      8 CA2         2.5930    1.5470    5.8310 c3        1 AHE      0.047500
      9 CB2         3.9770    2.1070    6.1850 c3        1 AHE     -0.066300
     10 SG2         5.1890    1.8440    4.9360 ss        1 AHE     -0.292200
     11 CD2         5.2340    3.4270    4.0750 c3        1 AHE      0.212500
     12 OE2         4.0280    3.6990    3.4170 oh        1 AHE     -0.621800
     13 C2          1.5280    2.2990    6.6670 c         1 AHE      0.645100
     14 O2          0.6040    2.9140    6.1030 o         1 AHE     -0.587100
     15 N3          1.6350    2.1940    8.0410 n         1 AHE     -0.496900
     16 CA3         1.0300    3.1960    8.8790 c3        1 AHE     -0.026000
     17 C3          1.9070    4.4220    9.0810 c         1 AHE      0.598100
     18 O31         3.0100    4.6120    8.5660 o         1 AHE     -0.501000
     19 O32         1.4750    5.4200    9.8920 oh        1 AHE     -0.543100
     20 C1          2.8190    0.8100    1.0460 c         1 AHE      0.931600
     21 O11         2.9520    1.8410    1.7540 o         1 AHE     -0.783300
     22 O12         3.6800   -0.0490    0.7630 o         1 AHE     -0.783300
     23 HN11        2.2970   -0.9910   -0.4800 hn        1 AHE      0.460133
     24 HN12        1.5020    0.0370   -1.5330 hn        1 AHE      0.460133
     25 HA1         1.0080    1.5530    0.0240 hx        1 AHE      0.110700
     26 HB11        0.6930   -0.8650    1.9770 hc        1 AHE      0.075700
     27 HB12       -0.6370    0.0760    1.1830 hc        1 AHE      0.075700
     28 HG11        0.7270    2.1710    2.3390 hc        1 AHE      0.119200
     29 HG12       -0.6360    1.2620    3.1400 hc        1 AHE      0.119200
     30 HN2         1.9970    2.6290    4.1520 hn        1 AHE      0.506800
     31 HA2         2.5570    0.4420    6.0910 hx        1 AHE      0.141700
     32 HB21        4.3430    1.5680    7.0980 h1        1 AHE      0.119700
     33 HB22        3.9020    3.1970    6.4430 h1        1 AHE      0.119700
     34 HD21        6.1090    3.3410    3.3840 h2        1 AHE      0.100700
     35 HD22        5.3880    4.2570    4.8110 h2        1 AHE      0.100700
     36 HE2         4.1070    3.4240    2.4880 ho        1 AHE      0.460000
     37 HN3         2.4810    1.8010    8.4010 hn        1 AHE      0.322500
     38 HA31        0.0520    3.5270    8.4200 h1        1 AHE      0.110200
     39 HA32        0.8220    2.7290    9.8860 h1        1 AHE      0.110200
     40 H13         0.6180   -1.0520   -0.6290 hn        1 AHE      0.460133
     41 H22         3.1950    1.5080    3.8240 hn        1 AHE      0.506800
     42 H32         0.6000    5.2080   10.2520 ho        1 AHE      0.437000
@<TRIPOS>BOND
     1    1    2 1   
     2    1   23 1   
     3    1   24 1   
     4    1   40 1   
     5    2    3 1   
     6    2   20 1   
     7    2   25 1   
     8    3    4 1   
     9    3   26 1   
    10    3   27 1   
    11    4    5 1   
    12    4   28 1   
    13    4   29 1   
    14    5    6 2   
    15    5    7 1   
    16    7    8 1   
    17    7   30 1   
    18    7   41 1   
    19    8    9 1   
    20    8   13 1   
    21    8   31 1   
    22    9   10 1   
    23    9   32 1   
    24    9   33 1   
    25   10   11 1   
    26   11   12 1   
    27   11   34 1   
    28   11   35 1   
    29   12   36 1   
    30   13   14 2   
    31   13   15 1   
    32   15   16 1   
    33   15   37 1   
    34   16   17 1   
    35   16   38 1   
    36   16   39 1   
    37   17   18 2   
    38   17   19 1   
    39   19   42 1   
    40   20   21 1   
    41   20   22 1   
@<TRIPOS>SUBSTRUCTURE
     1 AHE         1 TEMP              0 ****  ****    0 ROOT
