@<TRIPOS>MOLECULE
AHE
   39    38     1     0     0
SMALL
bcc


@<TRIPOS>ATOM
      1 N1         -3.3280   -0.4030   -4.6900 n3        1 AHE     -0.889800
      2 CA1        -2.3010   -1.2580   -4.2010 c3        1 AHE      0.019500
      3 CB1        -2.1770   -1.0920   -2.7040 c3        1 AHE     -0.043400
      4 CG1        -0.7260   -0.8730   -2.3390 c3        1 AHE     -0.160400
      5 CD1        -0.6420   -0.2150   -0.9790 c         1 AHE      0.670100
      6 OE1        -1.4950    0.5780   -0.6340 o         1 AHE     -0.679100
      7 N2          0.4480   -0.5040   -0.1180 n         1 AHE     -0.561900
      8 CA2         0.6020    0.2140    1.0980 c3        1 AHE      0.038700
      9 CB2         0.2700   -0.6920    2.2630 c3        1 AHE     -0.019300
     10 SG2         0.2030    0.2640    3.7550 ss        1 AHE     -0.387200
     11 CD2        -0.2600   -0.7840    5.1080 c3        1 AHE      0.235500
     12 OE2        -0.1230   -0.0750    6.3200 oh        1 AHE     -0.598800
     13 C2          2.0300    0.6940    1.2230 c         1 AHE      0.637100
     14 O2          2.9440   -0.1060    1.2000 o         1 AHE     -0.670100
     15 N3          2.3040    2.0800    1.3470 n         1 AHE     -0.510900
     16 CA3         3.6500    2.5390    1.3790 c3        1 AHE     -0.042000
     17 C3          3.6660    4.0500    1.4530 c         1 AHE      0.910600
     18 O31         3.6750    4.7320    0.3950 o         1 AHE     -0.840300
     19 O32         3.6770    4.6260    2.5730 o         1 AHE     -0.840300
     20 C1         -2.6440   -2.6940   -4.5230 c         1 AHE      0.887600
     21 O11        -3.7390   -3.1810   -4.1350 o         1 AHE     -0.847300
     22 O12        -1.8380   -3.4020   -5.1820 o         1 AHE     -0.847300
     23 HN11       -2.9510    0.3250   -5.0980 hn        1 AHE      0.329300
     24 HN12       -3.8430   -0.8600   -5.2940 hn        1 AHE      0.329300
     25 HA1        -1.4520   -1.0230   -4.6260 h1        1 AHE      0.040700
     26 HB11       -2.7060   -0.3210   -2.4170 hc        1 AHE      0.038700
     27 HB12       -2.5070   -1.8980   -2.2580 hc        1 AHE      0.038700
     28 HG11       -0.3050   -0.2950   -3.0070 hc        1 AHE      0.094700
     29 HG12       -0.2620   -1.7330   -2.3140 hc        1 AHE      0.094700
     30 HN2         1.0630   -1.1340   -0.3560 hn        1 AHE      0.328500
     31 HA2        -0.0020    0.9830    1.1010 h1        1 AHE      0.078700
     32 HB21       -0.5970   -1.1170    2.1090 h1        1 AHE      0.085200
     33 HB22        0.9600   -1.3800    2.3470 h1        1 AHE      0.085200
     34 HD21       -1.1910   -1.0660    4.9990 h2        1 AHE      0.072700
     35 HD22        0.3210   -1.5730    5.1240 h2        1 AHE      0.072700
     36 HE2        -0.5610   -0.5020    6.9650 ho        1 AHE      0.437000
     37 HN3         1.6180    2.6790    1.3840 hn        1 AHE      0.340500
     38 HA31        4.1140    2.2470    0.5680 h1        1 AHE      0.036200
     39 HA32        4.1030    2.1690    2.1650 h1        1 AHE      0.036200
@<TRIPOS>BOND
     1    1    2 1   
     2    1   23 1   
     3    1   24 1   
     4    2    3 1   
     5    2   20 1   
     6    2   25 1   
     7    3    4 1   
     8    3   26 1   
     9    3   27 1   
    10    4    5 1   
    11    4   28 1   
    12    4   29 1   
    13    5    6 2   
    14    5    7 1   
    15    7    8 1   
    16    7   30 1   
    17    8    9 1   
    18    8   13 1   
    19    8   31 1   
    20    9   10 1   
    21    9   32 1   
    22    9   33 1   
    23   10   11 1   
    24   11   12 1   
    25   11   34 1   
    26   11   35 1   
    27   12   36 1   
    28   13   14 2   
    29   13   15 1   
    30   15   16 1   
    31   15   37 1   
    32   16   17 1   
    33   16   38 1   
    34   16   39 1   
    35   17   18 1   
    36   17   19 1   
    37   20   21 1   
    38   20   22 1   
@<TRIPOS>SUBSTRUCTURE
     1 AHE         1 TEMP              0 ****  ****    0 ROOT
