@<TRIPOS>MOLECULE
AHE
   39    38     1     0     0
SMALL
bcc


@<TRIPOS>ATOM
      1 N1          2.9780   -0.3150    5.2310 n3        1 AHE     -0.895800
      2 CA1         1.9840    0.6400    4.7560 c3        1 AHE      0.020500
      3 CB1         1.1400    0.1150    3.5910 c3        1 AHE     -0.061400
      4 CG1         1.9860   -0.1680    2.3680 c3        1 AHE     -0.145400
      5 CD1         1.1660   -0.7350    1.2240 c         1 AHE      0.659100
      6 OE1         1.1740   -1.9570    0.9620 o         1 AHE     -0.641100
      7 N2          0.3840    0.1470    0.4950 n         1 AHE     -0.546900
      8 CA2        -0.2600   -0.2340   -0.7390 c3        1 AHE      0.033700
      9 CB2        -1.7870   -0.0750   -0.6710 c3        1 AHE      0.005700
     10 SG2        -2.5680   -1.2980   -1.6920 ss        1 AHE     -0.461200
     11 CD2        -3.5610   -0.3730   -2.9060 c3        1 AHE      0.265500
     12 OE2        -3.2850    0.9890   -2.9740 oh        1 AHE     -0.614800
     13 C2          0.2630    0.5970   -1.9460 c         1 AHE      0.621100
     14 O2          0.9750    1.6130   -1.7700 o         1 AHE     -0.656100
     15 N3         -0.0580    0.1300   -3.1930 n         1 AHE     -0.528900
     16 CA3         0.2410    0.8710   -4.3910 c3        1 AHE     -0.048000
     17 C3         -0.7700    0.6540   -5.5450 c         1 AHE      0.907600
     18 O31        -0.3820    0.9470   -6.7060 o         1 AHE     -0.847800
     19 O32        -1.9330    0.2130   -5.2800 o         1 AHE     -0.847800
     20 C1          1.0200    1.1690    5.8700 c         1 AHE      0.888600
     21 O11         0.1480    2.0170    5.5370 o         1 AHE     -0.846300
     22 O12         1.1850    0.7440    7.0520 o         1 AHE     -0.846300
     23 HN11        3.2330   -0.0400    6.1660 hn        1 AHE      0.330800
     24 HN12        2.5450   -1.2180    5.3110 hn        1 AHE      0.330800
     25 HA1         2.5630    1.5390    4.3910 h1        1 AHE      0.040700
     26 HB11        0.5970   -0.8160    3.8980 hc        1 AHE      0.056700
     27 HB12        0.3680    0.8980    3.3620 hc        1 AHE      0.056700
     28 HG11        2.5080    0.7690    2.0420 hc        1 AHE      0.063700
     29 HG12        2.7740   -0.9290    2.6130 hc        1 AHE      0.063700
     30 HN2         0.5320    1.1230    0.6220 hn        1 AHE      0.322500
     31 HA2        -0.0240   -1.3290   -0.9290 h1        1 AHE      0.111700
     32 HB21       -2.1520   -0.2400    0.3720 h1        1 AHE      0.086200
     33 HB22       -2.0960    0.9480   -0.9970 h1        1 AHE      0.086200
     34 HD21       -3.3750   -0.8960   -3.8780 h2        1 AHE      0.072700
     35 HD22       -4.6260   -0.4700   -2.5770 h2        1 AHE      0.072700
     36 HE2        -2.6560    1.1330   -3.7100 ho        1 AHE      0.468000
     37 HN3        -0.7910   -0.5490   -3.2720 hn        1 AHE      0.333500
     38 HA31        0.2770    1.9740   -4.1640 h1        1 AHE      0.044200
     39 HA32        1.2620    0.5660   -4.7530 h1        1 AHE      0.044200
@<TRIPOS>BOND
     1    1    2 1   
     2    1   23 1   
     3    1   24 1   
     4    2    3 1   
     5    2   20 1   
     6    2   25 1   
     7    3    4 1   
     8    3   26 1   
     9    3   27 1   
    10    4    5 1   
    11    4   28 1   
    12    4   29 1   
    13    5    6 2   
    14    5    7 1   
    15    7    8 1   
    16    7   30 1   
    17    8    9 1   
    18    8   13 1   
    19    8   31 1   
    20    9   10 1   
    21    9   32 1   
    22    9   33 1   
    23   10   11 1   
    24   11   12 1   
    25   11   34 1   
    26   11   35 1   
    27   12   36 1   
    28   13   14 2   
    29   13   15 1   
    30   15   16 1   
    31   15   37 1   
    32   16   17 1   
    33   16   38 1   
    34   16   39 1   
    35   17   18 1   
    36   17   19 1   
    37   20   21 1   
    38   20   22 1   
@<TRIPOS>SUBSTRUCTURE
     1 AHE         1 TEMP              0 ****  ****    0 ROOT
