@<TRIPOS>MOLECULE
AHE
   42    41     1     0     0
SMALL
bcc


@<TRIPOS>ATOM
      1 N1          1.5000   -0.4300   -0.6440 n4        1 AHE     -0.830600
      2 CA1         1.4440    0.5950    0.4460 c3        1 AHE     -0.055500
      3 CB1         0.4270    0.2300    1.5270 c3        1 AHE     -0.083400
      4 CG1         0.4350    1.2500    2.6550 c3        1 AHE     -0.136400
      5 CD1         1.2250    0.7450    3.8380 c         1 AHE      0.573100
      6 OE1         1.0770   -0.3430    4.3830 o         1 AHE     -0.450100
      7 N2          2.2820    1.6570    4.3780 n4        1 AHE     -0.665800
      8 CA2         2.5130    1.5360    5.8490 c3        1 AHE      0.047500
      9 CB2         3.9120    2.0200    6.2560 c3        1 AHE     -0.066300
     10 SG2         5.1560    1.6780    5.0590 ss        1 AHE     -0.292200
     11 CD2         5.3260    3.2480    4.1910 c3        1 AHE      0.212500
     12 OE2         4.1650    3.5830    3.4830 oh        1 AHE     -0.621800
     13 C2          1.4600    2.3540    6.6360 c         1 AHE      0.645100
     14 O2          0.5960    3.0160    6.0310 o         1 AHE     -0.587100
     15 N3          1.5050    2.2540    8.0140 n         1 AHE     -0.496900
     16 CA3         0.9240    3.2950    8.8210 c3        1 AHE     -0.026000
     17 C3          1.8610    4.4710    9.0530 c         1 AHE      0.598100
     18 O31         2.9930    4.5950    8.5830 o         1 AHE     -0.501000
     19 O32         1.4530    5.4980    9.8400 oh        1 AHE     -0.543100
     20 C1          2.8900    0.7490    1.0810 c         1 AHE      0.931600
     21 O11         3.0520    1.7760    1.7890 o         1 AHE     -0.783300
     22 O12         3.7120   -0.1600    0.8380 o         1 AHE     -0.783300
     23 HN11        0.6560   -1.0000   -0.6700 hn        1 AHE      0.460133
     24 HN12        1.6360    0.0300   -1.5450 hn        1 AHE      0.460133
     25 HA1         1.1670    1.5840   -0.0180 hx        1 AHE      0.110700
     26 HB11        0.6370   -0.7960    1.9350 hc        1 AHE      0.075700
     27 HB12       -0.6050    0.2120    1.0820 hc        1 AHE      0.075700
     28 HG11        0.8280    2.2360    2.2800 hc        1 AHE      0.119200
     29 HG12       -0.6160    1.4120    3.0300 hc        1 AHE      0.119200
     30 HN2         3.1930    1.4470    3.8690 hn        1 AHE      0.506300
     31 HA2         2.4040    0.4370    6.1140 hx        1 AHE      0.141700
     32 HB21        4.2090    1.4680    7.1860 h1        1 AHE      0.119700
     33 HB22        3.8880    3.1150    6.5040 h1        1 AHE      0.119700
     34 HD21        6.2220    3.1070    3.5360 h2        1 AHE      0.100700
     35 HD22        5.4980    4.0750    4.9280 h2        1 AHE      0.100700
     36 HE2         4.2660    3.2960    2.5600 ho        1 AHE      0.460000
     37 HN3         0.5530    5.3390   10.1640 ho        1 AHE      0.437000
     38 HA31        0.6490    2.8490    9.8210 h1        1 AHE      0.110200
     39 HA32       -0.0140    3.6780    8.3200 h1        1 AHE      0.110200
     40 H13         2.3290   -1.0330   -0.4540 hn        1 AHE      0.460133
     41 H22         2.0480    2.6360    4.1410 hn        1 AHE      0.506300
     42 H32         2.3120    1.8160    8.4100 hn        1 AHE      0.322500
@<TRIPOS>BOND
     1    1    2 1   
     2    1   23 1   
     3    1   24 1   
     4    1   40 1   
     5    2    3 1   
     6    2   20 1   
     7    2   25 1   
     8    3    4 1   
     9    3   26 1   
    10    3   27 1   
    11    4    5 1   
    12    4   28 1   
    13    4   29 1   
    14    5    6 2   
    15    5    7 1   
    16    7    8 1   
    17    7   30 1   
    18    7   41 1   
    19    8    9 1   
    20    8   13 1   
    21    8   31 1   
    22    9   10 1   
    23    9   32 1   
    24    9   33 1   
    25   10   11 1   
    26   11   12 1   
    27   11   34 1   
    28   11   35 1   
    29   12   36 1   
    30   13   14 2   
    31   13   15 1   
    32   15   16 1   
    33   15   42 1   
    34   16   17 1   
    35   16   38 1   
    36   16   39 1   
    37   17   18 2   
    38   17   19 1   
    39   19   37 1   
    40   20   21 1   
    41   20   22 1   
@<TRIPOS>SUBSTRUCTURE
     1 AHE         1 TEMP              0 ****  ****    0 ROOT
