@<TRIPOS>MOLECULE
AHG
   29    29     1     0     0
SMALL
bcc


@<TRIPOS>ATOM
      1 P1          1.5740    0.2870   -0.0590 p5        1 AHG      1.330900
      2 O1P         2.5420    1.3990   -0.3750 o         1 AHG     -0.946833
      3 O2P         1.3180    0.0800    1.4160 o         1 AHG     -0.946833
      4 O3P         1.7820   -0.9820   -0.8480 o         1 AHG     -0.946833
      5 O1          0.0480    0.8720   -0.6170 os        1 AHG     -0.583700
      6 C1         -0.2480    0.6990   -1.9500 c3        1 AHG      0.235400
      7 C2         -0.9480    1.9580   -2.5140 c3        1 AHG      0.096100
      8 C3         -0.4120    2.5320   -3.8470 c3        1 AHG      0.102100
      9 O3          0.3780    1.5770   -4.5400 oh        1 AHG     -0.632800
     10 C4         -1.6750    2.8940   -4.6690 c3        1 AHG      0.102100
     11 O4         -1.5860    4.2320   -5.1040 oh        1 AHG     -0.632800
     12 C5         -2.8480    2.6440   -3.7010 c3        1 AHG      0.096100
     13 O5         -2.3510    1.6910   -2.7400 os        1 AHG     -0.433600
     14 C6         -4.1180    2.0990   -4.3850 c3        1 AHG      0.235400
     15 O6         -5.0810    3.0780   -4.5080 os        1 AHG     -0.583700
     16 P2         -5.4430    3.5850   -6.1120 p5        1 AHG      1.330900
     17 O4P        -5.7680    2.3030   -6.8360 o         1 AHG     -0.946833
     18 O5P        -6.6050    4.5260   -5.9250 o         1 AHG     -0.946833
     19 O6P        -4.1360    4.2330   -6.5190 o         1 AHG     -0.946833
     20 H11        -0.9660   -0.1630   -2.0900 h1        1 AHG      0.004700
     21 H12         0.6890    0.4910   -2.5380 h1        1 AHG      0.004700
     22 H2         -0.8840    2.7780   -1.7460 h1        1 AHG      0.041700
     23 H3          0.2150    3.4440   -3.6540 h1        1 AHG      0.032200
     24 HO3         0.5260    1.9540   -5.4150 ho        1 AHG      0.427000
     25 H4         -1.7590    2.2170   -5.5650 h1        1 AHG      0.032200
     26 HO4        -2.4380    4.4250   -5.5590 ho        1 AHG      0.427000
     27 H5         -3.0970    3.5970   -3.1600 h1        1 AHG      0.041700
     28 H61        -3.8580    1.6730   -5.3950 h1        1 AHG      0.004700
     29 H62        -4.5170    1.2650   -3.7360 h1        1 AHG      0.004700
@<TRIPOS>BOND
     1    1    2 1   
     2    1    3 1   
     3    1    4 1   
     4    1    5 1   
     5    5    6 1   
     6    6    7 1   
     7    6   20 1   
     8    6   21 1   
     9    7    8 1   
    10    7   13 1   
    11    7   22 1   
    12    8    9 1   
    13    8   10 1   
    14    8   23 1   
    15    9   24 1   
    16   10   11 1   
    17   10   12 1   
    18   10   25 1   
    19   11   26 1   
    20   12   13 1   
    21   12   14 1   
    22   12   27 1   
    23   14   15 1   
    24   14   28 1   
    25   14   29 1   
    26   15   16 1   
    27   16   17 1   
    28   16   18 1   
    29   16   19 1   
@<TRIPOS>SUBSTRUCTURE
     1 AHG         1 TEMP              0 ****  ****    0 ROOT
