@<TRIPOS>MOLECULE
AHG
   29    29     1     0     0
SMALL
bcc


@<TRIPOS>ATOM
      1 P1          0.1840   -0.0710   -5.0430 p5        1 AHG      1.328900
      2 O1P         1.5070   -0.7160   -5.3700 o         1 AHG     -0.946000
      3 O2P        -1.0020   -0.6750   -5.7560 o         1 AHG     -0.946000
      4 O3P         0.2020    1.4380   -5.0010 o         1 AHG     -0.946000
      5 O1         -0.1030   -0.5080   -3.3910 os        1 AHG     -0.578200
      6 C1          0.2890    0.3970   -2.4340 c3        1 AHG      0.231400
      7 C2          0.8230   -0.3270   -1.1740 c3        1 AHG      0.068600
      8 C3          2.1480    0.2050   -0.5770 c3        1 AHG      0.108100
      9 O3          2.4750    1.5340   -0.9510 oh        1 AHG     -0.647800
     10 C4          1.9470    0.1340    0.9610 c3        1 AHG      0.108100
     11 O4          2.9410   -0.6880    1.5330 oh        1 AHG     -0.647800
     12 C5          0.5290   -0.4460    1.1450 c3        1 AHG      0.068600
     13 O5         -0.1470   -0.2220   -0.1090 os        1 AHG     -0.435600
     14 C6         -0.2660    0.1990    2.2990 c3        1 AHG      0.231400
     15 O6         -0.3670   -0.6510    3.3790 os        1 AHG     -0.578200
     16 P2          0.5160   -0.1900    4.7830 p5        1 AHG      1.328900
     17 O4P         0.0490    1.2170    5.0570 o         1 AHG     -0.946000
     18 O5P         0.0980   -1.2110    5.8100 o         1 AHG     -0.946000
     19 O6P         1.9410   -0.3060    4.2870 o         1 AHG     -0.946000
     20 H11        -0.5850    1.0310   -2.0970 h1        1 AHG      0.000700
     21 H12         1.0880    1.0750   -2.8480 h1        1 AHG      0.000700
     22 H2          0.9540   -1.4180   -1.4100 h1        1 AHG      0.047700
     23 H3          3.0240   -0.4090   -0.9070 h1        1 AHG      0.051700
     24 HO3         1.6430    2.0170   -1.0140 ho        1 AHG      0.444000
     25 H4          2.0170    1.1660    1.4020 h1        1 AHG      0.051700
     26 HO4         2.7380   -0.7160    2.4950 ho        1 AHG      0.444000
     27 H5          0.5970   -1.5540    1.3160 h1        1 AHG      0.047700
     28 H61         0.2200    1.1680    2.6050 h1        1 AHG      0.000700
     29 H62        -1.3020    0.4240    1.9080 h1        1 AHG      0.000700
@<TRIPOS>BOND
     1    1    2 1   
     2    1    3 1   
     3    1    4 1   
     4    1    5 1   
     5    5    6 1   
     6    6    7 1   
     7    6   20 1   
     8    6   21 1   
     9    7    8 1   
    10    7   13 1   
    11    7   22 1   
    12    8    9 1   
    13    8   10 1   
    14    8   23 1   
    15    9   24 1   
    16   10   11 1   
    17   10   12 1   
    18   10   25 1   
    19   11   26 1   
    20   12   13 1   
    21   12   14 1   
    22   12   27 1   
    23   14   15 1   
    24   14   28 1   
    25   14   29 1   
    26   15   16 1   
    27   16   17 1   
    28   16   18 1   
    29   16   19 1   
@<TRIPOS>SUBSTRUCTURE
     1 AHG         1 TEMP              0 ****  ****    0 ROOT
