@<TRIPOS>MOLECULE
AHG
   29    29     1     0     0
SMALL
bcc


@<TRIPOS>ATOM
      1 P1          1.8130    0.3020   -0.6770 p5        1 AHG      1.330900
      2 O1P         2.2680    0.6520   -2.0770 o         1 AHG     -0.946333
      3 O2P         2.5150    1.0280    0.4430 o         1 AHG     -0.946333
      4 O3P         1.5890   -1.1690   -0.4280 o         1 AHG     -0.946333
      5 O1          0.2330    0.9810   -0.6600 os        1 AHG     -0.584200
      6 C1         -0.5680    0.6910   -1.7460 c3        1 AHG      0.227400
      7 C2         -1.1370    1.9840   -2.3650 c3        1 AHG      0.075100
      8 C3         -0.4360    2.5530   -3.6230 c3        1 AHG      0.134100
      9 O3          0.4850    1.6890   -4.2490 oh        1 AHG     -0.665800
     10 C4         -1.5900    2.8390   -4.6200 c3        1 AHG      0.134100
     11 O4         -1.4730    4.1520   -5.1290 oh        1 AHG     -0.665800
     12 C5         -2.8740    2.6590   -3.7840 c3        1 AHG      0.075100
     13 O5         -2.5190    1.7540   -2.7210 os        1 AHG     -0.444600
     14 C6         -4.0770    2.1090   -4.5780 c3        1 AHG      0.227400
     15 O6         -5.1310    2.9970   -4.5850 os        1 AHG     -0.584200
     16 P2         -5.5020    3.6960   -6.1150 p5        1 AHG      1.330900
     17 O4P        -5.9140    2.5160   -6.9600 o         1 AHG     -0.946333
     18 O5P        -6.6160    4.6620   -5.7980 o         1 AHG     -0.946333
     19 O6P        -4.1740    4.3180   -6.4860 o         1 AHG     -0.946333
     20 H11        -0.0070    0.0950   -2.5160 h1        1 AHG      0.000450
     21 H12        -1.4590    0.0810   -1.4050 h1        1 AHG      0.000450
     22 H2         -1.1320    2.7860   -1.5740 h1        1 AHG      0.033200
     23 H3          0.0900    3.5110   -3.3550 h1        1 AHG      0.029200
     24 HO3         1.1250    1.3960   -3.5640 ho        1 AHG      0.480000
     25 H4         -1.5520    2.1050   -5.4690 h1        1 AHG      0.029200
     26 HO4        -2.3110    4.3300   -5.6080 ho        1 AHG      0.480000
     27 H5         -3.1580    3.6440   -3.3220 h1        1 AHG      0.033200
     28 H61        -4.4030    1.1480   -4.0810 h1        1 AHG      0.000450
     29 H62        -3.7510    1.8790   -5.6320 h1        1 AHG      0.000450
@<TRIPOS>BOND
     1    1    2 1   
     2    1    3 1   
     3    1    4 1   
     4    1    5 1   
     5    5    6 1   
     6    6    7 1   
     7    6   20 1   
     8    6   21 1   
     9    7    8 1   
    10    7   13 1   
    11    7   22 1   
    12    8    9 1   
    13    8   10 1   
    14    8   23 1   
    15    9   24 1   
    16   10   11 1   
    17   10   12 1   
    18   10   25 1   
    19   11   26 1   
    20   12   13 1   
    21   12   14 1   
    22   12   27 1   
    23   14   15 1   
    24   14   28 1   
    25   14   29 1   
    26   15   16 1   
    27   16   17 1   
    28   16   18 1   
    29   16   19 1   
@<TRIPOS>SUBSTRUCTURE
     1 AHG         1 TEMP              0 ****  ****    0 ROOT
