@<TRIPOS>MOLECULE
AHH
   25    24     1     0     0
SMALL
bcc


@<TRIPOS>ATOM
      1 N          -0.3720    1.5280   -0.2190 n3        1 AHH     -0.903800
      2 CA         -0.2700    0.0820   -0.0780 c3        1 AHH      0.145500
      3 CB          0.4060   -0.3420    1.2310 c3        1 AHH     -0.068400
      4 CG         -0.3430    0.1370    2.4540 c3        1 AHH     -0.074400
      5 O1          1.7930   -0.0920   -1.3490 oh        1 AHH     -0.641800
      6 CD          0.2710   -0.4130    3.7250 c3        1 AHH     -0.082400
      7 CE         -0.4600    0.0710    4.9500 c3        1 AHH     -0.088100
      8 C1          0.4690   -0.5960   -1.2620 c3        1 AHH     -0.022900
      9 C2         -0.3210   -0.3120   -2.5650 c         1 AHH      0.889600
     10 O3         -1.1940   -1.1340   -2.9410 o         1 AHH     -0.835300
     11 HN1        -0.7870    1.7260   -1.1150 hn        1 AHH      0.348300
     12 HN2         0.5560    1.9140   -0.2320 hn        1 AHH      0.348300
     13 HCA1       -1.3260   -0.3220   -0.0810 h1        1 AHH      0.059700
     14 HCB1        1.4600    0.0410    1.2460 hc        1 AHH      0.036200
     15 HCB2        0.4590   -1.4630    1.2400 hc        1 AHH      0.036200
     16 HCG1       -1.4160   -0.1830    2.3860 hc        1 AHH      0.042700
     17 HCG2       -0.3360    1.2580    2.4900 hc        1 AHH      0.042700
     18 HO11        1.7820    0.5910   -2.0390 ho        1 AHH      0.418000
     19 HCD1        1.3480   -0.1030    3.7820 hc        1 AHH      0.031200
     20 HCD2        0.2530   -1.5340    3.6950 hc        1 AHH      0.031200
     21 HCE1        0.0060   -0.3440    5.8760 hc        1 AHH      0.023700
     22 HCE2       -0.4310    1.1870    5.0110 hc        1 AHH      0.023700
     23 HCE3       -1.5300   -0.2470    4.9210 hc        1 AHH      0.023700
     24 HC11        0.5650   -1.6970   -1.0790 h1        1 AHH      0.051700
     25 O2         -0.0270    0.7700   -3.1580 o         1 AHH     -0.835300
@<TRIPOS>BOND
     1    1    2 1   
     2    1   11 1   
     3    1   12 1   
     4    2    3 1   
     5    2    8 1   
     6    2   13 1   
     7    3    4 1   
     8    3   14 1   
     9    3   15 1   
    10    4    6 1   
    11    4   16 1   
    12    4   17 1   
    13    5    8 1   
    14    5   18 1   
    15    6    7 1   
    16    6   19 1   
    17    6   20 1   
    18    7   21 1   
    19    7   22 1   
    20    7   23 1   
    21    8    9 1   
    22    8   24 1   
    23    9   10 1   
    24    9   25 1   
@<TRIPOS>SUBSTRUCTURE
     1 AHH         1 TEMP              0 ****  ****    0 ROOT
