@<TRIPOS>MOLECULE
AHH
   25    24     1     0     0
SMALL
bcc


@<TRIPOS>ATOM
      1 N          -2.0070    0.4280   -0.9850 n3        1 AHH     -0.903800
      2 CA         -0.5840    0.4280   -0.9850 c3        1 AHH      0.145500
      3 CB         -0.0800    0.4280    0.4400 c3        1 AHH     -0.068400
      4 CG          0.3100   -0.9780    0.8370 c3        1 AHH     -0.074400
      5 O1         -0.9950    2.7170   -1.5130 oh        1 AHH     -0.641800
      6 O2         -0.8980    1.6040   -3.9560 o         1 AHH     -0.835300
      7 CD          0.8510   -0.9720    2.2500 c3        1 AHH     -0.082400
      8 CE          1.1150   -2.3930    2.6950 c3        1 AHH     -0.088100
      9 C1         -0.0810    1.6620   -1.6970 c3        1 AHH     -0.022900
     10 C2          0.0600    1.3690   -3.1740 c         1 AHH      0.889600
     11 O3          1.1350    0.8910   -3.6210 o         1 AHH     -0.835300
     12 HN1        -2.3110    0.0440   -1.7540 hn        1 AHH      0.348300
     13 HN2        -2.3110   -0.0450   -0.2670 hn        1 AHH      0.348300
     14 HCA1       -0.2590   -0.3690   -1.4450 h1        1 AHH      0.059700
     15 HCB1       -0.7850    0.7510    1.0350 hc        1 AHH      0.036200
     16 HCB2        0.6970    1.0140    0.5110 hc        1 AHH      0.036200
     17 HCG1        0.9960   -1.3100    0.2270 hc        1 AHH      0.042700
     18 HCG2       -0.4740   -1.5590    0.7920 hc        1 AHH      0.042700
     19 HO11       -0.5660    3.4920   -1.5590 ho        1 AHH      0.418000
     20 HCD1        0.1980   -0.5600    2.8470 hc        1 AHH      0.031200
     21 HCD2        1.6830   -0.4630    2.2770 hc        1 AHH      0.031200
     22 HCE1        1.7130   -2.8280    2.0580 hc        1 AHH      0.023700
     23 HCE2        0.2720   -2.8830    2.7370 hc        1 AHH      0.023700
     24 HCE3        1.5310   -2.3860    3.5790 hc        1 AHH      0.023700
     25 HC11        0.7880    1.9170   -1.3320 h1        1 AHH      0.051700
@<TRIPOS>BOND
     1    1    2 1   
     2    1   12 1   
     3    1   13 1   
     4    2    3 1   
     5    2    9 1   
     6    2   14 1   
     7    3    4 1   
     8    3   15 1   
     9    3   16 1   
    10    4    7 1   
    11    4   17 1   
    12    4   18 1   
    13    5    9 1   
    14    5   19 1   
    15    6   10 1   
    16    7    8 1   
    17    7   20 1   
    18    7   21 1   
    19    8   22 1   
    20    8   23 1   
    21    8   24 1   
    22    9   10 1   
    23    9   25 1   
    24   10   11 1   
@<TRIPOS>SUBSTRUCTURE
     1 AHH         1 TEMP              0 ****  ****    0 ROOT
