@<TRIPOS>MOLECULE
AHI
   24    23     1     0     0
SMALL
bcc


@<TRIPOS>ATOM
      1 N10         0.7860   -1.2290    1.0420 n4        1 AHI     -0.806600
      2 C09         0.9540   -0.2280   -0.0510 c2        1 AHI      0.388100
      3 NP1         0.7130    1.0830    0.0630 n2        1 AHI     -0.195200
      4 N08         1.4310   -0.7640   -1.3590 n4        1 AHI     -0.700000
      5 C07         1.5940    0.2740   -2.4510 c3        1 AHI      0.126800
      6 C06         2.0850   -0.3530   -3.7610 c3        1 AHI     -0.143400
      7 C03         2.2210    0.7630   -4.8040 c3        1 AHI      0.106800
      8 N02         2.6940    0.2890   -6.1340 n4        1 AHI     -0.837600
      9 O16         0.3090    1.5170    1.1820 oh        1 AHI     -0.253500
     10 H101        0.0790   -1.9410    0.7940 hn        1 AHI      0.511133
     11 H102        0.4510   -0.7410    1.9020 hn        1 AHI      0.511133
     12 H08         2.3480   -1.2200   -1.2090 hn        1 AHI      0.485800
     13 H071        0.5900    0.7690   -2.6140 hx        1 AHI      0.143700
     14 H072        2.3380    1.0450   -2.0900 hx        1 AHI      0.143700
     15 H061        1.3550   -1.1290   -4.1240 hc        1 AHI      0.102700
     16 H062        3.0790   -0.8570   -3.6080 hc        1 AHI      0.102700
     17 H031        1.2190    1.2670   -4.9620 hx        1 AHI      0.135700
     18 H032        2.9590    1.5410   -4.4410 hx        1 AHI      0.135700
     19 H021        3.6250   -0.1450   -6.0660 hn        1 AHI      0.488800
     20 H022        2.0410   -0.3950   -6.5400 hn        1 AHI      0.488800
     21 H023        2.7600    1.0960   -6.7790 hn        1 AHI      0.488800
     22 H16         0.1760    2.5170    1.0990 ho        1 AHI      0.579000
     23 H103        1.6820   -1.6870    1.2740 hn        1 AHI      0.511133
     24 H082        0.7500   -1.4720   -1.6870 hn        1 AHI      0.485800
@<TRIPOS>BOND
     1    1    2 1   
     2    1   10 1   
     3    1   11 1   
     4    1   23 1   
     5    2    3 2   
     6    2    4 1   
     7    3    9 1   
     8    4    5 1   
     9    4   12 1   
    10    4   24 1   
    11    5    6 1   
    12    5   13 1   
    13    5   14 1   
    14    6    7 1   
    15    6   15 1   
    16    6   16 1   
    17    7    8 1   
    18    7   17 1   
    19    7   18 1   
    20    8   19 1   
    21    8   20 1   
    22    8   21 1   
    23    9   22 1   
@<TRIPOS>SUBSTRUCTURE
     1 AHI         1 TEMP              0 ****  ****    0 ROOT
