@<TRIPOS>MOLECULE
AHI
   22    20     1     0     0
SMALL
bcc


@<TRIPOS>ATOM
      1 N10        -2.8980    0.6660    1.9650 n3        1 AHI     -0.334000
      2 C09        -1.5040    0.8680    1.7990 c2        1 AHI      0.103000
      3 NP1        -0.7710    1.1260    2.8140 n1        1 AHI     -0.176000
      4 N08        -0.9140    0.7830    0.4850 n3        1 AHI     -0.267000
      5 C07         0.1520   -0.1620    0.2310 c3        1 AHI     -0.045000
      6 C06         0.4970   -0.1630   -1.2950 c3        1 AHI     -0.204000
      7 C03         1.7170   -1.0420   -1.5410 c3        1 AHI     -0.135000
      8 N02         2.0590   -0.9940   -2.9120 n4        1 AHI     -0.067000
      9 O16        -1.3300    1.2060    4.0570 o         1 AHI     -0.252000
     10 H101       -3.2150   -0.1570    2.1740 hn        1 AHI      0.207500
     11 H102       -3.4820    1.3650    1.8360 hn        1 AHI      0.207500
     12 H08        -1.1820    1.3500   -0.1700 hn        1 AHI      0.193000
     13 H071        0.9460    0.0950    0.7450 h1        1 AHI      0.102500
     14 H072       -0.1380   -1.0640    0.5040 h1        1 AHI      0.102500
     15 H061        0.6920    0.7570   -1.5880 hc        1 AHI      0.115500
     16 H062       -0.2720   -0.5160   -1.8080 hc        1 AHI      0.115500
     17 H031        1.5150   -1.9580   -1.2880 hx        1 AHI      0.157000
     18 H032        2.4630   -0.7170   -1.0110 hx        1 AHI      0.157000
     19 H021        2.7880   -1.5310   -3.0650 hn        1 AHI      0.258000
     20 H022        1.3540   -1.2870   -3.4130 hn        1 AHI      0.258000
     21 H023        2.2590   -0.1340   -3.1440 hn        1 AHI      0.258000
     22 H16        -0.7340    1.5090    4.6260 ho        1 AHI      0.246000
@<TRIPOS>BOND
     1    1    2 1   
     2    1   10 1   
     3    1   11 1   
     4    2    3 1   
     5    2    4 1   
     6    4    5 1   
     7    4   12 1   
     8    5    6 1   
     9    5   13 1   
    10    5   14 1   
    11    6    7 1   
    12    6   15 1   
    13    6   16 1   
    14    7    8 1   
    15    7   17 1   
    16    7   18 1   
    17    8   19 1   
    18    8   20 1   
    19    8   21 1   
    20    9   22 1   
@<TRIPOS>SUBSTRUCTURE
     1 AHI         1 TEMP              0 ****  ****    0 ROOT
