@<TRIPOS>MOLECULE
AHI
   22    21     1     0     0
SMALL
bcc


@<TRIPOS>ATOM
      1 N10         1.8660    1.3610   -0.9860 nh        1 AHI     -0.888800
      2 C09         1.6680    0.1650   -0.2490 c2        1 AHI      0.663100
      3 NP1         2.4700   -0.3440    0.6900 n2        1 AHI     -0.529200
      4 N08         0.4090   -0.5210   -0.5090 nh        1 AHI     -0.767200
      5 C07        -0.6940    0.0700    0.2270 c3        1 AHI      0.172800
      6 C06        -2.0430   -0.4600   -0.2810 c3        1 AHI     -0.121400
      7 C03        -3.1480    0.2860    0.4540 c3        1 AHI      0.100800
      8 N02        -4.5110   -0.1360    0.0120 n4        1 AHI     -0.838600
      9 O16         3.6350    0.2420    0.8440 oh        1 AHI     -0.349500
     10 H101        2.8170    1.6700   -0.9760 hn        1 AHI      0.408300
     11 H102        1.4750    1.3470   -1.9030 hn        1 AHI      0.408300
     12 H08         0.4920   -1.5020   -0.3020 hn        1 AHI      0.394800
     13 H071       -0.6290   -0.1310    1.3360 h1        1 AHI      0.059200
     14 H072       -0.6620    1.1870    0.0790 h1        1 AHI      0.059200
     15 H061       -2.1210   -0.2930   -1.3890 hc        1 AHI      0.077700
     16 H062       -2.1170   -1.5620   -0.0900 hc        1 AHI      0.077700
     17 H031       -3.0750    0.0970    1.5650 hx        1 AHI      0.116700
     18 H032       -3.0570    1.3970    0.2700 hx        1 AHI      0.116700
     19 H021       -4.6240    0.0390   -0.9930 hn        1 AHI      0.462467
     20 H022       -4.6430   -1.1380    0.1840 hn        1 AHI      0.462467
     21 H023       -5.2260    0.3900    0.5260 hn        1 AHI      0.462467
     22 H16         4.1080   -0.3280    1.4870 ho        1 AHI      0.452000
@<TRIPOS>BOND
     1    1    2 1   
     2    1   10 1   
     3    1   11 1   
     4    2    3 2   
     5    2    4 1   
     6    3    9 1   
     7    4    5 1   
     8    4   12 1   
     9    5    6 1   
    10    5   13 1   
    11    5   14 1   
    12    6    7 1   
    13    6   15 1   
    14    6   16 1   
    15    7    8 1   
    16    7   17 1   
    17    7   18 1   
    18    8   19 1   
    19    8   20 1   
    20    8   21 1   
    21    9   22 1   
@<TRIPOS>SUBSTRUCTURE
     1 AHI         1 TEMP              0 ****  ****    0 ROOT
