@<TRIPOS>MOLECULE
AHI
   24    23     1     0     0
SMALL
bcc


@<TRIPOS>ATOM
      1 N10         0.7910    1.4170    0.9680 nz        1 AHI     -0.806600
      2 C09         0.9170    0.3630   -0.0800 c2        1 AHI      0.388100
      3 NP1         0.5650   -0.9180    0.0730 n2        1 AHI     -0.195200
      4 N08         1.4840    0.8060   -1.3860 ny        1 AHI     -0.700000
      5 C07         1.5740   -0.2780   -2.4410 c3        1 AHI      0.126800
      6 C06         2.1600    0.2550   -3.7540 c3        1 AHI     -0.143400
      7 C03         2.2160   -0.9030   -4.7590 c3        1 AHI      0.106800
      8 N02         2.7690   -0.5210   -6.0870 nz        1 AHI     -0.837600
      9 O16         0.0860   -1.2740    1.1900 oh        1 AHI     -0.253500
     10 H101        1.7130    1.8140    1.2150 hn        1 AHI      0.511133
     11 H102        0.3920    0.9920    1.8330 hn        1 AHI      0.511133
     12 H08         0.8900    1.5670   -1.7580 hn        1 AHI      0.486300
     13 H071        2.2300   -1.1060   -2.0360 hx        1 AHI      0.143700
     14 H072        0.5310   -0.6780   -2.6190 hx        1 AHI      0.143700
     15 H061        3.1940    0.6650   -3.5860 hc        1 AHI      0.102700
     16 H062        1.5180    1.0850   -4.1630 hc        1 AHI      0.102700
     17 H031        2.8640   -1.7360   -4.3490 hx        1 AHI      0.135700
     18 H032        1.1740   -1.3130   -4.9320 hx        1 AHI      0.135700
     19 H021        2.1970    0.2090   -6.5340 hn        1 AHI      0.488800
     20 H022        3.7360   -0.1760   -6.0030 hn        1 AHI      0.488800
     21 H023        2.7740   -1.3510   -6.7040 hn        1 AHI      0.488800
     22 H16        -0.1250   -2.2620    1.1390 ho        1 AHI      0.579000
     23 H103        0.1510    2.1710    0.6680 hn        1 AHI      0.511133
     24 H082        2.4380    1.1710   -1.2180 hn        1 AHI      0.486300
@<TRIPOS>BOND
     1    1    2 1   
     2    1   10 1   
     3    1   11 1   
     4    1   23 1   
     5    2    3 2   
     6    2    4 1   
     7    3    9 1   
     8    4    5 1   
     9    4   12 1   
    10    4   24 1   
    11    5    6 1   
    12    5   13 1   
    13    5   14 1   
    14    6    7 1   
    15    6   15 1   
    16    6   16 1   
    17    7    8 1   
    18    7   17 1   
    19    7   18 1   
    20    8   19 1   
    21    8   20 1   
    22    8   21 1   
    23    9   22 1   
@<TRIPOS>SUBSTRUCTURE
     1 AHI         1 TEMP              0 ****  ****    0 ROOT
