@<TRIPOS>MOLECULE
AHI
   24    23     1     0     0
SMALL
bcc


@<TRIPOS>ATOM
      1 N10         0.7630    1.4010    0.9680 n4        1 AHI     -0.806600
      2 C09         0.9250    0.3460   -0.0740 c2        1 AHI      0.388100
      3 NP1         0.6040   -0.9440    0.0800 n2        1 AHI     -0.195200
      4 N08         1.4970    0.7970   -1.3760 n4        1 AHI     -0.700000
      5 C07         1.5790   -0.2780   -2.4420 c3        1 AHI      0.126800
      6 C06         2.1580    0.2660   -3.7530 c3        1 AHI     -0.143400
      7 C03         2.2090   -0.8840   -4.7670 c3        1 AHI      0.106800
      8 N02         2.7580   -0.4920   -6.0940 n4        1 AHI     -0.837600
      9 O16         0.1240   -1.3060    1.1950 oh        1 AHI     -0.253500
     10 H101        0.1010    2.1320    0.6610 hn        1 AHI      0.511133
     11 H102        0.3740    0.9670    1.8330 hn        1 AHI      0.511133
     12 H08         2.4540    1.1510   -1.2020 hn        1 AHI      0.485800
     13 H071        0.5340   -0.6750   -2.6170 hx        1 AHI      0.144200
     14 H072        2.2350   -1.1110   -2.0480 hx        1 AHI      0.144200
     15 H061        1.5150    1.0990   -4.1520 hc        1 AHI      0.103200
     16 H062        3.1930    0.6740   -3.5860 hc        1 AHI      0.103200
     17 H031        1.1670   -1.2920   -4.9390 hx        1 AHI      0.135700
     18 H032        2.8580   -1.7210   -4.3670 hx        1 AHI      0.135700
     19 H021        2.1850    0.2420   -6.5330 hn        1 AHI      0.488800
     20 H022        2.7590   -1.3170   -6.7180 hn        1 AHI      0.488800
     21 H023        3.7250   -0.1490   -6.0120 hn        1 AHI      0.488800
     22 H16        -0.0610   -2.3000    1.1460 ho        1 AHI      0.579000
     23 H103        1.6710    1.8270    1.2150 hn        1 AHI      0.511133
     24 H082        0.9110    1.5670   -1.7420 hn        1 AHI      0.485800
@<TRIPOS>BOND
     1    1    2 1   
     2    1   10 1   
     3    1   11 1   
     4    1   23 1   
     5    2    3 2   
     6    2    4 1   
     7    3    9 1   
     8    4    5 1   
     9    4   12 1   
    10    4   24 1   
    11    5    6 1   
    12    5   13 1   
    13    5   14 1   
    14    6    7 1   
    15    6   15 1   
    16    6   16 1   
    17    7    8 1   
    18    7   17 1   
    19    7   18 1   
    20    8   19 1   
    21    8   20 1   
    22    8   21 1   
    23    9   22 1   
@<TRIPOS>SUBSTRUCTURE
     1 AHI         1 TEMP              0 ****  ****    0 ROOT
