@<TRIPOS>MOLECULE
AHL
   32    31     1     0     0
SMALL
bcc


@<TRIPOS>ATOM
      1 N1          0.5770    0.2750   -0.6700 n4        1 AHL     -0.849600
      2 CA          1.8000   -0.1960    0.0570 c3        1 AHL      0.094500
      3 CB          1.6680   -0.1000    1.5970 c3        1 AHL     -0.119400
      4 CG          1.9120    1.2910    2.1720 c3        1 AHL     -0.110400
      5 CD          1.9020    1.2050    3.7110 c3        1 AHL      0.105800
      6 NE          2.1680    2.5260    4.3870 n4        1 AHL     -0.793000
      7 CZ          2.1590    2.4330    5.9150 c2        1 AHL      0.627100
      8 NH1         2.4480    3.7400    6.6040 n4        1 AHL     -0.820600
      9 NH2         1.9440    1.4260    6.6490 n2        1 AHL     -0.569100
     10 C           2.1070   -1.6690   -0.2950 c         1 AHL      0.507100
     11 O1          1.9310   -2.6210    0.4380 o         1 AHL     -0.275100
     12 N2          2.7290   -1.9870   -1.6560 n4        1 AHL     -0.441300
     13 O2          2.4350   -0.9750   -2.5010 oh        1 AHL     -0.426300
     14 HN11        0.3880    1.2600   -0.4270 hn        1 AHL      0.499467
     15 HN12       -0.2530   -0.2850   -0.4190 hn        1 AHL      0.499467
     16 HA          2.6710    0.4490   -0.2950 hx        1 AHL      0.165700
     17 HB1         0.6590   -0.4820    1.9200 hc        1 AHL      0.123200
     18 HB2         2.4320   -0.8080    2.0350 hc        1 AHL      0.123200
     19 HG1         2.9040    1.6820    1.8150 hc        1 AHL      0.091200
     20 HG2         1.1130    2.0000    1.8260 hc        1 AHL      0.091200
     21 HD1         2.7020    0.4790    4.0460 hx        1 AHL      0.134200
     22 HD2         0.8890    0.8380    4.0540 hx        1 AHL      0.134200
     23 HNE         1.4460    3.2000    4.0860 hn        1 AHL      0.485300
     24 HH11        2.4210    3.5920    7.6460 hn        1 AHL      0.526800
     25 HH12        3.3930    4.0890    6.3680 hn        1 AHL      0.526800
     26 HNH2        1.7360    0.4830    6.3810 hn        1 AHL      0.554400
     27 HN2         3.7660   -2.0920   -1.5470 hn        1 AHL      0.524300
     28 HO2         2.7840   -1.1820   -3.4140 ho        1 AHL      0.553000
     29 H13         0.7160    0.2220   -1.6960 hn        1 AHL      0.499467
     30 HE3         3.0900    2.8730    4.0740 hn        1 AHL      0.485300
     31 HH13        1.7340    4.4520    6.3760 hn        1 AHL      0.526800
     32 H22         2.3440   -2.9030   -2.0050 hn        1 AHL      0.524300
@<TRIPOS>BOND
     1    1    2 1   
     2    1   14 1   
     3    1   15 1   
     4    1   29 1   
     5    2    3 1   
     6    2   10 1   
     7    2   16 1   
     8    3    4 1   
     9    3   17 1   
    10    3   18 1   
    11    4    5 1   
    12    4   19 1   
    13    4   20 1   
    14    5    6 1   
    15    5   21 1   
    16    5   22 1   
    17    6    7 1   
    18    6   23 1   
    19    6   30 1   
    20    7    8 1   
    21    7    9 2   
    22    8   24 1   
    23    8   25 1   
    24    8   31 1   
    25    9   26 1   
    26   10   11 2   
    27   10   12 1   
    28   12   13 1   
    29   12   27 1   
    30   12   32 1   
    31   13   28 1   
@<TRIPOS>SUBSTRUCTURE
     1 AHL         1 TEMP              0 ****  ****    0 ROOT
