@<TRIPOS>MOLECULE
AHL
   28    26     1     0     0
SMALL
bcc


@<TRIPOS>ATOM
      1 N1         -2.2370   -0.5330   -1.8110 n3        1 AHL     -0.888800
      2 CA         -0.8360   -0.8070   -1.7800 c3        1 AHL      0.106500
      3 CB         -0.3570   -0.8280   -0.3410 c3        1 AHL     -0.072400
      4 CG          0.0260    0.5820    0.0850 c3        1 AHL     -0.088400
      5 CD          0.3700    0.5890    1.6230 c3        1 AHL      0.184800
      6 NE          0.8460    1.8830    2.0020 nh        1 AHL     -0.776000
      7 CZ          0.9780    2.2330    3.4370 c2        1 AHL      0.321000
      8 NH1         2.2030    1.9090    4.1590 nh        1 AHL     -0.809600
      9 NH2        -0.0020    2.8310    4.0530 n1        1 AHL     -0.349000
     10 C          -0.5690   -2.1470   -2.4230 c         1 AHL      0.542100
     11 O1         -0.8290   -3.1980   -1.8060 o         1 AHL     -0.567100
     12 N2         -0.0560   -2.2080   -3.7580 n         1 AHL     -0.350400
     13 O2          0.0200   -3.3980   -4.3990 oh        1 AHL     -0.436100
     14 HN11       -2.6970   -1.2970   -2.0780 hn        1 AHL      0.364300
     15 HN12       -2.3980    0.1260   -2.3880 hn        1 AHL      0.364300
     16 HA         -0.3610   -0.1160   -2.2670 h1        1 AHL      0.084700
     17 HB1         0.4200   -1.4140   -0.2660 hc        1 AHL      0.050700
     18 HB2        -1.0650   -1.1570    0.2300 hc        1 AHL      0.050700
     19 HG1        -0.7270    1.1920   -0.0860 hc        1 AHL      0.060200
     20 HG2         0.8140    0.8800   -0.4310 hc        1 AHL      0.060200
     21 HD1         1.0570   -0.0740    1.8040 h1        1 AHL      0.041200
     22 HD2        -0.4290    0.3750    2.1340 h1        1 AHL      0.041200
     23 HNE         0.9990    2.5010    1.3760 hn        1 AHL      0.395800
     24 HH11        2.1620    1.6600    5.0400 hn        1 AHL      0.393800
     25 HH12        3.0280    2.0500    3.7550 hn        1 AHL      0.393800
     26 HNH2       -0.8010    3.0430    3.5820 DU        1 AHL      0.147000
     27 HN2         0.1550   -1.4100   -4.2180 hn        1 AHL      0.299500
     28 HO2         0.2850   -3.2680   -5.2270 ho        1 AHL      0.436000
@<TRIPOS>BOND
     1    1    2 1   
     2    1   14 1   
     3    1   15 1   
     4    2    3 1   
     5    2   10 1   
     6    2   16 1   
     7    3    4 1   
     8    3   17 1   
     9    3   18 1   
    10    4    5 1   
    11    4   19 1   
    12    4   20 1   
    13    5    6 1   
    14    5   21 1   
    15    5   22 1   
    16    6    7 1   
    17    6   23 1   
    18    7    8 1   
    19    7    9 2   
    20    8   24 1   
    21    8   25 1   
    22   10   11 2   
    23   10   12 1   
    24   12   13 1   
    25   12   27 1   
    26   13   28 1   
@<TRIPOS>SUBSTRUCTURE
     1 AHL         1 TEMP              0 ****  ****    0 ROOT
