@<TRIPOS>MOLECULE
AHL
   28    27     1     0     0
SMALL
bcc


@<TRIPOS>ATOM
      1 N1          1.7670    2.1850    0.0340 n3        1 AHL     -0.887800
      2 CA          1.7920    0.7900    0.4100 c3        1 AHL      0.107500
      3 CB          0.5660    0.0120   -0.0950 c3        1 AHL     -0.072400
      4 CG         -0.7100    0.5270    0.5320 c3        1 AHL     -0.089400
      5 CD         -1.8930   -0.3240    0.0670 c3        1 AHL      0.170800
      6 NE         -3.1470    0.0450    0.6940 nh        1 AHL     -0.794200
      7 CZ         -4.3290   -0.2220   -0.0940 c2        1 AHL      0.755100
      8 NH1        -4.5290   -1.5850   -0.4630 nh        1 AHL     -0.945800
      9 NH2        -5.1800    0.7510   -0.3070 n2        1 AHL     -0.877100
     10 C           3.0430    0.0370   -0.0970 c         1 AHL      0.542100
     11 O1          3.7110    0.4460   -1.0600 o         1 AHL     -0.567100
     12 N2          3.4970   -1.0680    0.6810 n         1 AHL     -0.351400
     13 O2          4.3140   -1.9110    0.0440 oh        1 AHL     -0.436100
     14 HN11        2.5930    2.6480    0.3600 hn        1 AHL      0.364800
     15 HN12        1.7100    2.2840   -0.9620 hn        1 AHL      0.364800
     16 HA          1.7940    0.7620    1.5430 h1        1 AHL      0.084700
     17 HB1         0.5020    0.0840   -1.2120 hc        1 AHL      0.048700
     18 HB2         0.6990   -1.0710    0.1660 hc        1 AHL      0.048700
     19 HG1        -0.6250    0.4900    1.6500 hc        1 AHL      0.064700
     20 HG2        -0.8740    1.5990    0.2430 hc        1 AHL      0.064700
     21 HD1        -1.9480   -0.2660   -1.0600 h1        1 AHL      0.033700
     22 HD2        -1.6920   -1.4020    0.3370 h1        1 AHL      0.033700
     23 HNE        -3.1400    0.9870    1.0420 hn        1 AHL      0.410800
     24 HH11       -5.0170   -1.7160   -1.3190 hn        1 AHL      0.398300
     25 HH12       -3.7570   -2.1970   -0.3420 hn        1 AHL      0.398300
     26 HNH2       -6.0340    0.4940   -0.7510 hn        1 AHL      0.394400
     27 HN2         2.7370   -1.6130    1.0740 hn        1 AHL      0.299500
     28 HO2         5.1660   -1.4390   -0.0460 ho        1 AHL      0.436000
@<TRIPOS>BOND
     1    1    2 1   
     2    1   14 1   
     3    1   15 1   
     4    2    3 1   
     5    2   10 1   
     6    2   16 1   
     7    3    4 1   
     8    3   17 1   
     9    3   18 1   
    10    4    5 1   
    11    4   19 1   
    12    4   20 1   
    13    5    6 1   
    14    5   21 1   
    15    5   22 1   
    16    6    7 1   
    17    6   23 1   
    18    7    8 1   
    19    7    9 2   
    20    8   24 1   
    21    8   25 1   
    22    9   26 1   
    23   10   11 2   
    24   10   12 1   
    25   12   13 1   
    26   12   27 1   
    27   13   28 1   
@<TRIPOS>SUBSTRUCTURE
     1 AHL         1 TEMP              0 ****  ****    0 ROOT
