@<TRIPOS>MOLECULE
AHL
   32    31     1     0     0
SMALL
bcc


@<TRIPOS>ATOM
      1 N1          1.1010    1.1080   -0.8830 n4        1 AHL     -0.849600
      2 CA          1.8430    0.1030   -0.0560 c3        1 AHL      0.094500
      3 CB          1.4580    0.1460    1.4440 c3        1 AHL     -0.119400
      4 CG          2.1390    1.2500    2.2460 c3        1 AHL     -0.110400
      5 CD          1.7880    1.0750    3.7360 c3        1 AHL      0.105800
      6 NE          2.4380    2.1000    4.6300 n4        1 AHL     -0.793000
      7 CZ          2.0870    1.9190    6.1090 c2        1 AHL      0.627100
      8 NH1         2.7490    2.9220    7.0170 n4        1 AHL     -0.820600
      9 NH2         1.3320    1.0590    6.6470 n2        1 AHL     -0.569100
     10 C           1.5700   -1.3290   -0.5680 c         1 AHL      0.507100
     11 O1          0.8710   -2.1540   -0.0170 o         1 AHL     -0.275100
     12 N2          2.2610   -1.7970   -1.8500 n4        1 AHL     -0.441300
     13 O2          2.5920   -0.7050   -2.5730 oh        1 AHL     -0.426300
     14 HN11        1.2950    2.0580   -0.5310 hn        1 AHL      0.499467
     15 HN12        1.4060    1.0670   -1.8730 hn        1 AHL      0.499467
     16 HA          2.9540    0.3240   -0.1730 hx        1 AHL      0.166700
     17 HB1         0.3400    0.2210    1.5510 hc        1 AHL      0.123200
     18 HB2         1.7530   -0.8520    1.8850 hc        1 AHL      0.123200
     19 HG1         3.2530    1.1920    2.1030 hc        1 AHL      0.091200
     20 HG2         1.7940    2.2580    1.8900 hc        1 AHL      0.091200
     21 HD1         0.6670    1.1630    3.8650 hx        1 AHL      0.134200
     22 HD2         2.1300    0.0520    4.0790 hx        1 AHL      0.134200
     23 HNE         3.4630    2.0310    4.5140 hn        1 AHL      0.485300
     24 HH11        3.7790    2.8410    6.9780 hn        1 AHL      0.527133
     25 HH12        2.4560    2.7310    8.0100 hn        1 AHL      0.527133
     26 HNH2        0.8100    0.3200    6.2170 hn        1 AHL      0.554400
     27 HN2         3.1150   -2.3520   -1.6020 hn        1 AHL      0.524300
     28 HO2         2.9980   -0.9830   -3.4430 ho        1 AHL      0.553000
     29 H13         0.0800    0.9520   -0.8460 hn        1 AHL      0.499467
     30 HE3         2.1370    3.0400    4.3250 hn        1 AHL      0.485300
     31 HH13        2.4540    3.8870    6.7890 hn        1 AHL      0.527133
     32 H22         1.6070   -2.4260   -2.3840 hn        1 AHL      0.524300
@<TRIPOS>BOND
     1    1    2 1   
     2    1   14 1   
     3    1   15 1   
     4    1   29 1   
     5    2    3 1   
     6    2   10 1   
     7    2   16 1   
     8    3    4 1   
     9    3   17 1   
    10    3   18 1   
    11    4    5 1   
    12    4   19 1   
    13    4   20 1   
    14    5    6 1   
    15    5   21 1   
    16    5   22 1   
    17    6    7 1   
    18    6   23 1   
    19    6   30 1   
    20    7    8 1   
    21    7    9 2   
    22    8   24 1   
    23    8   25 1   
    24    8   31 1   
    25    9   26 1   
    26   10   11 2   
    27   10   12 1   
    28   12   13 1   
    29   12   27 1   
    30   12   32 1   
    31   13   28 1   
@<TRIPOS>SUBSTRUCTURE
     1 AHL         1 TEMP              0 ****  ****    0 ROOT
