@<TRIPOS>MOLECULE
AHL
   32    31     1     0     0
SMALL
bcc


@<TRIPOS>ATOM
      1 N1          0.8720   -1.3390    0.0170 nz        1 AHL     -0.849600
      2 CA          1.9400   -0.2910    0.0970 c3        1 AHL      0.094500
      3 CB          2.3970    0.0040    1.5470 c3        1 AHL     -0.119400
      4 CG          1.4780    0.9370    2.3270 c3        1 AHL     -0.110400
      5 CD          2.1330    1.2640    3.6840 c3        1 AHL      0.105800
      6 NE          1.3190    2.2120    4.5290 ny        1 AHL     -0.793000
      7 CZ          1.9760    2.5340    5.8740 c2        1 AHL      0.627100
      8 NH1         1.1850    3.4970    6.7200 nz        1 AHL     -0.820600
      9 NH2         3.0660    2.1030    6.3500 n2        1 AHL     -0.569100
     10 C           3.1880   -0.7260   -0.7070 c         1 AHL      0.507100
     11 O1          4.2380   -1.1020   -0.2300 o         1 AHL     -0.275100
     12 N2          3.1460   -0.6420   -2.2340 ny        1 AHL     -0.441300
     13 O2          1.8530   -0.6770   -2.6220 oh        1 AHL     -0.426300
     14 HN11        0.5750   -1.4870   -0.9650 hn        1 AHL      0.499467
     15 HN12        0.0460   -1.0340    0.5550 hn        1 AHL      0.499467
     16 HA          1.5200    0.6570   -0.3740 hx        1 AHL      0.166700
     17 HB1         3.4190    0.4820    1.4760 hc        1 AHL      0.123200
     18 HB2         2.5380   -0.9620    2.1090 hc        1 AHL      0.123200
     19 HG1         0.4800    0.4500    2.4940 hc        1 AHL      0.091200
     20 HG2         1.3120    1.8830    1.7430 hc        1 AHL      0.091200
     21 HD1         3.1410    1.7440    3.5020 hx        1 AHL      0.134200
     22 HD2         2.2680    0.3060    4.2700 hx        1 AHL      0.134200
     23 HNE         0.3930    1.7870    4.6990 hn        1 AHL      0.485300
     24 HH11        0.2570    3.1100    6.9620 hn        1 AHL      0.527133
     25 HH12        1.7010    3.6630    7.6220 hn        1 AHL      0.527133
     26 HNH2        3.7230    1.4640    5.9440 hn        1 AHL      0.554400
     27 HN2         3.6900   -1.4470   -2.6380 hn        1 AHL      0.524300
     28 HO2         1.7980   -0.6770   -3.6210 ho        1 AHL      0.553000
     29 H13         1.1950   -2.2410    0.4040 hn        1 AHL      0.499467
     30 HE3         1.1850    3.0880    3.9990 hn        1 AHL      0.485300
     31 HH13        1.0830    4.4120    6.2500 hn        1 AHL      0.527133
     32 H22         3.6040    0.2480   -2.5450 hn        1 AHL      0.524300
@<TRIPOS>BOND
     1    1    2 1   
     2    1   14 1   
     3    1   15 1   
     4    1   29 1   
     5    2    3 1   
     6    2   10 1   
     7    2   16 1   
     8    3    4 1   
     9    3   17 1   
    10    3   18 1   
    11    4    5 1   
    12    4   19 1   
    13    4   20 1   
    14    5    6 1   
    15    5   21 1   
    16    5   22 1   
    17    6    7 1   
    18    6   23 1   
    19    6   30 1   
    20    7    8 1   
    21    7    9 2   
    22    8   24 1   
    23    8   25 1   
    24    8   31 1   
    25    9   26 1   
    26   10   11 2   
    27   10   12 1   
    28   12   13 1   
    29   12   27 1   
    30   12   32 1   
    31   13   28 1   
@<TRIPOS>SUBSTRUCTURE
     1 AHL         1 TEMP              0 ****  ****    0 ROOT
