@<TRIPOS>MOLECULE
AHM
   29    29     1     0     0
SMALL
bcc


@<TRIPOS>ATOM
      1 P1          0.2390   -1.1060   -1.6320 p5        1 AHM      1.329900
      2 O1P         1.6900   -1.2610   -1.2480 o         1 AHM     -0.946833
      3 O2P        -0.6940   -2.0950   -0.9790 o         1 AHM     -0.946833
      4 O3P        -0.0100   -0.8320   -3.0980 o         1 AHM     -0.946833
      5 O1         -0.2150    0.3980   -0.9280 os        1 AHM     -0.582200
      6 C1          0.4910    1.4970   -1.3690 c3        1 AHM      0.222400
      7 C2         -0.4060    2.4720   -2.1630 c3        1 AHM      0.071100
      8 C3         -0.0070    2.6140   -3.6480 c3        1 AHM      0.133100
      9 O3         -0.7610    1.7550   -4.4770 oh        1 AHM     -0.662800
     10 C4         -0.3200    4.0940   -3.9650 c3        1 AHM      0.133100
     11 O4          0.5900    4.6040   -4.9170 oh        1 AHM     -0.662800
     12 C5         -0.1700    4.7940   -2.5970 c3        1 AHM      0.071100
     13 O5         -0.3570    3.7900   -1.5790 os        1 AHM     -0.450600
     14 C6         -1.1540    5.9650   -2.3860 c3        1 AHM      0.222400
     15 O6         -0.4960    7.1720   -2.2780 os        1 AHM     -0.582200
     16 P2         -0.7760    8.2870   -3.5590 p5        1 AHM      1.329900
     17 O4P        -2.2650    8.5280   -3.5080 o         1 AHM     -0.946833
     18 O5P         0.0670    9.4790   -3.1780 o         1 AHM     -0.946833
     19 O6P        -0.2960    7.4930   -4.7530 o         1 AHM     -0.946833
     20 H11         1.3580    1.1730   -2.0120 h1        1 AHM     -0.005300
     21 H12         0.8960    2.0610   -0.4760 h1        1 AHM     -0.005300
     22 H2         -1.4730    2.1250   -2.0920 h1        1 AHM      0.050700
     23 H3          1.0880    2.4120   -3.7980 h1        1 AHM      0.035700
     24 HO3        -0.6090    0.8500   -4.1290 ho        1 AHM      0.477000
     25 H4         -1.3670    4.1890   -4.3600 h1        1 AHM      0.035700
     26 HO4         0.4110    5.5680   -4.9640 ho        1 AHM      0.477000
     27 H5          0.8820    5.1770   -2.4850 h1        1 AHM      0.050700
     28 H61        -1.8900    5.9970   -3.2390 h1        1 AHM     -0.005300
     29 H62        -1.7200    5.7640   -1.4290 h1        1 AHM     -0.005300
@<TRIPOS>BOND
     1    1    2 1   
     2    1    3 1   
     3    1    4 1   
     4    1    5 1   
     5    5    6 1   
     6    6    7 1   
     7    6   20 1   
     8    6   21 1   
     9    7    8 1   
    10    7   13 1   
    11    7   22 1   
    12    8    9 1   
    13    8   10 1   
    14    8   23 1   
    15    9   24 1   
    16   10   11 1   
    17   10   12 1   
    18   10   25 1   
    19   11   26 1   
    20   12   13 1   
    21   12   14 1   
    22   12   27 1   
    23   14   15 1   
    24   14   28 1   
    25   14   29 1   
    26   15   16 1   
    27   16   17 1   
    28   16   18 1   
    29   16   19 1   
@<TRIPOS>SUBSTRUCTURE
     1 AHM         1 TEMP              0 ****  ****    0 ROOT
