@<TRIPOS>MOLECULE
AHM
   29    29     1     0     0
SMALL
bcc


@<TRIPOS>ATOM
      1 P1          0.6240    0.2900   -4.8030 p5        1 AHM      1.329900
      2 O1P         0.5380   -1.1410   -5.2720 o         1 AHM     -0.946833
      3 O2P         0.0110    1.2980   -5.7420 o         1 AHM     -0.946833
      4 O3P         1.9470    0.6830   -4.1840 o         1 AHM     -0.946833
      5 O1         -0.4150    0.3370   -3.4310 os        1 AHM     -0.582200
      6 C1         -0.0680   -0.5020   -2.3940 c3        1 AHM      0.222400
      7 C2          0.3610    0.2880   -1.1380 c3        1 AHM      0.071100
      8 C3          1.8410    0.0810   -0.7490 c3        1 AHM      0.133100
      9 O3          2.6670    1.0970   -1.2740 oh        1 AHM     -0.662800
     10 C4          1.8180    0.1390    0.7960 c3        1 AHM      0.133100
     11 O4          2.8040   -0.7110    1.3420 oh        1 AHM     -0.662800
     12 C5          0.3930   -0.3360    1.1520 c3        1 AHM      0.071100
     13 O5         -0.4380   -0.0990   -0.0020 os        1 AHM     -0.450600
     14 C6         -0.2020    0.3600    2.3960 c3        1 AHM      0.222400
     15 O6         -0.4130   -0.5310    3.4270 os        1 AHM     -0.582200
     16 P2          0.5690   -0.2980    4.8220 p5        1 AHM      1.329900
     17 O4P         0.2120    1.0930    5.2870 o         1 AHM     -0.946833
     18 O5P         0.1290   -1.4030    5.7490 o         1 AHM     -0.946833
     19 O6P         1.9550   -0.4410    4.2340 o         1 AHM     -0.946833
     20 H11         0.7670   -1.1900   -2.7100 h1        1 AHM     -0.005300
     21 H12        -0.9630   -1.1310   -2.1080 h1        1 AHM     -0.005300
     22 H2          0.1680    1.3820   -1.3120 h1        1 AHM      0.050700
     23 H3          2.2170   -0.9210   -1.0910 h1        1 AHM      0.035700
     24 HO3         2.5260    1.0780   -2.2460 ho        1 AHM      0.477000
     25 H4          1.9970    1.1920    1.1440 h1        1 AHM      0.035700
     26 HO4         2.6400   -0.7210    2.3100 ho        1 AHM      0.477000
     27 H5          0.3990   -1.4480    1.3250 h1        1 AHM      0.050700
     28 H61         0.4860    1.1880    2.7300 h1        1 AHM     -0.005300
     29 H62        -1.1900    0.8150    2.0900 h1        1 AHM     -0.005300
@<TRIPOS>BOND
     1    1    2 1   
     2    1    3 1   
     3    1    4 1   
     4    1    5 1   
     5    5    6 1   
     6    6    7 1   
     7    6   20 1   
     8    6   21 1   
     9    7    8 1   
    10    7   13 1   
    11    7   22 1   
    12    8    9 1   
    13    8   10 1   
    14    8   23 1   
    15    9   24 1   
    16   10   11 1   
    17   10   12 1   
    18   10   25 1   
    19   11   26 1   
    20   12   13 1   
    21   12   14 1   
    22   12   27 1   
    23   14   15 1   
    24   14   28 1   
    25   14   29 1   
    26   15   16 1   
    27   16   17 1   
    28   16   18 1   
    29   16   19 1   
@<TRIPOS>SUBSTRUCTURE
     1 AHM         1 TEMP              0 ****  ****    0 ROOT
