@<TRIPOS>MOLECULE
AHM
   29    28     1     0     0
SMALL
bcc


@<TRIPOS>ATOM
      1 P1          1.8210   -2.7950    2.9890 p4        1 AHM      1.701200
      2 O1P         2.0590   -3.8900    1.9780 o         1 AHM     -0.948000
      3 O2P         3.1130   -2.4820    3.7060 os        1 AHM     -1.258000
      4 O3P         0.7870   -3.2510    3.9910 o         1 AHM     -0.996800
      5 O1          1.3010   -1.4970    2.2490 os        1 AHM     -0.581200
      6 C1          0.2060   -1.6190    1.3690 c3        1 AHM      0.221400
      7 C2         -0.5100   -0.3250    1.2910 c3        1 AHM      0.079100
      8 C3         -1.6740   -0.4850    0.6800 c3        1 AHM      0.104100
      9 O3         -2.6610    0.4740    1.2050 oh        1 AHM     -0.676800
     10 C4         -1.3860   -0.1940   -0.8110 c3        1 AHM      0.104100
     11 O4         -1.4030   -1.3210   -1.5110 oh        1 AHM     -0.603800
     12 C5          0.0580    0.4540   -0.8490 c3        1 AHM      0.118100
     13 O5          0.3380    0.7320    0.3860 os        1 AHM     -0.447600
     14 C6          0.0450    1.7220   -1.6840 c3        1 AHM      0.211400
     15 O6          1.3260    2.3090   -1.6660 os        1 AHM     -0.580200
     16 P2          1.6360    3.4710   -2.6930 p5        1 AHM      1.326900
     17 O4P         0.5870    4.5500   -2.5650 o         1 AHM     -0.947833
     18 O5P         1.6210    2.9180   -4.0980 o         1 AHM     -0.947833
     19 O6P         2.9970    4.0540   -2.3970 o         1 AHM     -0.947833
     20 H11         0.5300   -1.8670    0.4790 h1        1 AHM     -0.002300
     21 H12        -0.4040   -2.3110    1.7000 h1        1 AHM     -0.002300
     22 H2         -0.6490    0.0370    2.1890 h1        1 AHM      0.047700
     23 H3         -1.9950   -1.4020    0.7930 h1        1 AHM      0.039700
     24 HO3        -3.3950    0.0370    1.4540 ho        1 AHM      0.489000
     25 H4         -2.0470    0.4350   -1.1660 h1        1 AHM      0.055700
     26 HO4        -2.2030   -1.4230   -1.8890 ho        1 AHM      0.370000
     27 H5          0.7070   -0.1840   -1.2080 h1        1 AHM      0.060700
     28 H61        -0.6080    2.3500   -1.3130 h1        1 AHM      0.005700
     29 H62        -0.2010    1.5020   -2.6070 h1        1 AHM      0.005700
@<TRIPOS>BOND
     1    1    2 1   
     2    1    4 2   
     3    1    5 1   
     4    5    6 1   
     5    6    7 1   
     6    6   20 1   
     7    6   21 1   
     8    7    8 1   
     9    7   13 1   
    10    7   22 1   
    11    8    9 1   
    12    8   10 1   
    13    8   23 1   
    14    9   24 1   
    15   10   11 1   
    16   10   12 1   
    17   10   25 1   
    18   11   26 1   
    19   12   13 1   
    20   12   14 1   
    21   12   27 1   
    22   14   15 1   
    23   14   28 1   
    24   14   29 1   
    25   15   16 1   
    26   16   17 1   
    27   16   18 1   
    28   16   19 1   
@<TRIPOS>SUBSTRUCTURE
     1 AHM         1 TEMP              0 ****  ****    0 ROOT
