@<TRIPOS>MOLECULE
AHM
   29    29     1     0     0
SMALL
bcc


@<TRIPOS>ATOM
      1 P1          0.2010   -1.1060   -1.6170 p5        1 AHM      1.329900
      2 O1P         1.6350   -1.2600   -1.1760 o         1 AHM     -0.946833
      3 O2P        -0.7560   -2.0970   -1.0020 o         1 AHM     -0.946833
      4 O3P         0.0090   -0.8310   -3.0920 o         1 AHM     -0.946833
      5 O1         -0.2830    0.3970   -0.9300 os        1 AHM     -0.582200
      6 C1          0.4380    1.4970   -1.3420 c3        1 AHM      0.222400
      7 C2         -0.4290    2.4710   -2.1700 c3        1 AHM      0.071100
      8 C3          0.0280    2.6150   -3.6380 c3        1 AHM      0.133100
      9 O3         -0.6920    1.7560   -4.4970 oh        1 AHM     -0.662800
     10 C4         -0.2750    4.0950   -3.9660 c3        1 AHM      0.133100
     11 O4          0.6710    4.6070   -4.8810 oh        1 AHM     -0.662800
     12 C5         -0.1800    4.7940   -2.5930 c3        1 AHM      0.071100
     13 O5         -0.4060    3.7880   -1.5840 os        1 AHM     -0.450600
     14 C6         -1.1730    5.9630   -2.4200 c3        1 AHM      0.222400
     15 O6         -0.5220    7.1710   -2.2850 os        1 AHM     -0.582200
     16 P2         -0.7540    8.2870   -3.5750 p5        1 AHM      1.329900
     17 O4P        -2.2440    8.5250   -3.5830 o         1 AHM     -0.946833
     18 O5P         0.0710    9.4790   -3.1600 o         1 AHM     -0.946833
     19 O6P        -0.2260    7.4940   -4.7500 o         1 AHM     -0.946833
     20 H11         1.3290    1.1750   -1.9510 h1        1 AHM     -0.005300
     21 H12         0.8060    2.0610   -0.4340 h1        1 AHM     -0.005300
     22 H2         -1.4980    2.1230   -2.1420 h1        1 AHM      0.050700
     23 H3          1.1280    2.4150   -3.7450 h1        1 AHM      0.035700
     24 HO3        -0.5520    0.8500   -4.1440 ho        1 AHM      0.477000
     25 H4         -1.3060    4.1890   -4.4020 h1        1 AHM      0.035700
     26 HO4         0.4920    5.5710   -4.9350 ho        1 AHM      0.477000
     27 H5          0.8660    5.1780   -2.4390 h1        1 AHM      0.050700
     28 H61        -1.7760    5.7600   -1.4860 h1        1 AHM     -0.005300
     29 H62        -1.8760    5.9940   -3.3010 h1        1 AHM     -0.005300
@<TRIPOS>BOND
     1    1    2 1   
     2    1    3 1   
     3    1    4 1   
     4    1    5 1   
     5    5    6 1   
     6    6    7 1   
     7    6   20 1   
     8    6   21 1   
     9    7    8 1   
    10    7   13 1   
    11    7   22 1   
    12    8    9 1   
    13    8   10 1   
    14    8   23 1   
    15    9   24 1   
    16   10   11 1   
    17   10   12 1   
    18   10   25 1   
    19   11   26 1   
    20   12   13 1   
    21   12   14 1   
    22   12   27 1   
    23   14   15 1   
    24   14   28 1   
    25   14   29 1   
    26   15   16 1   
    27   16   17 1   
    28   16   18 1   
    29   16   19 1   
@<TRIPOS>SUBSTRUCTURE
     1 AHM         1 TEMP              0 ****  ****    0 ROOT
