@<TRIPOS>MOLECULE
AHN
   23    23     1     0     0
SMALL
bcc


@<TRIPOS>ATOM
      1 C          -0.1640   -0.5900    0.1730 c         1 AHN      0.555100
      2 O           0.3450   -1.6070    0.6150 o         1 AHN     -0.396100
      3 CT         -0.0850    0.8010    0.6960 c3        1 AHN     -0.186100
      4 N          -1.0000   -0.7870   -1.0800 n4        1 AHN     -0.689800
      5 CA         -0.2480   -0.3620   -2.3020 c3        1 AHN      0.108800
      6 CB         -1.0550   -0.5670   -3.5850 c3        1 AHN     -0.098700
      7 CG         -0.2730   -0.0850   -4.7400 cc        1 AHN      0.235600
      8 CD2        -0.2050   -0.6900   -6.0140 cd        1 AHN     -0.199600
      9 ND1         0.4830    1.0980   -4.7350 nc        1 AHN     -0.686000
     10 CE1         0.9960    1.2070   -5.9770 cd        1 AHN      0.423400
     11 NE2         0.5990    0.1370   -6.7890 na        1 AHN     -0.302900
     12 HT1         0.5590    0.7990    1.6170 hc        1 AHN      0.116700
     13 HT2        -1.1020    1.1820    0.9720 hc        1 AHN      0.116700
     14 HT3         0.3730    1.4880   -0.0610 hc        1 AHN      0.116700
     15 HN         -1.2510   -1.7800   -1.1700 hn        1 AHN      0.456300
     16 HA1         0.0150    0.7290   -2.1800 hx        1 AHN      0.120700
     17 HA2         0.7050   -0.9640   -2.3480 hx        1 AHN      0.120700
     18 HB1        -1.2980   -1.6540   -3.7280 hc        1 AHN      0.067700
     19 HB2        -2.0230    0.0040   -3.5290 hc        1 AHN      0.067700
     20 HD2        -0.6570   -1.6040   -6.3990 h4        1 AHN      0.193000
     21 HE1         1.6420    2.0190   -6.3340 h5        1 AHN      0.082100
     22 HE2         0.8360   -0.0040   -7.7380 hn        1 AHN      0.322700
     23 H2         -1.8630   -0.2390   -1.0070 hn        1 AHN      0.456300
@<TRIPOS>BOND
     1    1    2 2   
     2    1    3 1   
     3    1    4 1   
     4    3   12 1   
     5    3   13 1   
     6    3   14 1   
     7    4    5 1   
     8    4   15 1   
     9    4   23 1   
    10    5    6 1   
    11    5   16 1   
    12    5   17 1   
    13    6    7 1   
    14    6   18 1   
    15    6   19 1   
    16    7    8 2   
    17    7    9 1   
    18    8   11 1   
    19    8   20 1   
    20    9   10 2   
    21   10   11 1   
    22   10   21 1   
    23   11   22 1   
@<TRIPOS>SUBSTRUCTURE
     1 AHN         1 TEMP              0 ****  ****    0 ROOT
