@<TRIPOS>MOLECULE
AHN
   22    18     1     0     0
SMALL
bcc


@<TRIPOS>ATOM
      1 C           0.1120   -0.3140    2.8990 c1        1 AHN      0.295000
      2 O           1.3060   -0.5350    2.9010 o         1 AHN     -0.371000
      3 CT         -0.6050   -0.0120    4.1960 c2        1 AHN     -0.244000
      4 N          -0.6140   -0.3520    1.6800 n3        1 AHN     -0.379000
      5 CA         -0.0540    0.2130    0.5010 c3        1 AHN     -0.028000
      6 CB         -0.1330   -0.7920   -0.6270 c3        1 AHN     -0.106000
      7 CG          0.0720   -0.0850   -1.9480 c2        1 AHN     -0.125000
      8 CD2         1.1180   -0.2770   -2.8090 c1        1 AHN     -0.156000
      9 ND1        -0.7570    0.8050   -2.4990 n2        1 AHN     -0.139000
     10 CE1        -0.2410    1.1730   -3.6970 c1        1 AHN     -0.102000
     11 NE2         0.9190    0.4970   -3.8790 n2        1 AHN     -0.208000
     12 HT1        -1.5180   -0.3670    4.1560 ha        1 AHN      0.103667
     13 HT2        -0.6380    0.9580    4.3340 ha        1 AHN      0.103667
     14 HT3        -0.1240   -0.4320    4.9400 ha        1 AHN      0.103667
     15 HN         -1.4340   -0.7510    1.6490 hn        1 AHN      0.216000
     16 HA1        -0.5540    1.0190    0.2560 h1        1 AHN      0.110000
     17 HA2         0.8830    0.4470    0.6650 h1        1 AHN      0.110000
     18 HB1         0.5620   -1.4700   -0.5080 hc        1 AHN      0.092500
     19 HB2        -1.0120   -1.2220   -0.6190 hc        1 AHN      0.092500
     20 HD2         1.8770   -0.8760   -2.6670 DU        1 AHN      0.209667
     21 HE1        -0.6360    1.8130   -4.3190 DU        1 AHN      0.209667
     22 HE2         1.4680    0.5600   -4.6050 DU        1 AHN      0.209667
@<TRIPOS>BOND
     1    1    2 1   
     2    1    4 1   
     3    3   12 1   
     4    3   13 1   
     5    3   14 1   
     6    4    5 1   
     7    4   15 1   
     8    5    6 1   
     9    5   16 1   
    10    5   17 1   
    11    6    7 1   
    12    6   18 1   
    13    6   19 1   
    14    7    8 1   
    15    7    9 1   
    16    8   11 1   
    17    9   10 1   
    18   10   11 1   
@<TRIPOS>SUBSTRUCTURE
     1 AHN         1 TEMP              0 ****  ****    0 ROOT
