@<TRIPOS>MOLECULE
AHN
   23    23     1     0     0
SMALL
bcc


@<TRIPOS>ATOM
      1 C          -0.0940   -0.5280    0.1820 c         1 AHN      0.555100
      2 O           0.4460   -1.5230    0.6360 o         1 AHN     -0.396100
      3 CT         -0.0380    0.8760    0.6740 c3        1 AHN     -0.186100
      4 N          -0.9480   -0.7710   -1.0510 ny        1 AHN     -0.689800
      5 CA         -0.2300   -0.3520   -2.2950 c3        1 AHN      0.108800
      6 CB         -1.0560   -0.6030   -3.5580 c3        1 AHN     -0.098700
      7 CG         -0.3090   -0.1250   -4.7370 cc        1 AHN      0.235600
      8 CD2        -0.2480   -0.7530   -6.0000 cd        1 AHN     -0.199600
      9 ND1         0.4160    1.0770   -4.7700 nc        1 AHN     -0.686000
     10 CE1         0.9020    1.1740   -6.0230 cd        1 AHN      0.423400
     11 NE2         0.5180    0.0780   -6.8070 na        1 AHN     -0.302900
     12 HT1         0.6170    0.9070    1.5860 hc        1 AHN      0.116700
     13 HT2        -1.0590    1.2430    0.9530 hc        1 AHN      0.116700
     14 HT3         0.3970    1.5550   -0.1040 hc        1 AHN      0.116700
     15 HN         -1.1750   -1.7720   -1.1170 hn        1 AHN      0.456300
     16 HA1         0.7370   -0.9310   -2.3470 hx        1 AHN      0.120200
     17 HA2         0.0060    0.7480   -2.2000 hx        1 AHN      0.120200
     18 HB1        -2.0370   -0.0570   -3.4940 hc        1 AHN      0.067700
     19 HB2        -1.2730   -1.6990   -3.6750 hc        1 AHN      0.067700
     20 HD2        -0.6830   -1.6870   -6.3580 h4        1 AHN      0.193000
     21 HE1         1.5200    1.9950   -6.4090 h5        1 AHN      0.082100
     22 HE2         0.7420   -0.0750   -7.7570 hn        1 AHN      0.322700
     23 H2         -1.8230   -0.2440   -0.9720 hn        1 AHN      0.456300
@<TRIPOS>BOND
     1    1    2 2   
     2    1    3 1   
     3    1    4 1   
     4    3   12 1   
     5    3   13 1   
     6    3   14 1   
     7    4    5 1   
     8    4   15 1   
     9    4   23 1   
    10    5    6 1   
    11    5   16 1   
    12    5   17 1   
    13    6    7 1   
    14    6   18 1   
    15    6   19 1   
    16    7    8 2   
    17    7    9 1   
    18    8   11 1   
    19    8   20 1   
    20    9   10 2   
    21   10   11 1   
    22   10   21 1   
    23   11   22 1   
@<TRIPOS>SUBSTRUCTURE
     1 AHN         1 TEMP              0 ****  ****    0 ROOT
