@<TRIPOS>MOLECULE
AHN
   22    22     1     0     0
SMALL
bcc


@<TRIPOS>ATOM
      1 C           2.9910   -0.1710   -0.3880 c         1 AHN      0.651100
      2 O           2.7080    0.1300   -1.5650 o         1 AHN     -0.610100
      3 CT          4.3730   -0.6510   -0.0110 c3        1 AHN     -0.176100
      4 N           2.0690   -0.0360    0.6330 n         1 AHN     -0.569900
      5 CA          0.6970    0.3180    0.3970 c3        1 AHN      0.088000
      6 CB         -0.2610   -0.8790    0.3140 c3        1 AHN     -0.121700
      7 CG         -1.6520   -0.4120    0.1430 cc        1 AHN      0.297600
      8 CD2        -2.4270   -0.5160   -1.0320 cd        1 AHN     -0.245600
      9 ND1        -2.4090    0.2040    1.1510 nc        1 AHN     -0.665000
     10 CE1        -3.6110    0.4660    0.5990 cd        1 AHN      0.386400
     11 NE2        -3.6680    0.0420   -0.7340 na        1 AHN     -0.321900
     12 HT1         5.0020   -0.6920   -0.9330 hc        1 AHN      0.064367
     13 HT2         4.8440    0.0490    0.7190 hc        1 AHN      0.064367
     14 HT3         4.3240   -1.6710    0.4400 hc        1 AHN      0.064367
     15 HN          2.2870   -0.4210    1.5200 hn        1 AHN      0.302500
     16 HA1         0.3640    0.9900    1.2390 h1        1 AHN      0.070700
     17 HA2         0.6380    0.8980   -0.5680 h1        1 AHN      0.070700
     18 HB1         0.0160   -1.5290   -0.5580 hc        1 AHN      0.053200
     19 HB2        -0.1820   -1.5020    1.2450 hc        1 AHN      0.053200
     20 HD2        -2.1840   -0.9280   -2.0100 h4        1 AHN      0.181000
     21 HE1        -4.4540    0.9470    1.1050 h5        1 AHN      0.060100
     22 HE2        -4.4320    0.1240   -1.3480 hn        1 AHN      0.300700
@<TRIPOS>BOND
     1    1    2 2   
     2    1    3 1   
     3    1    4 1   
     4    3   12 1   
     5    3   13 1   
     6    3   14 1   
     7    4    5 1   
     8    4   15 1   
     9    5    6 1   
    10    5   16 1   
    11    5   17 1   
    12    6    7 1   
    13    6   18 1   
    14    6   19 1   
    15    7    8 2   
    16    7    9 1   
    17    8   11 1   
    18    8   20 1   
    19    9   10 2   
    20   10   11 1   
    21   10   21 1   
    22   11   22 1   
@<TRIPOS>SUBSTRUCTURE
     1 AHN         1 TEMP              0 ****  ****    0 ROOT
