@<TRIPOS>MOLECULE
AHN
   23    23     1     0     0
SMALL
bcc


@<TRIPOS>ATOM
      1 C          -0.1930   -0.5470    0.1820 c         1 AHN      0.555100
      2 O           0.2740   -1.5740    0.6440 o         1 AHN     -0.396100
      3 CT         -0.0630    0.8490    0.6800 c3        1 AHN     -0.186100
      4 N          -1.0310   -0.7340   -1.0730 n4        1 AHN     -0.689800
      5 CA         -0.2610   -0.3520   -2.2970 c3        1 AHN      0.108800
      6 CB         -1.0700   -0.5490   -3.5800 c3        1 AHN     -0.098700
      7 CG         -0.2690   -0.1110   -4.7390 cc        1 AHN      0.235600
      8 CD2        -0.2160   -0.7360   -6.0040 cd        1 AHN     -0.199600
      9 ND1         0.5270    1.0460   -4.7480 nc        1 AHN     -0.686000
     10 CE1         1.0470    1.1200   -5.9890 cd        1 AHN      0.423400
     11 NE2         0.6170    0.0520   -6.7880 na        1 AHN     -0.302900
     12 HT1         0.5660    0.8370    1.6110 hc        1 AHN      0.116700
     13 HT2        -1.0660    1.2800    0.9310 hc        1 AHN      0.116700
     14 HT3         0.4370    1.5000   -0.0820 hc        1 AHN      0.116700
     15 HN         -1.3150   -1.7190   -1.1490 hn        1 AHN      0.456300
     16 HA1         0.6710   -0.9870   -2.3300 hx        1 AHN      0.120200
     17 HA2         0.0370    0.7310   -2.1900 hx        1 AHN      0.120200
     18 HB1        -2.0190    0.0540   -3.5360 hc        1 AHN      0.067700
     19 HB2        -1.3490   -1.6290   -3.7090 hc        1 AHN      0.067700
     20 HD2        -0.6970   -1.6400   -6.3770 h4        1 AHN      0.193000
     21 HE1         1.7210    1.9050   -6.3550 h5        1 AHN      0.082100
     22 HE2         0.8530   -0.1100   -7.7340 hn        1 AHN      0.322700
     23 H2         -1.8750   -0.1570   -1.0100 hn        1 AHN      0.456300
@<TRIPOS>BOND
     1    1    2 2   
     2    1    3 1   
     3    1    4 1   
     4    3   12 1   
     5    3   13 1   
     6    3   14 1   
     7    4    5 1   
     8    4   15 1   
     9    4   23 1   
    10    5    6 1   
    11    5   16 1   
    12    5   17 1   
    13    6    7 1   
    14    6   18 1   
    15    6   19 1   
    16    7    8 2   
    17    7    9 1   
    18    8   11 1   
    19    8   20 1   
    20    9   10 2   
    21   10   11 1   
    22   10   21 1   
    23   11   22 1   
@<TRIPOS>SUBSTRUCTURE
     1 AHN         1 TEMP              0 ****  ****    0 ROOT
