@<TRIPOS>MOLECULE
AHO
   26    23     1     0     0
SMALL
bcc


@<TRIPOS>ATOM
      1 C1         -3.0600    1.5020   -1.9120 c1        1 AHO      0.307000
      2 C2         -1.6360    1.0500   -2.0600 c2        1 AHO     -0.128000
      3 C3         -0.8860    1.3030   -0.7610 c3        1 AHO     -0.142000
      4 C4         -0.2790   -0.0120   -0.2520 c3        1 AHO     -0.176000
      5 C5          0.5940    0.2700    0.9750 c3        1 AHO     -0.081000
      6 C6          2.4160   -1.2630    1.7100 c1        1 AHO      0.279000
      7 C7          2.8650   -2.4800    2.4940 c2        1 AHO     -0.236000
      8 N1         -1.0130    1.7800   -3.1180 n3        1 AHO     -0.325000
      9 N2          1.0220   -0.9830    1.5630 n3        1 AHO     -0.177000
     10 O1         -3.3120    2.6980   -1.6240 o         1 AHO     -0.578500
     11 O2          0.0890   -1.8580    2.0670 oh        1 AHO     -0.250000
     12 O3          3.2380   -0.5140    1.2320 o         1 AHO     -0.336000
     13 OXT        -3.9990    0.6710   -2.0260 o         1 AHO     -0.578500
     14 HC21       -1.6160    0.0960   -2.2670 h4        1 AHO      0.080000
     15 HC31       -0.1710    1.9520   -0.9200 hc        1 AHO      0.088000
     16 HC32       -1.5060    1.6580   -0.0890 hc        1 AHO      0.088000
     17 HC41       -0.9960   -0.6280   -0.0060 hc        1 AHO      0.088000
     18 HC42        0.2670   -0.4120   -0.9550 hc        1 AHO      0.088000
     19 HC51        1.3850    0.7910    0.7020 h1        1 AHO      0.106500
     20 HC52        0.0780    0.7790    1.6330 h1        1 AHO      0.106500
     21 HC71        3.8370   -2.5880    2.4030 ha        1 AHO      0.103000
     22 HC72        2.6370   -2.3610    3.4370 ha        1 AHO      0.103000
     23 HC73        2.4140   -3.2760    2.1480 ha        1 AHO      0.103000
     24 HN11       -0.5670    1.1990   -3.6700 hn        1 AHO      0.126500
     25 HN12       -1.6560    2.2290   -3.6010 hn        1 AHO      0.126500
     26 HO21       -0.1440   -1.6020    2.8960 ho        1 AHO      0.215000
@<TRIPOS>BOND
     1    1   10 1   
     2    1   13 1   
     3    2    3 1   
     4    2    8 1   
     5    2   14 1   
     6    3    4 1   
     7    3   15 1   
     8    3   16 1   
     9    4    5 1   
    10    4   17 1   
    11    4   18 1   
    12    5    9 1   
    13    5   19 1   
    14    5   20 1   
    15    6    9 1   
    16    6   12 1   
    17    7   21 1   
    18    7   22 1   
    19    7   23 1   
    20    8   24 1   
    21    8   25 1   
    22    9   11 1   
    23   11   26 1   
@<TRIPOS>SUBSTRUCTURE
     1 AHO         1 TEMP              0 ****  ****    0 ROOT
