@<TRIPOS>MOLECULE
AHO
   26    25     1     0     0
SMALL
bcc


@<TRIPOS>ATOM
      1 C1         -0.3530   -0.0700   -3.5120 c         1 AHO      0.887600
      2 C2          0.1230   -0.6310   -2.1290 c3        1 AHO      0.019500
      3 C3         -0.1730    0.4220   -1.0600 c3        1 AHO     -0.063400
      4 C4         -0.0900   -0.1450    0.3400 c3        1 AHO     -0.097400
      5 C5         -0.5390    0.9020    1.3540 c3        1 AHO      0.035000
      6 C6          0.4560    0.3810    3.5580 c         1 AHO      0.635100
      7 C7          0.5170   -0.6690    4.6340 c3        1 AHO     -0.168100
      8 N1          1.5020   -1.1010   -2.1100 n3        1 AHO     -0.892800
      9 N2         -0.7190    0.4450    2.7400 n         1 AHO     -0.287300
     10 O1          0.4500   -0.1290   -4.4860 o         1 AHO     -0.843800
     11 O2         -1.4420   -0.6820    2.8250 oh        1 AHO     -0.445100
     12 O3          1.3390    1.2460    3.4390 o         1 AHO     -0.575100
     13 OXT        -1.5270    0.3890   -3.5800 o         1 AHO     -0.843800
     14 HC21       -0.5220   -1.5340   -1.9210 h1        1 AHO      0.040700
     15 HC31       -1.2090    0.8080   -1.2610 hc        1 AHO      0.048700
     16 HC32        0.5340    1.2860   -1.1610 hc        1 AHO      0.048700
     17 HC41        0.9600   -0.4670    0.5640 hc        1 AHO      0.048700
     18 HC42       -0.7430   -1.0540    0.4170 hc        1 AHO      0.048700
     19 HC51       -1.5400    1.3120    1.0400 h1        1 AHO      0.067200
     20 HC52        0.2030    1.7470    1.3850 h1        1 AHO      0.067200
     21 HC71        1.4510   -0.5370    5.2290 hc        1 AHO      0.063700
     22 HC72       -0.3700   -0.5850    5.3070 hc        1 AHO      0.063700
     23 HC73        0.5100   -1.6840    4.1650 hc        1 AHO      0.063700
     24 HN11        1.6620   -1.5850   -2.9800 hn        1 AHO      0.331300
     25 HN12        2.1120   -0.3030   -2.1190 hn        1 AHO      0.331300
     26 HO21       -2.3660   -0.3760    2.9010 ho        1 AHO      0.416000
@<TRIPOS>BOND
     1    1    2 1   
     2    1   10 1   
     3    1   13 1   
     4    2    3 1   
     5    2    8 1   
     6    2   14 1   
     7    3    4 1   
     8    3   15 1   
     9    3   16 1   
    10    4    5 1   
    11    4   17 1   
    12    4   18 1   
    13    5    9 1   
    14    5   19 1   
    15    5   20 1   
    16    6    7 1   
    17    6    9 1   
    18    6   12 2   
    19    7   21 1   
    20    7   22 1   
    21    7   23 1   
    22    8   24 1   
    23    8   25 1   
    24    9   11 1   
    25   11   26 1   
@<TRIPOS>SUBSTRUCTURE
     1 AHO         1 TEMP              0 ****  ****    0 ROOT
