@<TRIPOS>MOLECULE
AHP
   24    23     1     0     0
SMALL
bcc


@<TRIPOS>ATOM
      1 N           1.9030   -0.1240   -1.3710 n3        1 AHP     -0.891800
      2 CA          0.4710   -0.3800   -1.2730 c3        1 AHP      0.018500
      3 C          -0.3500    0.0590   -2.5320 c         1 AHP      0.887600
      4 O           0.2770    0.5770   -3.5010 o         1 AHP     -0.845800
      5 OXT        -1.5950   -0.1490   -2.5190 o         1 AHP     -0.845800
      6 CB         -0.1760    0.2510   -0.0400 c3        1 AHP     -0.063400
      7 CG          0.3310   -0.3490    1.2530 c3        1 AHP     -0.075400
      8 CD         -0.3940    0.2300    2.4500 c3        1 AHP     -0.080400
      9 CE          0.1090   -0.3670    3.7470 c3        1 AHP     -0.080400
     10 CZ         -0.6080    0.2070    4.9410 c3        1 AHP     -0.089100
     11 H           2.0580    0.8630   -1.2580 hn        1 AHP      0.329300
     12 H2          2.1800   -0.3440   -2.3140 hn        1 AHP      0.329300
     13 HA          0.3550   -1.5010   -1.1960 h1        1 AHP      0.040700
     14 HB2        -1.2840    0.0880   -0.1300 hc        1 AHP      0.045200
     15 HB3         0.0010    1.3580   -0.0360 hc        1 AHP      0.045200
     16 HG2         1.4320   -0.1620    1.3550 hc        1 AHP      0.035200
     17 HG3         0.1870   -1.4620    1.2310 hc        1 AHP      0.035200
     18 HD2        -1.4950    0.0400    2.3500 hc        1 AHP      0.034200
     19 HD3        -0.2530    1.3430    2.4710 hc        1 AHP      0.034200
     20 HE2         1.2110   -0.1780    3.8420 hc        1 AHP      0.033700
     21 HE3        -0.0320   -1.4800    3.7230 hc        1 AHP      0.033700
     22 HZ1        -0.2240   -0.2470    5.8860 hc        1 AHP      0.024033
     23 HZ2        -0.4590    1.3130    4.9950 hc        1 AHP      0.024033
     24 HZ3        -1.7050    0.0070    4.8750 hc        1 AHP      0.024033
@<TRIPOS>BOND
     1    1    2 1   
     2    1   11 1   
     3    1   12 1   
     4    2    3 1   
     5    2    6 1   
     6    2   13 1   
     7    3    4 1   
     8    3    5 1   
     9    6    7 1   
    10    6   14 1   
    11    6   15 1   
    12    7    8 1   
    13    7   16 1   
    14    7   17 1   
    15    8    9 1   
    16    8   18 1   
    17    8   19 1   
    18    9   10 1   
    19    9   20 1   
    20    9   21 1   
    21   10   22 1   
    22   10   23 1   
    23   10   24 1   
@<TRIPOS>SUBSTRUCTURE
     1 AHP         1 TEMP              0 ****  ****    0 ROOT
