@<TRIPOS>MOLECULE
AHQ
   35    37     1     0     0
SMALL
bcc


@<TRIPOS>ATOM
      1 O5         -0.0310    0.3380    0.0530 oh        1 AHQ     -0.550100
      2 C5          1.3460    0.1300   -0.0050 ca        1 AHQ     -0.129900
      3 C4          2.0180    0.0360    1.2310 ca        1 AHQ      0.145100
      4 O4          1.3250    0.1580    2.4250 oh        1 AHQ     -0.531100
      5 C3A         3.3800   -0.1740    1.2500 ca        1 AHQ     -0.213300
      6 C3          4.3260   -0.3680    2.3860 c3        1 AHQ     -0.009100
      7 C2          5.7120   -0.4990    1.6850 c3        1 AHQ      0.088500
      8 C2X         6.5520   -1.6490    2.3090 c         1 AHQ      0.920600
      9 O2B         7.7930   -1.4390    2.4580 o         1 AHQ     -0.861800
     10 O2A         5.9850   -2.6990    2.7250 o         1 AHQ     -0.861800
     11 N1          5.4300   -0.6350    0.2460 nh        1 AHQ     -0.701600
     12 C1A         4.1040   -0.2670    0.0090 ca        1 AHQ      0.210600
     13 C9A         3.4630   -0.0620   -1.2290 ca        1 AHQ     -0.150300
     14 C6A         2.0440    0.0380   -1.2380 ca        1 AHQ      0.175600
     15 N6          1.2840   -0.0910   -2.4150 nh        1 AHQ     -0.709600
     16 C7          2.0140   -0.3070   -3.6550 c3        1 AHQ      0.068500
     17 C7X         1.1660    0.0600   -4.9100 c         1 AHQ      0.913600
     18 O7B         1.4040   -0.5740   -5.9790 o         1 AHQ     -0.867800
     19 O7A         0.2620    0.9450   -4.8260 o         1 AHQ     -0.867800
     20 C8          3.3610    0.4130   -3.6930 c3        1 AHQ     -0.074400
     21 C9          4.2370    0.0490   -2.5010 c3        1 AHQ     -0.120400
     22 C9X         5.3910    1.0840   -2.4030 c         1 AHQ      0.912600
     23 O9B         5.1600    2.3170   -2.5610 o         1 AHQ     -0.859800
     24 O9A         6.5640    0.6370   -2.2050 o         1 AHQ     -0.859800
     25 HO5        -0.4270   -0.3850   -0.4540 ho        1 AHQ      0.394000
     26 HO4         0.3930    0.2710    2.1890 ho        1 AHQ      0.402000
     27 H3          4.0960   -1.3050    2.9530 hc        1 AHQ      0.038700
     28 H3A         4.3120    0.4950    3.0950 hc        1 AHQ      0.038700
     29 H2          6.3000    0.4500    1.8560 h1        1 AHQ      0.018700
     30 HN1         6.1300   -0.3170   -0.3980 hn        1 AHQ      0.462800
     31 HN6         0.6010    0.6390   -2.5150 hn        1 AHQ      0.397800
     32 H7          2.2120   -1.4190   -3.7100 h1        1 AHQ      0.038700
     33 H8          3.8870    0.1350   -4.6410 hc        1 AHQ      0.051700
     34 H8A         3.2010    1.5240   -3.7060 hc        1 AHQ      0.051700
     35 H9          4.7170   -0.9530   -2.6920 hc        1 AHQ      0.041700
@<TRIPOS>BOND
     1    1    2 1   
     2    1   25 1   
     3    2    3 ar  
     4    2   14 ar  
     5    3    4 1   
     6    3    5 ar  
     7    4   26 1   
     8    5    6 1   
     9    5   12 ar  
    10    6    7 1   
    11    6   27 1   
    12    6   28 1   
    13    7    8 1   
    14    7   11 1   
    15    7   29 1   
    16    8    9 1   
    17    8   10 1   
    18   11   12 1   
    19   11   30 1   
    20   12   13 ar  
    21   13   14 ar  
    22   13   21 1   
    23   14   15 1   
    24   15   16 1   
    25   15   31 1   
    26   16   17 1   
    27   16   20 1   
    28   16   32 1   
    29   17   18 1   
    30   17   19 1   
    31   20   21 1   
    32   20   33 1   
    33   20   34 1   
    34   21   22 1   
    35   21   35 1   
    36   22   23 1   
    37   22   24 1   
@<TRIPOS>SUBSTRUCTURE
     1 AHQ         1 TEMP              0 ****  ****    0 ROOT
