@<TRIPOS>MOLECULE
AHQ
   35    37     1     0     0
SMALL
bcc


@<TRIPOS>ATOM
      1 O5         -0.1090    0.0630   -0.0260 oh        1 AHQ     -0.520100
      2 C5          1.2700   -0.1000   -0.0400 ca        1 AHQ     -0.074900
      3 C4          1.9410   -0.2060    1.1900 ca        1 AHQ      0.146100
      4 O4          1.1810   -0.1880    2.3500 oh        1 AHQ     -0.526100
      5 C3A         3.3180   -0.3300    1.2120 ca        1 AHQ     -0.281300
      6 C3          4.2530   -0.4960    2.3620 c3        1 AHQ     -0.022100
      7 C2          5.6540   -0.5510    1.6810 c3        1 AHQ      0.095500
      8 C2X         6.5420   -1.6740    2.2860 c         1 AHQ      0.920600
      9 O2B         7.7960   -1.5540    2.1770 o         1 AHQ     -0.861800
     10 O2A         6.0030   -2.6110    2.9480 o         1 AHQ     -0.861800
     11 N1          5.4030   -0.6610    0.2340 nh        1 AHQ     -0.701600
     12 C1A         4.0630   -0.3480   -0.0130 ca        1 AHQ      0.216600
     13 C9A         3.4190   -0.1380   -1.2490 ca        1 AHQ     -0.149300
     14 C6A         1.9980   -0.1190   -1.2660 ca        1 AHQ      0.172600
     15 N6          1.2620   -0.2600   -2.4560 nh        1 AHQ     -0.708600
     16 C7          2.0120   -0.3740   -3.6970 c3        1 AHQ      0.069500
     17 C7X         1.1530   -0.0090   -4.9450 c         1 AHQ      0.913600
     18 O7B         1.4470   -0.5770   -6.0390 o         1 AHQ     -0.867300
     19 O7A         0.1900    0.8070   -4.8350 o         1 AHQ     -0.867300
     20 C8          3.3120    0.4280   -3.6910 c3        1 AHQ     -0.074400
     21 C9          4.1970    0.0640   -2.5070 c3        1 AHQ     -0.120400
     22 C9X         5.2930    1.1540   -2.3540 c         1 AHQ      0.911600
     23 O9B         5.0000    2.3780   -2.4730 o         1 AHQ     -0.859800
     24 O9A         6.4850    0.7630   -2.1510 o         1 AHQ     -0.859800
     25 HO5        -0.4660   -0.7260   -0.4590 ho        1 AHQ      0.382000
     26 HO4         1.8060   -0.3130    3.0790 ho        1 AHQ      0.397000
     27 H3          4.0660   -1.4500    2.9180 hc        1 AHQ      0.032700
     28 H3A         4.1910    0.3570    3.0800 hc        1 AHQ      0.032700
     29 H2          6.1970    0.4180    1.8900 h1        1 AHQ      0.016700
     30 HN1         6.0970   -0.2860   -0.3860 hn        1 AHQ      0.463800
     31 HN6         0.5130    0.4060   -2.5330 hn        1 AHQ      0.401800
     32 H7          2.2800   -1.4690   -3.7970 h1        1 AHQ      0.037700
     33 H8          3.0850    1.5270   -3.6570 hc        1 AHQ      0.052200
     34 H8A         3.8600    0.2250   -4.6460 hc        1 AHQ      0.052200
     35 H9          4.7320   -0.9020   -2.7340 hc        1 AHQ      0.040700
@<TRIPOS>BOND
     1    1    2 1   
     2    1   25 1   
     3    2    3 ar  
     4    2   14 ar  
     5    3    4 1   
     6    3    5 ar  
     7    4   26 1   
     8    5    6 1   
     9    5   12 ar  
    10    6    7 1   
    11    6   27 1   
    12    6   28 1   
    13    7    8 1   
    14    7   11 1   
    15    7   29 1   
    16    8    9 1   
    17    8   10 1   
    18   11   12 1   
    19   11   30 1   
    20   12   13 ar  
    21   13   14 ar  
    22   13   21 1   
    23   14   15 1   
    24   15   16 1   
    25   15   31 1   
    26   16   17 1   
    27   16   20 1   
    28   16   32 1   
    29   17   18 1   
    30   17   19 1   
    31   20   21 1   
    32   20   33 1   
    33   20   34 1   
    34   21   22 1   
    35   21   35 1   
    36   22   23 1   
    37   22   24 1   
@<TRIPOS>SUBSTRUCTURE
     1 AHQ         1 TEMP              0 ****  ****    0 ROOT
