@<TRIPOS>MOLECULE
AHQ
   35    37     1     0     0
SMALL
bcc


@<TRIPOS>ATOM
      1 O5          0.9850    3.5300    0.3200 oh        1 AHQ     -0.545100
      2 C5          0.3000    2.3160    0.2790 ca        1 AHQ     -0.171900
      3 C4         -1.1070    2.3730    0.3620 ca        1 AHQ      0.155100
      4 O4         -1.7530    3.5850    0.5480 oh        1 AHQ     -0.532100
      5 C3A        -1.8420    1.2150    0.2430 ca        1 AHQ     -0.225300
      6 C3         -3.3150    0.9850    0.2240 c3        1 AHQ     -0.007100
      7 C2         -3.4380   -0.5660    0.1330 c3        1 AHQ      0.088500
      8 C2X        -4.5420   -0.9850   -0.8770 c         1 AHQ      0.920600
      9 O2B        -5.2860   -1.9570   -0.5460 o         1 AHQ     -0.861800
     10 O2A        -4.7310   -0.3130   -1.9320 o         1 AHQ     -0.861800
     11 N1         -2.0870   -1.0650   -0.1660 nh        1 AHQ     -0.702600
     12 C1A        -1.1630   -0.0470    0.0790 ca        1 AHQ      0.218600
     13 C9A         0.2410   -0.1370    0.1050 ca        1 AHQ     -0.163300
     14 C6A         0.9830    1.0820    0.1220 ca        1 AHQ      0.210600
     15 N6          2.3750    1.0710    0.0580 nh        1 AHQ     -0.713600
     16 C7          2.9800   -0.1140   -0.5290 c3        1 AHQ      0.094500
     17 C7X         4.5320   -0.0190   -0.5870 c         1 AHQ      0.914600
     18 O7B         5.2070   -1.0880   -0.6120 o         1 AHQ     -0.868300
     19 O7A         5.0710    1.1260   -0.6980 o         1 AHQ     -0.868300
     20 C8          2.4560   -1.3590    0.1840 c3        1 AHQ     -0.050400
     21 C9          0.9360   -1.4600    0.1060 c3        1 AHQ     -0.117400
     22 C9X         0.4340   -2.3800    1.2530 c         1 AHQ      0.912600
     23 O9B         0.8990   -2.2640    2.4220 o         1 AHQ     -0.861800
     24 O9A        -0.4260   -3.2680    0.9570 o         1 AHQ     -0.861800
     25 HO5         1.5160    3.4960    1.1280 ho        1 AHQ      0.385000
     26 HO4        -1.0660    4.2660    0.5180 ho        1 AHQ      0.401000
     27 H3         -3.8120    1.3750    1.1440 hc        1 AHQ      0.037200
     28 H3A        -3.7910    1.4580   -0.6720 hc        1 AHQ      0.037200
     29 H2         -3.7630   -0.9660    1.1390 h1        1 AHQ      0.017700
     30 HN1        -1.8540   -1.9950    0.1320 hn        1 AHQ      0.464800
     31 HN6         2.8050    1.9220   -0.2370 hn        1 AHQ      0.405800
     32 H7          2.6660   -0.1930   -1.6190 h1        1 AHQ      0.001700
     33 H8          2.9250   -2.2570   -0.2920 hc        1 AHQ      0.055700
     34 H8A         2.7730   -1.3460    1.2600 hc        1 AHQ      0.055700
     35 H9          0.6600   -1.9770   -0.8590 hc        1 AHQ      0.036700
@<TRIPOS>BOND
     1    1    2 1   
     2    1   25 1   
     3    2    3 ar  
     4    2   14 ar  
     5    3    4 1   
     6    3    5 ar  
     7    4   26 1   
     8    5    6 1   
     9    5   12 ar  
    10    6    7 1   
    11    6   27 1   
    12    6   28 1   
    13    7    8 1   
    14    7   11 1   
    15    7   29 1   
    16    8    9 1   
    17    8   10 1   
    18   11   12 1   
    19   11   30 1   
    20   12   13 ar  
    21   13   14 ar  
    22   13   21 1   
    23   14   15 1   
    24   15   16 1   
    25   15   31 1   
    26   16   17 1   
    27   16   20 1   
    28   16   32 1   
    29   17   18 1   
    30   17   19 1   
    31   20   21 1   
    32   20   33 1   
    33   20   34 1   
    34   21   22 1   
    35   21   35 1   
    36   22   23 1   
    37   22   24 1   
@<TRIPOS>SUBSTRUCTURE
     1 AHQ         1 TEMP              0 ****  ****    0 ROOT
