@<TRIPOS>MOLECULE
AHQ
   35    37     1     0     0
SMALL
bcc


@<TRIPOS>ATOM
      1 O5         -0.0570   -0.0570    0.0350 oh        1 AHQ     -0.543100
      2 C5          1.3330   -0.1370   -0.0180 ca        1 AHQ     -0.158900
      3 C4          2.0120   -0.1540    1.2190 ca        1 AHQ      0.155100
      4 O4          1.3100   -0.0320    2.4090 oh        1 AHQ     -0.533100
      5 C3A         3.3810   -0.3030    1.2450 ca        1 AHQ     -0.224300
      6 C3          4.3350   -0.4270    2.3840 c3        1 AHQ     -0.007100
      7 C2          5.7280   -0.4690    1.6860 c3        1 AHQ      0.089500
      8 C2X         6.6480   -1.5440    2.3270 c         1 AHQ      0.919600
      9 O2B         7.8680   -1.2380    2.4850 o         1 AHQ     -0.862300
     10 O2A         6.1610   -2.6320    2.7500 o         1 AHQ     -0.862300
     11 N1          5.4580   -0.6440    0.2500 nu        1 AHQ     -0.702600
     12 C1A         4.1130   -0.3680    0.0040 ca        1 AHQ      0.224600
     13 C9A         3.4620   -0.2210   -1.2350 ca        1 AHQ     -0.168300
     14 C6A         2.0360   -0.2470   -1.2480 ca        1 AHQ      0.200600
     15 N6          1.3120   -0.4720   -2.4210 nu        1 AHQ     -0.699600
     16 C7          2.0020   -0.3880   -3.6990 c3        1 AHQ      0.071500
     17 C7X         1.0770    0.1280   -4.8430 c         1 AHQ      0.909600
     18 O7B         1.3690   -0.2080   -6.0280 o         1 AHQ     -0.867800
     19 O7A         0.0580    0.8290   -4.5600 o         1 AHQ     -0.867800
     20 C8          3.2890    0.4320   -3.6410 c3        1 AHQ     -0.069400
     21 C9          4.2070   -0.0210   -2.5120 c3        1 AHQ     -0.116400
     22 C9X         5.3580    1.0130   -2.3820 c         1 AHQ      0.910600
     23 O9B         5.1110    2.2530   -2.4300 o         1 AHQ     -0.860300
     24 O9A         6.5410    0.5650   -2.2710 o         1 AHQ     -0.860300
     25 HO5        -0.2830    0.7750   -0.4060 ho        1 AHQ      0.383000
     26 HO4         0.3720   -0.0260    2.1720 ho        1 AHQ      0.402000
     27 H3          4.1670   -1.3750    2.9560 hc        1 AHQ      0.037700
     28 H3A         4.2620    0.4370    3.0880 hc        1 AHQ      0.037700
     29 H2          6.2450    0.5240    1.8430 h1        1 AHQ      0.018700
     30 HN1         6.1430   -0.3120   -0.4020 hn        1 AHQ      0.463800
     31 HN6         0.4260   -0.0000   -2.4440 hn        1 AHQ      0.397800
     32 H7          2.2810   -1.4520   -3.9660 h1        1 AHQ      0.037700
     33 H8          3.8190    0.3270   -4.6210 hc        1 AHQ      0.052200
     34 H8A         3.0480    1.5190   -3.5010 hc        1 AHQ      0.052200
     35 H9          4.6810   -1.0030   -2.7950 hc        1 AHQ      0.039700
@<TRIPOS>BOND
     1    1    2 1   
     2    1   25 1   
     3    2    3 ar  
     4    2   14 ar  
     5    3    4 1   
     6    3    5 ar  
     7    4   26 1   
     8    5    6 1   
     9    5   12 ar  
    10    6    7 1   
    11    6   27 1   
    12    6   28 1   
    13    7    8 1   
    14    7   11 1   
    15    7   29 1   
    16    8    9 1   
    17    8   10 1   
    18   11   12 1   
    19   11   30 1   
    20   12   13 ar  
    21   13   14 ar  
    22   13   21 1   
    23   14   15 1   
    24   15   16 1   
    25   15   31 1   
    26   16   17 1   
    27   16   20 1   
    28   16   32 1   
    29   17   18 1   
    30   17   19 1   
    31   20   21 1   
    32   20   33 1   
    33   20   34 1   
    34   21   22 1   
    35   21   35 1   
    36   22   23 1   
    37   22   24 1   
@<TRIPOS>SUBSTRUCTURE
     1 AHQ         1 TEMP              0 ****  ****    0 ROOT
