@<TRIPOS>MOLECULE
AHQ
   35    36     1     0     0
SMALL
bcc


@<TRIPOS>ATOM
      1 O5         -3.5750   -0.0520    0.6240 oh        1 AHQ     -0.548100
      2 C5         -2.1490   -0.1000    0.7960 ce        1 AHQ     -0.209000
      3 C4         -1.4810   -0.0360    2.0530 c1        1 AHQ      0.234200
      4 O4         -2.0790    0.2310    3.3530 o         1 AHQ     -0.287000
      5 C3A        -0.0430    0.0410    2.1030 ce        1 AHQ     -0.387900
      6 C3          0.9100   -0.0250    3.2210 c3        1 AHQ      0.005800
      7 C2          2.3020   -0.0790    2.6390 c3        1 AHQ     -0.081000
      8 C2X         2.8630   -1.4720    2.8270 c         1 AHQ      0.902600
      9 O2B         3.7660   -1.6970    3.7570 o         1 AHQ     -0.861300
     10 O2A         2.4490   -2.3990    2.1350 o         1 AHQ     -0.861300
     11 N1          2.1140    0.2950    1.2640 nh        1 AHQ     -0.353100
     12 C1A         0.7020    0.0520    0.9120 ce        1 AHQ      0.387900
     13 C9A         0.0410   -0.0120   -0.3420 cf        1 AHQ     -0.240800
     14 C6A        -1.4070   -0.0890   -0.3920 ce        1 AHQ      0.182000
     15 N6         -2.0980   -0.1110   -1.7360 nh        1 AHQ     -0.713000
     16 C7         -1.3190   -0.2420   -2.9040 c3        1 AHQ      0.067500
     17 C7X        -2.1860    0.2300   -4.2020 c         1 AHQ      0.912600
     18 O7B        -2.1810   -0.4810   -5.2700 o         1 AHQ     -0.867800
     19 O7A        -2.8700    1.2900   -4.1530 o         1 AHQ     -0.867800
     20 C8         -0.0100    0.4710   -2.8230 c3        1 AHQ     -0.070400
     21 C9          0.8480    0.1750   -1.6970 c3        1 AHQ     -0.125500
     22 C9X         2.0030    1.2670   -1.5370 c         1 AHQ      0.921600
     23 O9B         1.7350    2.3910   -1.0780 o         1 AHQ     -0.861300
     24 O9A         3.1750    1.0190   -1.9600 o         1 AHQ     -0.861300
     25 HO5        -3.9310   -0.8850    0.8050 ho        1 AHQ      0.391000
     26 HO4        -2.6820   -0.4270    3.5540 ho        1 AHQ      0.201000
     27 H3          0.8150    0.7830    3.7940 hc        1 AHQ      0.029700
     28 H3A         0.7360   -0.8640    3.7760 hc        1 AHQ      0.029700
     29 H2          2.9990    0.4690    3.0590 h1        1 AHQ      0.032700
     30 HN1         2.6720   -0.2350    0.7140 hn        1 AHQ      0.323700
     31 HN6        -2.6300    0.6080   -1.8090 hn        1 AHQ      0.398800
     32 H7         -1.1650   -1.2150   -3.1210 h1        1 AHQ      0.036700
     33 H8          0.5130    0.2640   -3.6730 hc        1 AHQ      0.052200
     34 H8A        -0.1970    1.4330   -2.8110 hc        1 AHQ      0.052200
     35 H9          1.3590   -0.5970   -1.8750 hc        1 AHQ      0.036700
@<TRIPOS>BOND
     1    1    2 1   
     2    1   25 1   
     3    2    3 2   
     4    2   14 1   
     5    3    5 2   
     6    4   26 1   
     7    5    6 1   
     8    5   12 1   
     9    6    7 1   
    10    6   27 1   
    11    6   28 1   
    12    7    8 1   
    13    7   11 1   
    14    7   29 1   
    15    8    9 1   
    16    8   10 1   
    17   11   12 2   
    18   11   30 1   
    19   12   13 1   
    20   13   14 2   
    21   13   21 1   
    22   14   15 1   
    23   15   16 1   
    24   15   31 1   
    25   16   17 1   
    26   16   20 1   
    27   16   32 1   
    28   17   18 1   
    29   17   19 1   
    30   20   21 1   
    31   20   33 1   
    32   20   34 1   
    33   21   22 1   
    34   21   35 1   
    35   22   23 1   
    36   22   24 1   
@<TRIPOS>SUBSTRUCTURE
     1 AHQ         1 TEMP              0 ****  ****    0 ROOT
