@<TRIPOS>MOLECULE
AHR
   20    20     1     0     0
SMALL
bcc


@<TRIPOS>ATOM
      1 O5'        -0.4320   -0.5530    3.2050 oh        1 AHR     -0.592800
      2 C5'         0.4830   -0.6750    2.1390 c3        1 AHR      0.126400
      3 C4'         0.1500    0.3030    1.0120 c3        1 AHR      0.097100
      4 O4'        -1.1620   -0.0200    0.5210 os        1 AHR     -0.450600
      5 C3'         1.1490    0.1990   -0.1550 c3        1 AHR      0.120100
      6 O3'         1.7930    1.4520   -0.2740 oh        1 AHR     -0.588800
      7 C2'         0.2920   -0.1060   -1.4040 c3        1 AHR      0.048100
      8 O2'         0.8020   -1.2840   -1.9930 oh        1 AHR     -0.589800
      9 C1'        -1.1460   -0.3070   -0.8710 c3        1 AHR      0.310900
     10 O1'        -2.0640    0.5900   -1.4310 oh        1 AHR     -0.604800
     11 H5'        -1.3170   -0.6770    2.8360 ho        1 AHR      0.415000
     12 H5'1        1.4840   -0.4230    2.5790 h1        1 AHR      0.054700
     13 H5'2        0.4860   -1.7270    1.7490 h1        1 AHR      0.054700
     14 H4'         0.0930    1.3550    1.4070 h1        1 AHR      0.096700
     15 H3'         1.9000   -0.6200    0.0140 h1        1 AHR      0.076700
     16 HC          2.4990    1.3410   -0.9230 ho        1 AHR      0.414000
     17 H2'         0.3230    0.7470   -2.1350 h1        1 AHR      0.072700
     18 HB          0.2570   -1.4680   -2.7680 ho        1 AHR      0.415000
     19 H1'        -1.5480   -1.3410   -1.0470 h2        1 AHR      0.101700
     20 HA         -1.9510    1.4500   -1.0050 ho        1 AHR      0.424000
@<TRIPOS>BOND
     1    1    2 1   
     2    1   11 1   
     3    2    3 1   
     4    2   12 1   
     5    2   13 1   
     6    3    4 1   
     7    3    5 1   
     8    3   14 1   
     9    4    9 1   
    10    5    6 1   
    11    5    7 1   
    12    5   15 1   
    13    6   16 1   
    14    7    8 1   
    15    7    9 1   
    16    7   17 1   
    17    8   18 1   
    18    9   10 1   
    19    9   19 1   
    20   10   20 1   
@<TRIPOS>SUBSTRUCTURE
     1 AHR         1 TEMP              0 ****  ****    0 ROOT
