@<TRIPOS>MOLECULE
AHR
   20    20     1     0     0
SMALL
bcc


@<TRIPOS>ATOM
      1 O5'        -2.8140   -0.4470   -0.9900 oh        1 AHR     -0.592800
      2 C5'        -1.4020   -0.4470   -0.9900 c3        1 AHR      0.126400
      3 C4'        -0.9070   -0.4470    0.4110 c3        1 AHR      0.097100
      4 O4'        -0.9850    0.7470    0.9110 os        1 AHR     -0.450600
      5 C3'         0.6930   -0.8640    0.4490 c3        1 AHR      0.120100
      6 O3'         1.0630   -1.3350    1.8040 oh        1 AHR     -0.588800
      7 C2'         1.2170    0.2450   -0.1360 c3        1 AHR      0.048100
      8 O2'         1.3310    0.0450   -1.6140 oh        1 AHR     -0.589800
      9 C1'         0.3610    1.3710    0.6380 c3        1 AHR      0.310900
     10 O1'         0.8190    1.9150    1.6940 oh        1 AHR     -0.604800
     11 H5'        -3.1100   -0.6200   -1.8090 ho        1 AHR      0.415000
     12 H5'1       -1.0770    0.3500   -1.4500 h1        1 AHR      0.054700
     13 H5'2       -1.0770   -1.2440   -1.4500 h1        1 AHR      0.054700
     14 H4'        -1.4280   -1.0710    0.9510 h1        1 AHR      0.096700
     15 H3'         0.8230   -1.6110   -0.1650 h1        1 AHR      0.076700
     16 HC          1.4350   -2.1390    1.7470 ho        1 AHR      0.414000
     17 H2'         2.1330    0.3300    0.1900 h1        1 AHR      0.072700
     18 HB          2.1150    0.3520   -1.8940 ho        1 AHR      0.415000
     19 H1'         0.2130    2.0930   -0.0020 h2        1 AHR      0.101700
     20 HA          0.5950    2.7740    1.7050 ho        1 AHR      0.424000
@<TRIPOS>BOND
     1    1    2 1   
     2    1   11 1   
     3    2    3 1   
     4    2   12 1   
     5    2   13 1   
     6    3    4 1   
     7    3    5 1   
     8    3   14 1   
     9    4    9 1   
    10    5    6 1   
    11    5    7 1   
    12    5   15 1   
    13    6   16 1   
    14    7    8 1   
    15    7    9 1   
    16    7   17 1   
    17    8   18 1   
    18    9   10 1   
    19    9   19 1   
    20   10   20 1   
@<TRIPOS>SUBSTRUCTURE
     1 AHR         1 TEMP              0 ****  ****    0 ROOT
