@<TRIPOS>MOLECULE
AHS
   49    49     1     0     0
SMALL
bcc


@<TRIPOS>ATOM
      1 N          -1.0790    1.3590    1.4550 n3        1 AHS     -0.895800
      2 CA         -1.0560    0.3680    0.3970 c3        1 AHS      0.133500
      3 CB         -2.1960    0.4690   -0.6330 c3        1 AHS     -0.116400
      4 CG         -3.5970    0.4780   -0.0450 c3        1 AHS     -0.060700
      5 CD1        -3.8710   -0.7700    0.7810 c3        1 AHS     -0.076400
      6 CD2        -4.6160    0.5950   -1.1740 c3        1 AHS     -0.076400
      7 CE1        -5.2920   -0.7910    1.3040 c3        1 AHS     -0.074900
      8 CE2        -6.0340    0.5830   -0.6450 c3        1 AHS     -0.074900
      9 CZ         -6.3010   -0.6590    0.1810 c3        1 AHS     -0.075400
     10 CH          0.2830    0.3850   -0.3950 c3        1 AHS      0.119100
     11 OH          0.5380    1.7000   -0.8700 oh        1 AHS     -0.623800
     12 CM          1.4260   -0.1820    0.4800 c3        1 AHS      0.090000
     13 N1          2.5870   -0.5770   -0.2490 n         1 AHS     -0.540800
     14 CB2         3.5370    0.4240   -0.6140 c3        1 AHS      0.116000
     15 CG2         4.3970    1.0150    0.5290 c3        1 AHS     -0.102700
     16 CD3         5.5480    0.0870    0.8490 c3        1 AHS     -0.085100
     17 CD4         4.9080    2.3820    0.1300 c3        1 AHS     -0.085100
     18 C           2.9580   -1.9860   -0.2880 c         1 AHS      1.014600
     19 O           4.0900   -2.2800   -0.7720 o         1 AHS     -0.834800
     20 OXT         2.1160   -2.8230    0.1510 o         1 AHS     -0.834800
     21 H          -0.8510    2.2620    1.0820 hn        1 AHS      0.334800
     22 H2         -1.9940    1.4050    1.8620 hn        1 AHS      0.334800
     23 HA         -1.1310   -0.6430    0.8990 h1        1 AHS      0.070700
     24 HB2        -2.0470    1.4020   -1.2390 hc        1 AHS      0.050700
     25 HB3        -2.1020   -0.4040   -1.3310 hc        1 AHS      0.050700
     26 HG         -3.7220    1.3780    0.6200 hc        1 AHS      0.033700
     27 HD12       -3.6850   -1.6800    0.1510 hc        1 AHS      0.044950
     28 HD13       -3.1580   -0.8100    1.6470 hc        1 AHS      0.044950
     29 HD23       -4.4340    1.5440   -1.7410 hc        1 AHS      0.044950
     30 HD22       -4.4750   -0.2580   -1.8890 hc        1 AHS      0.044950
     31 HE12       -5.4710   -1.7490    1.8580 hc        1 AHS      0.031950
     32 HE13       -5.4350    0.0500    2.0320 hc        1 AHS      0.031950
     33 HE23       -6.2070    1.4940   -0.0150 hc        1 AHS      0.031950
     34 HE22       -6.7550    0.6250   -1.5030 hc        1 AHS      0.031950
     35 HZ2        -6.2450   -1.5650   -0.4780 hc        1 AHS      0.032700
     36 HZ3        -7.3360   -0.6140    0.6070 hc        1 AHS      0.032700
     37 HH          0.1540   -0.2380   -1.3240 h1        1 AHS      0.079700
     38 HO          1.1640    2.1110   -0.2620 ho        1 AHS      0.398000
     39 HM1         1.6740    0.6060    1.2520 h1        1 AHS      0.046200
     40 HM2         1.0200   -1.0890    1.0160 h1        1 AHS      0.046200
     41 HB21        4.2390   -0.0300   -1.3710 h1        1 AHS      0.036200
     42 HB22        2.9890    1.2820   -1.1050 h1        1 AHS      0.036200
     43 HG2         3.7640    1.1310    1.4520 hc        1 AHS      0.035700
     44 HD31        6.0100    0.3560    1.8290 hc        1 AHS      0.025867
     45 HD32        5.1840   -0.9730    0.8840 hc        1 AHS      0.025867
     46 HD33        6.3340    0.1510    0.0590 hc        1 AHS      0.025867
     47 HD41        4.0590    3.0950   -0.0050 hc        1 AHS      0.025867
     48 HD42        5.5890    2.7890    0.9160 hc        1 AHS      0.025867
     49 HD43        5.4740    2.3240   -0.8300 hc        1 AHS      0.025867
@<TRIPOS>BOND
     1    1    2 1   
     2    1   21 1   
     3    1   22 1   
     4    2    3 1   
     5    2   10 1   
     6    2   23 1   
     7    3    4 1   
     8    3   24 1   
     9    3   25 1   
    10    4    5 1   
    11    4    6 1   
    12    4   26 1   
    13    5    7 1   
    14    5   27 1   
    15    5   28 1   
    16    6    8 1   
    17    6   29 1   
    18    6   30 1   
    19    7    9 1   
    20    7   31 1   
    21    7   32 1   
    22    8    9 1   
    23    8   33 1   
    24    8   34 1   
    25    9   35 1   
    26    9   36 1   
    27   10   11 1   
    28   10   12 1   
    29   10   37 1   
    30   11   38 1   
    31   12   13 1   
    32   12   39 1   
    33   12   40 1   
    34   13   14 1   
    35   13   18 1   
    36   14   15 1   
    37   14   41 1   
    38   14   42 1   
    39   15   16 1   
    40   15   17 1   
    41   15   43 1   
    42   16   44 1   
    43   16   45 1   
    44   16   46 1   
    45   17   47 1   
    46   17   48 1   
    47   17   49 1   
    48   18   19 1   
    49   18   20 1   
@<TRIPOS>SUBSTRUCTURE
     1 AHS         1 TEMP              0 ****  ****    0 ROOT
