@<TRIPOS>MOLECULE
AHS
   49    49     1     0     0
SMALL
bcc


@<TRIPOS>ATOM
      1 N          -2.3060    0.4430    0.8070 n3        1 AHS     -0.897800
      2 CA         -0.8940    0.3140    0.7100 c3        1 AHS      0.158500
      3 CB         -0.2740    0.2960    2.1360 c3        1 AHS     -0.070400
      4 CG         -0.1240    1.5820    2.5910 c3        1 AHS     -0.051700
      5 CD1         1.3300    1.8480    3.1370 c3        1 AHS     -0.072900
      6 CD2        -0.8920    1.8180    3.9820 c3        1 AHS     -0.072900
      7 CE1         1.5190    3.2860    3.6870 c3        1 AHS     -0.073400
      8 CE2        -0.7240    3.2420    4.5280 c3        1 AHS     -0.073400
      9 CZ          0.3390    3.8660    3.9690 c3        1 AHS     -0.072400
     10 CH         -0.5510   -0.9750   -0.0010 c3        1 AHS      0.081100
     11 OH         -1.3680   -1.9900    0.4650 oh        1 AHS     -0.653800
     12 CM         -0.7620   -0.8020   -1.5150 c3        1 AHS      0.082000
     13 N1         -0.1410   -1.9310   -2.2290 n         1 AHS     -0.540800
     14 CB2         0.9190   -1.6910   -3.1730 c3        1 AHS      0.121000
     15 CG2         0.5570   -2.3660   -4.5480 c3        1 AHS     -0.091700
     16 CD3         1.7240   -3.2590   -5.0060 c3        1 AHS     -0.081100
     17 CD4         0.3020   -1.2880   -5.5940 c3        1 AHS     -0.081100
     18 C          -0.6310   -3.2520   -2.0330 c         1 AHS      1.012600
     19 O          -1.8700   -3.4730   -2.0590 o         1 AHS     -0.833300
     20 OXT         0.1690   -4.1860   -1.7700 o         1 AHS     -0.833300
     21 H          -2.7010   -0.3990    0.7480 hn        1 AHS      0.344800
     22 H2         -2.6170    0.9790    0.1160 hn        1 AHS      0.344800
     23 HA         -0.5260    1.0800    0.1990 h1        1 AHS      0.043700
     24 HB2        -0.8630   -0.1940    2.7380 hc        1 AHS      0.048200
     25 HB3         0.6020   -0.1450    2.1050 hc        1 AHS      0.048200
     26 HG         -0.3870    2.2570    1.9060 hc        1 AHS      0.047700
     27 HD12        1.5160    1.2100    3.8550 hc        1 AHS      0.042450
     28 HD13        1.9720    1.7010    2.4090 hc        1 AHS      0.042450
     29 HD23       -0.5450    1.1830    4.6450 hc        1 AHS      0.042450
     30 HD22       -1.8480    1.6430    3.8470 hc        1 AHS      0.042450
     31 HE12        1.9920    3.8310    3.0080 hc        1 AHS      0.028700
     32 HE13        2.0700    3.2480    4.5160 hc        1 AHS      0.028700
     33 HE23       -0.5940    3.1990    5.5100 hc        1 AHS      0.028700
     34 HE22       -1.5550    3.7690    4.3300 hc        1 AHS      0.028700
     35 HZ2         0.0130    4.2460    3.1180 hc        1 AHS      0.031200
     36 HZ3         0.5490    4.6350    4.5660 hc        1 AHS      0.031200
     37 HH          0.3860   -1.2040    0.1730 h1        1 AHS      0.029700
     38 HO         -0.8950   -2.5370    0.9860 ho        1 AHS      0.464000
     39 HM1        -1.7210   -0.7810   -1.7100 h1        1 AHS      0.039700
     40 HM2        -0.3550    0.0260   -1.8050 h1        1 AHS      0.039700
     41 HB21        1.0310   -0.7170   -3.3020 h1        1 AHS      0.027200
     42 HB22        1.7510   -2.0730   -2.8310 h1        1 AHS      0.027200
     43 HG2        -0.2590   -2.9200   -4.4390 hc        1 AHS      0.069700
     44 HD31        1.4750   -3.7230   -5.8450 hc        1 AHS      0.020533
     45 HD32        1.9200   -3.9230   -4.3120 hc        1 AHS      0.020533
     46 HD33        2.5160   -2.7060   -5.1620 hc        1 AHS      0.020533
     47 HD41       -0.4370   -0.7230   -5.3040 hc        1 AHS      0.020533
     48 HD42        1.1120   -0.7390   -5.7040 hc        1 AHS      0.020533
     49 HD43        0.0740   -1.7090   -6.4460 hc        1 AHS      0.020533
@<TRIPOS>BOND
     1    1    2 1   
     2    1   21 1   
     3    1   22 1   
     4    2    3 1   
     5    2   10 1   
     6    2   23 1   
     7    3    4 1   
     8    3   24 1   
     9    3   25 1   
    10    4    5 1   
    11    4    6 1   
    12    4   26 1   
    13    5    7 1   
    14    5   27 1   
    15    5   28 1   
    16    6    8 1   
    17    6   29 1   
    18    6   30 1   
    19    7    9 1   
    20    7   31 1   
    21    7   32 1   
    22    8    9 1   
    23    8   33 1   
    24    8   34 1   
    25    9   35 1   
    26    9   36 1   
    27   10   11 1   
    28   10   12 1   
    29   10   37 1   
    30   11   38 1   
    31   12   13 1   
    32   12   39 1   
    33   12   40 1   
    34   13   14 1   
    35   13   18 1   
    36   14   15 1   
    37   14   41 1   
    38   14   42 1   
    39   15   16 1   
    40   15   17 1   
    41   15   43 1   
    42   16   44 1   
    43   16   45 1   
    44   16   46 1   
    45   17   47 1   
    46   17   48 1   
    47   17   49 1   
    48   18   19 1   
    49   18   20 1   
@<TRIPOS>SUBSTRUCTURE
     1 AHS         1 TEMP              0 ****  ****    0 ROOT
