@<TRIPOS>MOLECULE
AHT
   33    33     1     0     0
SMALL
bcc


@<TRIPOS>ATOM
      1 N          -0.5130    1.8420   -0.0840 n3        1 AHT     -0.901800
      2 CA         -0.7350    0.4280    0.1470 c3        1 AHT      0.166500
      3 C          -2.1600    0.0550    0.5960 c3        1 AHT     -0.126400
      4 CB          0.2510   -0.1510    1.1810 c3        1 AHT     -0.024100
      5 CG          1.6380   -0.2350    0.6540 ca        1 AHT     -0.110300
      6 CD1         2.4650    0.8940    0.6430 ca        1 AHT     -0.081500
      7 CD2         2.1360   -1.4540    0.1730 ca        1 AHT     -0.081500
      8 CE1         3.7690    0.8150    0.1610 ca        1 AHT     -0.186500
      9 CE2         3.4350   -1.5550   -0.3130 ca        1 AHT     -0.186500
     10 CZ          4.2500   -0.4120   -0.3170 ca        1 AHT      0.121100
     11 OH          5.5280   -0.5700   -0.8070 oh        1 AHT     -0.500100
     12 C1         -3.2060    0.5030   -0.3990 c3        1 AHT     -0.107400
     13 C2         -4.5590   -0.1590   -0.0840 c3        1 AHT      0.355300
     14 O2         -4.4600   -1.5850   -0.1970 oh        1 AHT     -0.634800
     15 N2         -5.6430    0.3880   -0.8730 n3        1 AHT     -0.934800
     16 H          -1.1540    2.1830   -0.7740 hn        1 AHT      0.346300
     17 H2         -0.6380    2.3630    0.7620 hn        1 AHT      0.346300
     18 HA         -0.5410   -0.0900   -0.8410 h1        1 AHT      0.062700
     19 HC1        -2.2200   -1.0600    0.7130 hc        1 AHT      0.054700
     20 HC2        -2.3720    0.5070    1.5990 hc        1 AHT      0.054700
     21 HB2         0.2350    0.4740    2.1140 hc        1 AHT      0.048200
     22 HB3        -0.1060   -1.1780    1.4640 hc        1 AHT      0.048200
     23 HD1         2.0780    1.8570    1.0090 ha        1 AHT      0.135000
     24 HD2         1.4920   -2.3460    0.1790 ha        1 AHT      0.135000
     25 HE1         4.4130    1.7050    0.1510 ha        1 AHT      0.140000
     26 HE2         3.8310   -2.5070   -0.6910 ha        1 AHT      0.140000
     27 HH          5.9710    0.2900   -0.7620 ho        1 AHT      0.418000
     28 H11        -3.3310    1.6170   -0.3600 hc        1 AHT      0.051700
     29 H12        -2.8860    0.2320   -1.4400 hc        1 AHT      0.051700
     30 HC22       -4.8140   -0.0070    1.0100 h2        1 AHT      0.089700
     31 HO2        -3.9980   -1.7970   -1.0150 ho        1 AHT      0.396000
     32 HN21       -5.4580    0.3240   -1.8530 hn        1 AHT      0.357800
     33 HN22       -6.5020   -0.0790   -0.6640 hn        1 AHT      0.357800
@<TRIPOS>BOND
     1    1    2 1   
     2    1   16 1   
     3    1   17 1   
     4    2    3 1   
     5    2    4 1   
     6    2   18 1   
     7    3   12 1   
     8    3   19 1   
     9    3   20 1   
    10    4    5 1   
    11    4   21 1   
    12    4   22 1   
    13    5    6 ar  
    14    5    7 ar  
    15    6    8 ar  
    16    6   23 1   
    17    7    9 ar  
    18    7   24 1   
    19    8   10 ar  
    20    8   25 1   
    21    9   10 ar  
    22    9   26 1   
    23   10   11 1   
    24   11   27 1   
    25   12   13 1   
    26   12   28 1   
    27   12   29 1   
    28   13   14 1   
    29   13   15 1   
    30   13   30 1   
    31   14   31 1   
    32   15   32 1   
    33   15   33 1   
@<TRIPOS>SUBSTRUCTURE
     1 AHT         1 TEMP              0 ****  ****    0 ROOT
