@<TRIPOS>MOLECULE
AHU
   31    32     1     0     0
SMALL
bcc


@<TRIPOS>ATOM
      1 C4'        -0.0660   -0.2150   -0.0320 c3        1 AHU      0.135100
      2 C7'        -0.3720   -0.6080   -1.4780 c3        1 AHU      0.135400
      3 O7'        -0.4310   -2.0240   -1.5130 oh        1 AHU     -0.595800
      4 O5'         1.3610   -0.2110    0.0900 os        1 AHU     -0.415600
      5 C6'         1.8060    0.0860    1.4030 c3        1 AHU      0.112400
      6 C1'         1.3660    1.4880    1.8730 c3        1 AHU      0.074700
      7 C2'        -0.1510    1.6180    1.6830 c3        1 AHU     -0.136400
      8 C3'        -0.5960    1.1950    0.2880 c3        1 AHU      0.109100
      9 O3'        -2.0110    1.1230    0.2080 oh        1 AHU     -0.588800
     10 N1          2.1270    2.5760    1.2680 n         1 AHU     -0.367000
     11 C6          2.4790    2.5810   -0.0660 cc        1 AHU      0.090600
     12 C2          2.4500    3.7030    2.0840 c         1 AHU      0.803500
     13 O2          2.1310    3.7350    3.2920 o         1 AHU     -0.637500
     14 N3          3.1380    4.7670    1.4960 ns        1 AHU     -0.582500
     15 C4          3.5190    4.7950    0.1390 c         1 AHU      0.730700
     16 O4          4.1220    5.8000   -0.2670 o         1 AHU     -0.589500
     17 C5          3.1500    3.6150   -0.6540 cd        1 AHU     -0.204400
     18 I           3.6300    3.5090   -2.6010 i         1 AHU     -0.064800
     19 H4'        -0.5090   -0.9680    0.6760 h1        1 AHU      0.083700
     20 H7'1        0.4320   -0.2280   -2.1630 h1        1 AHU      0.046200
     21 H7'2       -1.3670   -0.1770   -1.7710 h1        1 AHU      0.046200
     22 HO'7       -0.4810   -2.2740   -2.4430 ho        1 AHU      0.406000
     23 H6'1        1.3960   -0.6640    2.1310 h1        1 AHU      0.073200
     24 H6'2        2.9230   -0.0090    1.3430 h1        1 AHU      0.073200
     25 H1'         1.5740    1.5460    2.9890 h1        1 AHU      0.108700
     26 H2'1       -0.6470    0.9540    2.4410 hc        1 AHU      0.071700
     27 H2'2       -0.4870    2.6670    1.8890 hc        1 AHU      0.071700
     28 H3'        -0.2120    1.9250   -0.4790 h1        1 AHU      0.044700
     29 HO'3       -2.3490    1.9900    0.4650 ho        1 AHU      0.409000
     30 H6          2.1870    1.6700   -0.6350 h4        1 AHU      0.199000
     31 HN3         3.3660    5.5410    2.0850 hn        1 AHU      0.356500
@<TRIPOS>BOND
     1    1    2 1   
     2    1    4 1   
     3    1    8 1   
     4    1   19 1   
     5    2    3 1   
     6    2   20 1   
     7    2   21 1   
     8    3   22 1   
     9    4    5 1   
    10    5    6 1   
    11    5   23 1   
    12    5   24 1   
    13    6    7 1   
    14    6   10 1   
    15    6   25 1   
    16    7    8 1   
    17    7   26 1   
    18    7   27 1   
    19    8    9 1   
    20    8   28 1   
    21    9   29 1   
    22   10   11 1   
    23   10   12 1   
    24   11   17 2   
    25   11   30 1   
    26   12   13 2   
    27   12   14 1   
    28   14   15 1   
    29   14   31 1   
    30   15   16 2   
    31   15   17 1   
    32   17   18 1   
@<TRIPOS>SUBSTRUCTURE
     1 AHU         1 TEMP              0 ****  ****    0 ROOT
