@<TRIPOS>MOLECULE
AHU
   31    32     1     0     0
SMALL
bcc


@<TRIPOS>ATOM
      1 C4'        -0.0810   -0.2070   -0.0360 c3        1 AHU      0.135100
      2 C7'        -0.3770   -0.6020   -1.4840 c3        1 AHU      0.135400
      3 O7'        -0.4490   -2.0180   -1.5150 oh        1 AHU     -0.595800
      4 O5'         1.3440   -0.2160    0.1000 os        1 AHU     -0.415600
      5 C6'         1.7800    0.0810    1.4160 c3        1 AHU      0.112400
      6 C1'         1.3490    1.4890    1.8770 c3        1 AHU      0.074700
      7 C2'        -0.1660    1.6330    1.6720 c3        1 AHU     -0.136400
      8 C3'        -0.6010    1.2080    0.2740 c3        1 AHU      0.109100
      9 O3'        -2.0160    1.1500    0.1800 oh        1 AHU     -0.588800
     10 N1          2.1260    2.5670    1.2760 n         1 AHU     -0.367000
     11 C6          2.4910    2.5640   -0.0540 cc        1 AHU      0.090600
     12 C2          2.4510    3.6930    2.0910 c         1 AHU      0.803500
     13 O2          2.1210    3.7330    3.2960 o         1 AHU     -0.637500
     14 N3          3.1560    4.7490    1.5060 n         1 AHU     -0.582500
     15 C4          3.5500    4.7690    0.1530 c         1 AHU      0.730700
     16 O4          4.1670    5.7660   -0.2510 o         1 AHU     -0.589500
     17 C5          3.1770    3.5900   -0.6390 cd        1 AHU     -0.204400
     18 I           3.6750    3.4730   -2.5820 i         1 AHU     -0.064800
     19 H4'        -0.5390   -0.9540    0.6700 h1        1 AHU      0.083700
     20 H7'1       -1.3650   -0.1630   -1.7880 h1        1 AHU      0.046200
     21 H7'2        0.4370   -0.2330   -2.1620 h1        1 AHU      0.046200
     22 HO'7       -0.4920   -2.2710   -2.4440 ho        1 AHU      0.406000
     23 H6'1        2.8960   -0.0250    1.3670 h1        1 AHU      0.073200
     24 H6'2        1.3550   -0.6630    2.1430 h1        1 AHU      0.073200
     25 H1'         1.5460    1.5490    2.9950 h1        1 AHU      0.108700
     26 H2'1       -0.6750    0.9760    2.4260 hc        1 AHU      0.071700
     27 H2'2       -0.4930    2.6860    1.8700 hc        1 AHU      0.071700
     28 H3'        -0.2020    1.9320   -0.4920 h1        1 AHU      0.044700
     29 HO'3       -2.3480    2.0210    0.4310 ho        1 AHU      0.409000
     30 H6          2.1950    1.6540   -0.6240 h4        1 AHU      0.199000
     31 HN3         3.3860    5.5220    2.0950 hn        1 AHU      0.356500
@<TRIPOS>BOND
     1    1    2 1   
     2    1    4 1   
     3    1    8 1   
     4    1   19 1   
     5    2    3 1   
     6    2   20 1   
     7    2   21 1   
     8    3   22 1   
     9    4    5 1   
    10    5    6 1   
    11    5   23 1   
    12    5   24 1   
    13    6    7 1   
    14    6   10 1   
    15    6   25 1   
    16    7    8 1   
    17    7   26 1   
    18    7   27 1   
    19    8    9 1   
    20    8   28 1   
    21    9   29 1   
    22   10   11 1   
    23   10   12 1   
    24   11   17 2   
    25   11   30 1   
    26   12   13 2   
    27   12   14 1   
    28   14   15 1   
    29   14   31 1   
    30   15   16 2   
    31   15   17 1   
    32   17   18 1   
@<TRIPOS>SUBSTRUCTURE
     1 AHU         1 TEMP              0 ****  ****    0 ROOT
