@<TRIPOS>MOLECULE
AHU
   31    32     1     0     0
SMALL
bcc


@<TRIPOS>ATOM
      1 C4'         1.3910   -0.0080    3.2750 c3        1 AHU      0.052100
      2 C7'         2.6920   -0.7780    3.0240 c3        1 AHU      0.135400
      3 O7'         3.8190    0.0440    3.2170 oh        1 AHU     -0.587800
      4 O5'         1.3390    0.9820    2.2420 os        1 AHU     -0.429600
      5 C6'         0.1950    1.8180    2.3210 c3        1 AHU      0.115400
      6 C1'        -1.1240    1.0300    2.1980 c3        1 AHU      0.071700
      7 C2'        -1.1250   -0.1010    3.2340 c3        1 AHU     -0.099400
      8 C3'         0.1590   -0.9240    3.1960 c3        1 AHU      0.116100
      9 O3'         0.1040   -1.7800    4.3270 oh        1 AHU     -0.584800
     10 N1         -1.4170    0.5880    0.8390 n         1 AHU     -0.367000
     11 C6         -0.4630    0.0060    0.0310 cc        1 AHU      0.090600
     12 C2         -2.7610    0.6990    0.3690 c         1 AHU      0.804500
     13 O2         -3.6500    1.2210    1.0770 o         1 AHU     -0.634500
     14 N3         -3.0540    0.2180   -0.9100 n         1 AHU     -0.581500
     15 C4         -2.0990   -0.3780   -1.7580 c         1 AHU      0.730700
     16 O4         -2.4830   -0.7730   -2.8690 o         1 AHU     -0.588500
     17 C5         -0.7340   -0.4660   -1.2220 cd        1 AHU     -0.202400
     18 I           0.7400   -1.2740   -2.3200 i         1 AHU     -0.064800
     19 H4'         1.4290    0.4990    4.2780 h1        1 AHU      0.075700
     20 H7'1        2.6890   -1.2050    1.9860 h1        1 AHU      0.053700
     21 H7'2        2.7980   -1.6010    3.7810 h1        1 AHU      0.053700
     22 HO'7        3.7380    0.7880    2.6050 ho        1 AHU      0.415000
     23 H6'1        0.1830    2.3600    3.3040 h1        1 AHU      0.072700
     24 H6'2        0.3340    2.5480    1.4790 h1        1 AHU      0.072700
     25 H1'        -1.9620    1.7440    2.4820 h1        1 AHU      0.113700
     26 H2'1       -1.2270    0.3640    4.2510 hc        1 AHU      0.080700
     27 H2'2       -2.0040   -0.7800    3.0900 hc        1 AHU      0.080700
     28 H3'         0.2040   -1.5320    2.2500 h1        1 AHU      0.044700
     29 HO'3        0.8350   -2.4050    4.2420 ho        1 AHU      0.407000
     30 H6          0.5600   -0.0400    0.4680 h4        1 AHU      0.194000
     31 HN3        -3.9980    0.3080   -1.2230 hn        1 AHU      0.357500
@<TRIPOS>BOND
     1    1    2 1   
     2    1    4 1   
     3    1    8 1   
     4    1   19 1   
     5    2    3 1   
     6    2   20 1   
     7    2   21 1   
     8    3   22 1   
     9    4    5 1   
    10    5    6 1   
    11    5   23 1   
    12    5   24 1   
    13    6    7 1   
    14    6   10 1   
    15    6   25 1   
    16    7    8 1   
    17    7   26 1   
    18    7   27 1   
    19    8    9 1   
    20    8   28 1   
    21    9   29 1   
    22   10   11 1   
    23   10   12 1   
    24   11   17 2   
    25   11   30 1   
    26   12   13 2   
    27   12   14 1   
    28   14   15 1   
    29   14   31 1   
    30   15   16 2   
    31   15   17 1   
    32   17   18 1   
@<TRIPOS>SUBSTRUCTURE
     1 AHU         1 TEMP              0 ****  ****    0 ROOT
