@<TRIPOS>MOLECULE
AHU
   31    32     1     0     0
SMALL
bcc


@<TRIPOS>ATOM
      1 C4'        -0.0660   -0.2150   -0.0320 c3        1 AHU      0.135100
      2 C7'        -0.3500   -0.6210   -1.4790 c3        1 AHU      0.135400
      3 O7'        -0.4150   -2.0370   -1.5020 oh        1 AHU     -0.595800
      4 O5'         1.3590   -0.2150    0.1120 os        1 AHU     -0.415600
      5 C6'         1.7860    0.0930    1.4290 c3        1 AHU      0.112400
      6 C1'         1.3440    1.5010    1.8780 c3        1 AHU      0.074700
      7 C2'        -0.1700    1.6350    1.6640 c3        1 AHU     -0.136400
      8 C3'        -0.5950    1.1990    0.2660 c3        1 AHU      0.109100
      9 O3'        -2.0090    1.1330    0.1650 oh        1 AHU     -0.588800
     10 N1          2.1180    2.5800    1.2750 n         1 AHU     -0.367000
     11 C6          2.4910    2.5710   -0.0530 cc        1 AHU      0.090600
     12 C2          2.4320    3.7130    2.0850 c         1 AHU      0.803500
     13 O2          2.0950    3.7580    3.2880 o         1 AHU     -0.637500
     14 N3          3.1340    4.7690    1.4980 n         1 AHU     -0.582500
     15 C4          3.5360    4.7830    0.1460 c         1 AHU      0.730700
     16 O4          4.1500    5.7820   -0.2600 o         1 AHU     -0.589500
     17 C5          3.1750    3.5970   -0.6410 cd        1 AHU     -0.204400
     18 I           3.6840    3.4700   -2.5790 i         1 AHU     -0.064800
     19 H4'        -0.5230   -0.9600    0.6760 h1        1 AHU      0.083700
     20 H7'1        0.4650   -0.2510   -2.1550 h1        1 AHU      0.046200
     21 H7'2       -1.3400   -0.1890   -1.7920 h1        1 AHU      0.046200
     22 HO'7       -0.4520   -2.2960   -2.4300 ho        1 AHU      0.406000
     23 H6'1        2.9030   -0.0070    1.3860 h1        1 AHU      0.073200
     24 H6'2        1.3610   -0.6490    2.1570 h1        1 AHU      0.073200
     25 H1'         1.5340    1.5690    2.9970 h1        1 AHU      0.108700
     26 H2'1       -0.5050    2.6870    1.8540 hc        1 AHU      0.071700
     27 H2'2       -0.6800    0.9800    2.4200 hc        1 AHU      0.071700
     28 H3'        -0.1960    1.9210   -0.5020 h1        1 AHU      0.044700
     29 HO'3       -2.3480    2.0030    0.4080 ho        1 AHU      0.409000
     30 H6          2.2040    1.6550   -0.6190 h4        1 AHU      0.199000
     31 HN3         3.3560    5.5480    2.0830 hn        1 AHU      0.356500
@<TRIPOS>BOND
     1    1    2 1   
     2    1    4 1   
     3    1    8 1   
     4    1   19 1   
     5    2    3 1   
     6    2   20 1   
     7    2   21 1   
     8    3   22 1   
     9    4    5 1   
    10    5    6 1   
    11    5   23 1   
    12    5   24 1   
    13    6    7 1   
    14    6   10 1   
    15    6   25 1   
    16    7    8 1   
    17    7   26 1   
    18    7   27 1   
    19    8    9 1   
    20    8   28 1   
    21    9   29 1   
    22   10   11 1   
    23   10   12 1   
    24   11   17 2   
    25   11   30 1   
    26   12   13 2   
    27   12   14 1   
    28   14   15 1   
    29   14   31 1   
    30   15   16 2   
    31   15   17 1   
    32   17   18 1   
@<TRIPOS>SUBSTRUCTURE
     1 AHU         1 TEMP              0 ****  ****    0 ROOT
