@<TRIPOS>MOLECULE
AHU
   31    32     1     0     0
SMALL
bcc


@<TRIPOS>ATOM
      1 C4'        -0.9420   -1.6680   -0.7930 c3        1 AHU      0.135100
      2 C7'        -1.3920   -1.4670   -2.2050 c3        1 AHU      0.135400
      3 O7'        -0.9780   -2.5620   -2.9880 oh        1 AHU     -0.595800
      4 O5'         0.5180   -1.6700   -0.7580 os        1 AHU     -0.415600
      5 C6'         1.0570   -1.6870    0.6100 c3        1 AHU      0.112400
      6 C1'         0.4620   -0.5890    1.4860 c3        1 AHU      0.074700
      7 C2'        -1.0120   -0.5880    1.4590 c3        1 AHU     -0.136400
      8 C3'        -1.5480   -0.5710    0.0790 c3        1 AHU      0.109100
      9 O3'        -2.9730   -0.7530    0.1320 oh        1 AHU     -0.588800
     10 N1          0.9460    0.7080    1.0090 n         1 AHU     -0.367000
     11 C6          1.7950    0.7780   -0.1390 cc        1 AHU      0.090600
     12 C2          0.5820    1.9210    1.7190 c         1 AHU      0.803500
     13 O2          0.0590    1.8470    2.8020 o         1 AHU     -0.637500
     14 N3          0.9820    3.2480    1.1780 n         1 AHU     -0.582500
     15 C4          1.7620    3.3260    0.0200 c         1 AHU      0.730700
     16 O4          2.1580    4.4320   -0.3870 o         1 AHU     -0.589500
     17 C5          2.2140    2.0780   -0.6570 cd        1 AHU     -0.204400
     18 I           3.3400    2.1910   -2.4290 i         1 AHU     -0.064800
     19 H4'        -1.2650   -2.5320   -0.4800 h1        1 AHU      0.083700
     20 H7'1       -1.0000   -0.6520   -2.5560 h1        1 AHU      0.046200
     21 H7'2       -2.3510   -1.3980   -2.2310 h1        1 AHU      0.046200
     22 HO'7       -1.5240   -2.6410   -3.7120 ho        1 AHU      0.406000
     23 H6'1        2.0440   -1.5690    0.5680 h1        1 AHU      0.073200
     24 H6'2        0.8550   -2.5680    1.0210 h1        1 AHU      0.073200
     25 H1'         0.7690   -0.7230    2.4270 h1        1 AHU      0.108700
     26 H2'1       -1.3370   -1.3950    1.9160 hc        1 AHU      0.071700
     27 H2'2       -1.3430    0.2070    1.9390 hc        1 AHU      0.071700
     28 H3'        -1.3530    0.3050   -0.3270 h1        1 AHU      0.044700
     29 HO'3       -3.3650    0.0240    0.2550 ho        1 AHU      0.409000
     30 H6          2.0870   -0.0380   -0.5800 h4        1 AHU      0.199000
     31 HN3         0.7540    4.0060    1.6230 hn        1 AHU      0.356500
@<TRIPOS>BOND
     1    1    2 1   
     2    1    4 1   
     3    1    8 1   
     4    1   19 1   
     5    2    3 1   
     6    2   20 1   
     7    2   21 1   
     8    3   22 1   
     9    4    5 1   
    10    5    6 1   
    11    5   23 1   
    12    5   24 1   
    13    6    7 1   
    14    6   10 1   
    15    6   25 1   
    16    7    8 1   
    17    7   26 1   
    18    7   27 1   
    19    8    9 1   
    20    8   28 1   
    21    9   29 1   
    22   10   11 1   
    23   10   12 1   
    24   11   17 2   
    25   11   30 1   
    26   12   13 2   
    27   12   14 1   
    28   14   15 1   
    29   14   31 1   
    30   15   16 2   
    31   15   17 1   
    32   17   18 1   
@<TRIPOS>SUBSTRUCTURE
     1 AHU         1 TEMP              0 ****  ****    0 ROOT
