@<TRIPOS>MOLECULE
AHX
   51    53     1     0     0
SMALL
bcc


@<TRIPOS>ATOM
      1 N10         2.6540    1.3980   -0.0520 n4        1 AHX     -0.827600
      2 CA          2.7080    0.0700   -0.7320 c3        1 AHX     -0.047500
      3 CB          2.2910   -1.0640    0.2660 c3        1 AHX      0.159400
      4 OG          3.2810   -1.1210    1.2490 oh        1 AHX     -0.602800
      5 C9          1.8780    0.0290   -1.9970 c         1 AHX      0.520100
      6 O9          0.9230    0.7590   -2.2430 o         1 AHX     -0.442100
      7 N8          2.2790   -0.9770   -3.0500 n4        1 AHX     -0.351300
      8 PA          4.6260   -2.2000   -2.5860 p5        1 AHX      1.461800
      9 O1A         4.7720   -1.2550   -3.7060 o         1 AHX     -0.792500
     10 O2A         4.7430   -1.8250   -1.1700 o         1 AHX     -0.792500
     11 O3A         2.8110   -2.0640   -2.5390 os        1 AHX     -0.371700
     12 O5'         4.8210   -3.7290   -2.9530 os        1 AHX     -0.551200
     13 C5'         5.1470   -4.0850   -4.2840 c3        1 AHX      0.151400
     14 C4'         6.5920   -4.5980   -4.3330 c3        1 AHX      0.073100
     15 O4'         6.6480   -5.6810   -5.2690 os        1 AHX     -0.403600
     16 C3'         7.6140   -3.5220   -4.7570 c3        1 AHX      0.117100
     17 O3'         8.4260   -3.1370   -3.6770 oh        1 AHX     -0.587800
     18 C2'         8.3780   -4.1340   -5.9500 c3        1 AHX      0.087100
     19 O2'         9.6410   -4.5660   -5.4910 oh        1 AHX     -0.596800
     20 C1'         7.5390   -5.3900   -6.3560 c3        1 AHX      0.232800
     21 N9          6.7820   -5.2200   -7.5740 na        1 AHX     -0.301000
     22 C8          5.4260   -5.5660   -7.8030 cc        1 AHX      0.412700
     23 N7          5.0510   -5.4390   -9.0830 nd        1 AHX     -0.539100
     24 C5          6.2030   -5.0150   -9.7630 ca        1 AHX     -0.232200
     25 C6          6.4700   -4.7180  -11.1430 ca        1 AHX      0.766200
     26 N6          5.4640   -4.7760  -12.0700 nh        1 AHX     -0.947500
     27 N1          7.7450   -4.3430  -11.5040 nb        1 AHX     -0.787000
     28 C2          8.6810   -4.2640  -10.5240 ca        1 AHX      0.697900
     29 N3          8.5760   -4.5040   -9.1940 nb        1 AHX     -0.763000
     30 C4          7.3150   -4.8840   -8.8290 ca        1 AHX      0.458800
     31 HN11        3.0630    1.2680    0.8900 hn        1 AHX      0.475133
     32 HN12        3.2000    2.0950   -0.5670 hn        1 AHX      0.475133
     33 HA          3.8160   -0.1550   -0.9860 hx        1 AHX      0.222700
     34 HB1         2.1870   -2.0230   -0.3070 h1        1 AHX      0.099700
     35 HB2         1.3300   -0.8080    0.7870 h1        1 AHX      0.099700
     36 HOG         4.0180   -1.6690    0.9120 ho        1 AHX      0.486000
     37 HN8         1.4230   -1.2370   -3.5840 hn        1 AHX      0.495300
     38 H5'1        4.9900   -3.2030   -4.9620 h1        1 AHX      0.074200
     39 H5'2        4.4530   -4.9270   -4.5690 h1        1 AHX      0.074200
     40 H4'         6.8670   -5.0430   -3.3350 h1        1 AHX      0.104700
     41 H3'         7.1030   -2.5710   -5.0820 h1        1 AHX      0.096700
     42 HO3'        9.1060   -3.8140   -3.5450 ho        1 AHX      0.437000
     43 H2'         8.4820   -3.3890   -6.7800 h1        1 AHX      0.098700
     44 HO2'       10.2290   -4.5940   -6.2580 ho        1 AHX      0.440000
     45 H1'         8.2040   -6.3030   -6.4510 h2        1 AHX      0.111700
     46 H8          4.7920   -5.9070   -6.9750 h5        1 AHX      0.078800
     47 HN61        5.6650   -4.6590  -13.0340 hn        1 AHX      0.450800
     48 HN62        4.5950   -5.1680  -11.8020 hn        1 AHX      0.450800
     49 H2          9.6930   -3.9590  -10.8730 h5        1 AHX      0.058100
     50 H103        1.6860    1.7250    0.0400 hn        1 AHX      0.475133
     51 H82         2.9890   -0.5210   -3.7110 hn        1 AHX      0.495300
@<TRIPOS>BOND
     1    1    2 1   
     2    1   31 1   
     3    1   32 1   
     4    1   50 1   
     5    2    3 1   
     6    2    5 1   
     7    2   33 1   
     8    3    4 1   
     9    3   34 1   
    10    3   35 1   
    11    4   36 1   
    12    5    6 2   
    13    5    7 1   
    14    7   11 1   
    15    7   37 1   
    16    7   51 1   
    17    8    9 1   
    18    8   10 1   
    19    8   11 1   
    20    8   12 1   
    21   12   13 1   
    22   13   14 1   
    23   13   38 1   
    24   13   39 1   
    25   14   15 1   
    26   14   16 1   
    27   14   40 1   
    28   15   20 1   
    29   16   17 1   
    30   16   18 1   
    31   16   41 1   
    32   17   42 1   
    33   18   19 1   
    34   18   20 1   
    35   18   43 1   
    36   19   44 1   
    37   20   21 1   
    38   20   45 1   
    39   21   22 1   
    40   21   30 1   
    41   22   23 2   
    42   22   46 1   
    43   23   24 1   
    44   24   25 ar  
    45   24   30 ar  
    46   25   26 1   
    47   25   27 ar  
    48   26   47 1   
    49   26   48 1   
    50   27   28 ar  
    51   28   29 ar  
    52   28   49 1   
    53   29   30 ar  
@<TRIPOS>SUBSTRUCTURE
     1 AHX         1 TEMP              0 ****  ****    0 ROOT
