@<TRIPOS>MOLECULE
AHX
   49    46     1     0     0
SMALL
bcc


@<TRIPOS>ATOM
      1 N10        -1.0220    3.0770    7.9060 n3        1 AHX     -0.912800
      2 CA          0.1150    2.8090    7.1440 c3        1 AHX      0.094500
      3 CB          1.2440    2.2940    8.0820 c3        1 AHX      0.126400
      4 OG          1.6500    3.3050    8.9040 oh        1 AHX     -0.621800
      5 C9         -0.2040    1.7500    6.1120 c         1 AHX      0.627100
      6 O9         -0.6480    0.7030    6.4590 o         1 AHX     -0.570100
      7 N8         -0.0860    2.0560    4.6780 n         1 AHX     -0.301400
      8 PA         -0.2550    1.6660    2.2660 p4        1 AHX      1.816100
      9 O1A        -1.4700    2.6370    2.0280 o         1 AHX     -0.868300
     10 O2A         1.0720    2.4520    2.1110 os        1 AHX     -1.164000
     11 O3A        -0.3420    1.0590    3.7260 os        1 AHX     -0.398500
     12 O5'        -0.3030    0.4730    1.1870 os        1 AHX     -0.558200
     13 C5'         0.1280    0.7220   -0.0680 c3        1 AHX      0.196400
     14 C4'         0.3740   -0.6410   -0.8150 c3        1 AHX      0.062100
     15 O4'        -0.4960   -0.7940   -1.7750 os        1 AHX     -0.417600
     16 C3'         1.7220   -0.6170   -1.5020 c3        1 AHX      0.112100
     17 O3'         2.5660   -1.4460   -0.8910 oh        1 AHX     -0.632800
     18 C2'         1.4500   -1.1080   -2.9970 c3        1 AHX      0.111100
     19 O2'         2.4210   -2.1630   -3.3740 oh        1 AHX     -0.588800
     20 C1'         0.2890   -1.5720   -2.9780 c3        1 AHX      0.211800
     21 N9         -0.3630   -1.3200   -4.2370 n3        1 AHX     -0.110400
     22 C8         -0.8570   -0.1610   -4.7360 c1        1 AHX      0.193400
     23 N7         -1.6030   -0.4590   -5.8180 ne        1 AHX     -0.409400
     24 C5         -1.5730   -1.8190   -5.9950 cg        1 AHX     -0.178000
     25 C6         -2.2320   -2.6500   -6.8880 c1        1 AHX      0.592600
     26 N6         -2.8940   -2.3090   -8.1320 n3        1 AHX     -0.808400
     27 N1         -2.1060   -4.0080   -6.7790 n1        1 AHX     -0.598800
     28 C2         -1.3320   -4.5470   -5.7920 c1        1 AHX      0.388300
     29 N3         -0.6840   -3.7330   -4.9160 n1        1 AHX     -0.517800
     30 C4         -0.8120   -2.3460   -5.0250 c1        1 AHX      0.009700
     31 HN11       -1.6870    3.4260    7.3660 hn        1 AHX      0.361300
     32 HN12       -0.8100    3.6950    8.5780 hn        1 AHX      0.361300
     33 HA          0.4100    3.6250    6.6960 h1        1 AHX      0.052700
     34 HB1         1.9920    1.9900    7.5530 h1        1 AHX      0.049700
     35 HB2         0.8800    1.4990    8.6630 h1        1 AHX      0.049700
     36 HOG         2.3900    3.1260    9.2130 ho        1 AHX      0.399000
     37 HN8         0.0710    2.9260    4.4020 hn        1 AHX      0.286500
     38 H5'1        0.9480    1.2190   -0.0310 h1        1 AHX      0.026700
     39 H5'2       -0.5600    1.2550   -0.5600 h1        1 AHX      0.026700
     40 H4'         0.3210   -1.4340   -0.1480 h1        1 AHX      0.101700
     41 H3'         2.0680    0.2560   -1.5050 h1        1 AHX      0.088700
     42 HO3'        3.3700   -1.0810   -0.8650 ho        1 AHX      0.481000
     43 H2'         1.5040   -0.3900   -3.5900 h1        1 AHX      0.086700
     44 HO2'        3.1960   -1.7720   -3.6870 ho        1 AHX      0.429000
     45 H1'         0.3130   -2.5350   -2.8000 h2        1 AHX      0.116700
     46 H8         -0.6210    0.7560   -4.4240 DU        1 AHX      0.217000
     47 HN61       -3.2270   -2.9790   -8.6750 hn        1 AHX      0.428800
     48 HN62       -3.0680   -1.3630   -8.3540 hn        1 AHX      0.428800
     49 H2         -1.2420   -5.5280   -5.7150 ha        1 AHX      0.121500
@<TRIPOS>BOND
     1    1    2 1   
     2    1   31 1   
     3    1   32 1   
     4    2    3 1   
     5    2    5 1   
     6    2   33 1   
     7    3    4 1   
     8    3   34 1   
     9    3   35 1   
    10    4   36 1   
    11    5    6 2   
    12    5    7 1   
    13    7   11 1   
    14    7   37 1   
    15    8    9 2   
    16    8   11 1   
    17    8   12 1   
    18   12   13 1   
    19   13   14 1   
    20   13   38 1   
    21   13   39 1   
    22   14   15 1   
    23   14   16 1   
    24   14   40 1   
    25   15   20 1   
    26   16   17 1   
    27   16   18 1   
    28   16   41 1   
    29   17   42 1   
    30   18   19 1   
    31   18   20 1   
    32   18   43 1   
    33   19   44 1   
    34   20   21 1   
    35   20   45 1   
    36   21   22 2   
    37   21   30 1   
    38   22   23 2   
    39   23   24 1   
    40   24   30 3   
    41   25   26 1   
    42   25   27 3   
    43   26   47 1   
    44   26   48 1   
    45   28   29 3   
    46   28   49 1   
@<TRIPOS>SUBSTRUCTURE
     1 AHX         1 TEMP              0 ****  ****    0 ROOT
