@<TRIPOS>MOLECULE
AHX
   49    51     1     0     0
SMALL
bcc


@<TRIPOS>ATOM
      1 N10         2.7210    0.2050   -6.3820 n3        1 AHX     -0.900800
      2 CA          1.6090    0.5080   -5.5010 c3        1 AHX      0.059500
      3 CB          0.2040    0.3590   -6.1360 c3        1 AHX      0.073400
      4 OG          0.0910    1.2310   -7.2460 oh        1 AHX     -0.616800
      5 C9          1.6030   -0.3860   -4.2510 c         1 AHX      0.601100
      6 O9          1.8050   -1.6040   -4.3300 o         1 AHX     -0.547100
      7 N8          1.2380    0.3330   -3.0340 n         1 AHX     -0.279400
      8 PA         -1.0620    0.1250   -2.0050 p5        1 AHX      1.460800
      9 O1A        -1.0500    1.0670   -0.8640 o         1 AHX     -0.829500
     10 O2A        -1.6560    0.3340   -3.3320 o         1 AHX     -0.829500
     11 O3A         0.5440   -0.4040   -2.1850 os        1 AHX     -0.437500
     12 O5'        -1.6050   -1.2860   -1.3550 os        1 AHX     -0.561200
     13 C5'        -1.1390   -1.6020   -0.0800 c3        1 AHX      0.186400
     14 C4'        -2.2640   -1.5340    0.9660 c3        1 AHX      0.080100
     15 O4'        -1.6850   -1.5000    2.2820 os        1 AHX     -0.425600
     16 C3'        -3.1520   -0.2860    0.8370 c3        1 AHX      0.090100
     17 O3'        -4.5220   -0.5620    1.0340 oh        1 AHX     -0.595800
     18 C2'        -2.6300    0.6900    1.9140 c3        1 AHX      0.076100
     19 O2'        -3.6710    1.1450    2.7610 oh        1 AHX     -0.609800
     20 C1'        -1.6830   -0.1640    2.8130 c3        1 AHX      0.250800
     21 N9         -0.3450    0.3650    2.9190 na        1 AHX     -0.276000
     22 C8          0.4380    1.0170    1.9270 cc        1 AHX      0.438700
     23 N7          1.6860    1.2940    2.3300 nd        1 AHX     -0.577100
     24 C5          1.7740    0.7950    3.6390 ca        1 AHX     -0.211200
     25 C6          2.8320    0.7740    4.6010 ca        1 AHX      0.718200
     26 N6          4.0330    1.4100    4.3250 nh        1 AHX     -0.937500
     27 N1          2.6160    0.1710    5.8160 nb        1 AHX     -0.796000
     28 C2          1.3770   -0.3440    6.0450 ca        1 AHX      0.658900
     29 N3          0.2860   -0.3850    5.2480 nb        1 AHX     -0.719000
     30 C4          0.5020    0.1900    4.0260 ca        1 AHX      0.451800
     31 HN11        2.5120    0.5640   -7.2970 hn        1 AHX      0.352300
     32 HN12        2.8480   -0.7880   -6.4500 hn        1 AHX      0.352300
     33 HA          1.7360    1.5910   -5.2010 h1        1 AHX      0.077700
     34 HB1         0.0720   -0.6720   -6.5610 h1        1 AHX      0.094700
     35 HB2        -0.5960    0.5550   -5.3680 h1        1 AHX      0.094700
     36 HOG        -0.0890    2.1100   -6.8930 ho        1 AHX      0.399000
     37 HN8         2.1290    0.5860   -2.5920 hn        1 AHX      0.251500
     38 H5'1       -0.7500   -2.6590   -0.1030 h1        1 AHX      0.043200
     39 H5'2       -0.3070   -0.9060    0.2220 h1        1 AHX      0.043200
     40 H4'        -2.8800   -2.4730    0.9400 h1        1 AHX      0.077700
     41 H3'        -3.0720    0.1610   -0.1960 h1        1 AHX      0.135700
     42 HO3'       -4.6060   -0.9900    1.8960 ho        1 AHX      0.400000
     43 H2'        -2.1160    1.5610    1.4250 h1        1 AHX      0.111700
     44 HO2'       -4.4000    1.4060    2.1800 ho        1 AHX      0.420000
     45 H1'        -2.0980   -0.2640    3.8620 h2        1 AHX      0.114700
     46 H8          0.0120    1.2680    0.9280 h5        1 AHX      0.153800
     47 HN61        4.8190    1.1740    4.8830 hn        1 AHX      0.421800
     48 HN62        4.2100    1.5910    3.3640 hn        1 AHX      0.421800
     49 H2          1.2500   -0.8100    7.0450 h5        1 AHX      0.038100
@<TRIPOS>BOND
     1    1    2 1   
     2    1   31 1   
     3    1   32 1   
     4    2    3 1   
     5    2    5 1   
     6    2   33 1   
     7    3    4 1   
     8    3   34 1   
     9    3   35 1   
    10    4   36 1   
    11    5    6 2   
    12    5    7 1   
    13    7   11 1   
    14    7   37 1   
    15    8    9 1   
    16    8   10 1   
    17    8   11 1   
    18    8   12 1   
    19   12   13 1   
    20   13   14 1   
    21   13   38 1   
    22   13   39 1   
    23   14   15 1   
    24   14   16 1   
    25   14   40 1   
    26   15   20 1   
    27   16   17 1   
    28   16   18 1   
    29   16   41 1   
    30   17   42 1   
    31   18   19 1   
    32   18   20 1   
    33   18   43 1   
    34   19   44 1   
    35   20   21 1   
    36   20   45 1   
    37   21   22 1   
    38   21   30 1   
    39   22   23 2   
    40   22   46 1   
    41   23   24 1   
    42   24   25 ar  
    43   24   30 ar  
    44   25   26 1   
    45   25   27 ar  
    46   26   47 1   
    47   26   48 1   
    48   27   28 ar  
    49   28   29 ar  
    50   28   49 1   
    51   29   30 ar  
@<TRIPOS>SUBSTRUCTURE
     1 AHX         1 TEMP              0 ****  ****    0 ROOT
