@<TRIPOS>MOLECULE
AHX
   52    54     1     0     0
SMALL
bcc


@<TRIPOS>ATOM
      1 N10         2.7270    0.4440    1.5380 n4        1 AHX     -0.828600
      2 CA          2.6400   -0.3230    0.2580 c3        1 AHX     -0.041500
      3 CB          1.8910   -1.6790    0.4980 c3        1 AHX      0.157400
      4 OG          2.7190   -2.4570    1.3080 oh        1 AHX     -0.595800
      5 C9          2.0000    0.4780   -0.8540 c         1 AHX      0.520100
      6 O9          1.2440    1.4310   -0.7030 o         1 AHX     -0.427100
      7 N8          2.3330    0.0850   -2.2780 n4        1 AHX     -0.353300
      8 PA          4.2810   -1.7330   -2.5390 p5        1 AHX      1.456800
      9 O1A         4.7590   -0.4680   -3.1150 o         1 AHX     -0.789500
     10 O2A         4.3390   -2.1080   -1.1220 o         1 AHX     -0.789500
     11 O3A         2.5570   -1.2040   -2.4140 os        1 AHX     -0.369700
     12 O5'         4.2040   -2.9330   -3.5860 os        1 AHX     -0.550200
     13 C5'         4.7260   -2.7570   -4.8850 c3        1 AHX      0.167400
     14 C4'         5.9450   -3.6720   -5.0520 c3        1 AHX      0.109100
     15 O4'         5.7600   -4.4200   -6.2690 os        1 AHX     -0.417600
     16 C3'         7.2910   -2.9300   -5.1660 c3        1 AHX      0.074100
     17 O3'         7.9790   -3.1410   -3.9500 oh        1 AHX     -0.591800
     18 C2'         8.0360   -3.6000   -6.3420 c3        1 AHX      0.079100
     19 O2'         9.2510   -4.1770   -5.9510 oh        1 AHX     -0.561800
     20 C1'         7.0400   -4.6890   -6.8680 c3        1 AHX      0.215800
     21 N9          6.8730   -4.7130   -8.3050 na        1 AHX     -0.255000
     22 C8          6.0120   -3.9270   -9.1010 cc        1 AHX      0.513700
     23 N7          6.0400   -4.2340  -10.4120 nd        1 AHX     -0.581100
     24 C5          6.9500   -5.2910  -10.5130 ca        1 AHX     -0.136200
     25 C6          7.4390   -6.0730  -11.5760 ca        1 AHX      0.526200
     26 N6          6.9520   -5.7960  -12.9400 n4        1 AHX     -0.816300
     27 N1          8.3380   -7.0680  -11.3800 nb        1 AHX     -0.671000
     28 C2          8.7520   -7.2820  -10.0970 ca        1 AHX      0.680900
     29 N3          8.3860   -6.6220   -8.9670 nb        1 AHX     -0.613000
     30 C4          7.4890   -5.6280   -9.1760 ca        1 AHX      0.464800
     31 HN11        1.8260    0.8790    1.7680 hn        1 AHX      0.478133
     32 HN12        3.4490    1.1680    1.4850 hn        1 AHX      0.478133
     33 HA          3.7130   -0.6260   -0.0490 hx        1 AHX      0.218700
     34 HB1         0.9370   -1.5170    1.0700 h1        1 AHX      0.101200
     35 HB2         1.6760   -2.1520   -0.4960 h1        1 AHX      0.101200
     36 HOG         3.3760   -2.9050    0.7400 ho        1 AHX      0.481000
     37 HN8         1.5210    0.3510   -2.8760 hn        1 AHX      0.493800
     38 H5'1        4.9900   -1.6770   -5.0500 h1        1 AHX      0.079700
     39 H5'2        3.9220   -3.0830   -5.6060 h1        1 AHX      0.079700
     40 H4'         5.9830   -4.4190   -4.2070 h1        1 AHX      0.112700
     41 H3'         7.1550   -1.8320   -5.3550 h1        1 AHX      0.077700
     42 HO3'        8.8230   -2.6680   -4.0130 ho        1 AHX      0.438000
     43 H2'         8.3150   -2.8530   -7.1330 h1        1 AHX      0.108700
     44 HO2'        9.0950   -4.7200   -5.1620 ho        1 AHX      0.429000
     45 H1'         7.3740   -5.7210   -6.5390 h2        1 AHX      0.119700
     46 H8          5.3780   -3.1460   -8.6490 h5        1 AHX      0.105800
     47 HN61        5.9260   -5.8550  -12.9400 hn        1 AHX      0.480800
     48 HN62        7.2350   -4.8430  -13.2010 hn        1 AHX      0.480800
     49 H2          9.4910   -8.1100   -9.9660 h5        1 AHX      0.107100
     50 H103        2.9760   -0.2370    2.2780 hn        1 AHX      0.478133
     51 H82         3.1950    0.6250   -2.5990 hn        1 AHX      0.493800
     52 H63         7.3380   -6.4680  -13.6170 hn        1 AHX      0.480800
@<TRIPOS>BOND
     1    1    2 1   
     2    1   31 1   
     3    1   32 1   
     4    1   50 1   
     5    2    3 1   
     6    2    5 1   
     7    2   33 1   
     8    3    4 1   
     9    3   34 1   
    10    3   35 1   
    11    4   36 1   
    12    5    6 2   
    13    5    7 1   
    14    7   11 1   
    15    7   37 1   
    16    7   51 1   
    17    8    9 1   
    18    8   10 1   
    19    8   11 1   
    20    8   12 1   
    21   12   13 1   
    22   13   14 1   
    23   13   38 1   
    24   13   39 1   
    25   14   15 1   
    26   14   16 1   
    27   14   40 1   
    28   15   20 1   
    29   16   17 1   
    30   16   18 1   
    31   16   41 1   
    32   17   42 1   
    33   18   19 1   
    34   18   20 1   
    35   18   43 1   
    36   19   44 1   
    37   20   21 1   
    38   20   45 1   
    39   21   22 1   
    40   21   30 1   
    41   22   23 2   
    42   22   46 1   
    43   23   24 1   
    44   24   25 ar  
    45   24   30 ar  
    46   25   26 1   
    47   25   27 ar  
    48   26   47 1   
    49   26   48 1   
    50   26   52 1   
    51   27   28 ar  
    52   28   29 ar  
    53   28   49 1   
    54   29   30 ar  
@<TRIPOS>SUBSTRUCTURE
     1 AHX         1 TEMP              0 ****  ****    0 ROOT
