@<TRIPOS>MOLECULE
AHX
   51    53     1     0     0
SMALL
bcc


@<TRIPOS>ATOM
      1 N10         1.2540    0.0090   -3.4490 nz        1 AHX     -0.826600
      2 CA          2.3720   -0.9230   -3.1150 c3        1 AHX     -0.041500
      3 CB          2.4480   -1.1570   -1.5700 c3        1 AHX      0.158400
      4 OG          2.8040    0.0620   -0.9890 oh        1 AHX     -0.606800
      5 C9          2.2690   -2.2400   -3.8580 c         1 AHX      0.523100
      6 O9          1.2210   -2.7480   -4.2410 o         1 AHX     -0.436100
      7 N8          3.5630   -2.9610   -4.1490 ny        1 AHX     -0.347300
      8 PA          5.7530   -1.5490   -3.4930 p5        1 AHX      1.456800
      9 O1A         5.5470   -1.4520   -4.9480 o         1 AHX     -0.801500
     10 O2A         5.1420   -0.6080   -2.5430 o         1 AHX     -0.801500
     11 O3A         4.4670   -2.7800   -3.2100 os        1 AHX     -0.369700
     12 O5'         7.1230   -2.2330   -3.0590 os        1 AHX     -0.544200
     13 C5'         8.0830   -2.4910   -4.0640 c3        1 AHX      0.143400
     14 C4'         8.4940   -3.9640   -4.0530 c3        1 AHX      0.090100
     15 O4'         7.3620   -4.8230   -4.2270 os        1 AHX     -0.432600
     16 C3'         9.4990   -4.2510   -5.1860 c3        1 AHX      0.091100
     17 O3'        10.7090   -4.7830   -4.7050 oh        1 AHX     -0.575800
     18 C2'         8.7870   -5.2420   -6.1360 c3        1 AHX      0.090100
     19 O2'         9.4680   -6.4840   -6.1600 oh        1 AHX     -0.595800
     20 C1'         7.4160   -5.5400   -5.4710 c3        1 AHX      0.239800
     21 N9          6.2470   -5.2240   -6.2640 na        1 AHX     -0.269000
     22 C8          4.9810   -5.8120   -5.9630 cc        1 AHX      0.434700
     23 N7          3.9310   -5.1000   -6.3810 nd        1 AHX     -0.591100
     24 C5          4.4810   -3.9440   -6.9680 ca        1 AHX     -0.267200
     25 C6          3.8940   -2.8160   -7.6200 ca        1 AHX      0.689200
     26 N6          2.5000   -2.6650   -7.6160 nv        1 AHX     -0.932500
     27 N1          4.7130   -1.8510   -8.1390 nb        1 AHX     -0.744000
     28 C2          6.0560   -2.0160   -7.9960 ca        1 AHX      0.724900
     29 N3          6.7450   -3.0270   -7.4090 nb        1 AHX     -0.709000
     30 C4          5.9420   -3.9970   -6.8970 ca        1 AHX      0.480800
     31 HN11        0.3500   -0.4740   -3.4000 hn        1 AHX      0.474133
     32 HN12        1.2770    0.7680   -2.7470 hn        1 AHX      0.474133
     33 HA          3.3640   -0.3950   -3.3840 hx        1 AHX      0.210700
     34 HB1         3.1960   -1.9700   -1.3740 h1        1 AHX      0.098700
     35 HB2         1.4410   -1.4340   -1.1550 h1        1 AHX      0.098700
     36 HOG         3.7780    0.1430   -1.0200 ho        1 AHX      0.487000
     37 HN8         3.9440   -2.6080   -5.0860 hn        1 AHX      0.504300
     38 H5'1        7.6810   -2.1880   -5.0690 h1        1 AHX      0.078200
     39 H5'2        9.0000   -1.8850   -3.8090 h1        1 AHX      0.078200
     40 H4'         8.9110   -4.2320   -3.0420 h1        1 AHX      0.105700
     41 H3'         9.7990   -3.3120   -5.7280 h1        1 AHX      0.109700
     42 HO3'       10.5150   -5.6280   -4.2730 ho        1 AHX      0.422000
     43 H2'         8.6980   -4.8270   -7.1740 h1        1 AHX      0.099700
     44 HO2'       10.3380   -6.3200   -6.5510 ho        1 AHX      0.436000
     45 H1'         7.3430   -6.6390   -5.1990 h2        1 AHX      0.120700
     46 H8          4.9260   -6.7940   -5.4710 h5        1 AHX      0.090800
     47 HN61        2.1520   -1.9930   -8.2720 hn        1 AHX      0.415800
     48 HN62        2.0150   -3.5390   -7.6680 hn        1 AHX      0.415800
     49 H2          6.6770   -1.1980   -8.4250 h5        1 AHX      0.069100
     50 H103        1.3790    0.4040   -4.3850 hn        1 AHX      0.474133
     51 H82         3.3480   -3.9800   -4.2200 hn        1 AHX      0.504300
@<TRIPOS>BOND
     1    1    2 1   
     2    1   31 1   
     3    1   32 1   
     4    1   50 1   
     5    2    3 1   
     6    2    5 1   
     7    2   33 1   
     8    3    4 1   
     9    3   34 1   
    10    3   35 1   
    11    4   36 1   
    12    5    6 2   
    13    5    7 1   
    14    7   11 1   
    15    7   37 1   
    16    7   51 1   
    17    8    9 1   
    18    8   10 1   
    19    8   11 1   
    20    8   12 1   
    21   12   13 1   
    22   13   14 1   
    23   13   38 1   
    24   13   39 1   
    25   14   15 1   
    26   14   16 1   
    27   14   40 1   
    28   15   20 1   
    29   16   17 1   
    30   16   18 1   
    31   16   41 1   
    32   17   42 1   
    33   18   19 1   
    34   18   20 1   
    35   18   43 1   
    36   19   44 1   
    37   20   21 1   
    38   20   45 1   
    39   21   22 1   
    40   21   30 1   
    41   22   23 2   
    42   22   46 1   
    43   23   24 1   
    44   24   25 ar  
    45   24   30 ar  
    46   25   26 1   
    47   25   27 ar  
    48   26   47 1   
    49   26   48 1   
    50   27   28 ar  
    51   28   29 ar  
    52   28   49 1   
    53   29   30 ar  
@<TRIPOS>SUBSTRUCTURE
     1 AHX         1 TEMP              0 ****  ****    0 ROOT
