@<TRIPOS>MOLECULE
AHY
   34    33     1     0     0
SMALL
bcc


@<TRIPOS>ATOM
      1 C10        -5.1440   -0.7440   -2.3560 c3        1 AHY     -0.091100
      2 C9         -3.6430   -0.9040   -2.4720 c3        1 AHY     -0.080400
      3 C8         -2.9690   -0.1720   -1.3320 c3        1 AHY     -0.079400
      4 C7         -1.5100   -0.5730   -1.2690 c3        1 AHY     -0.078400
      5 C6         -0.7840    0.3190   -0.2840 c3        1 AHY     -0.079400
      6 C5          0.5890   -0.2550    0.0010 c3        1 AHY     -0.073400
      7 C4          1.4320    0.7820    0.7110 c3        1 AHY     -0.071400
      8 C3          2.6940    0.1330    1.2380 c3        1 AHY      0.152500
      9 N3          3.7150    0.2130    0.2520 n3        1 AHY     -0.902800
     10 C2          3.1450    0.8500    2.4890 c3        1 AHY     -0.016900
     11 OH2         2.3190    0.4780    3.5660 oh        1 AHY     -0.642800
     12 C1          4.5760    0.4730    2.7980 c         1 AHY      0.889600
     13 O           5.4950    1.3240    2.6610 o         1 AHY     -0.836300
     14 OXT         4.8460   -0.6840    3.2150 o         1 AHY     -0.836300
     15 H101       -5.3680    0.2090   -2.3010 hc        1 AHY      0.027700
     16 H102       -5.4600   -1.2010   -1.5500 hc        1 AHY      0.027700
     17 H103       -5.5760   -1.1360   -3.1440 hc        1 AHY      0.027700
     18 H9C1       -3.3400   -0.5290   -3.3240 hc        1 AHY      0.036700
     19 H9C2       -3.4120   -1.8530   -2.4330 hc        1 AHY      0.036700
     20 H8C1       -3.0360    0.7920   -1.4780 hc        1 AHY      0.036200
     21 H8C2       -3.4080   -0.4060   -0.4900 hc        1 AHY      0.036200
     22 H7C1       -1.1060   -0.4760   -2.1540 hc        1 AHY      0.037200
     23 H7C2       -1.4390   -1.5040   -0.9780 hc        1 AHY      0.037200
     24 H6C1       -1.2960    0.3700    0.5480 hc        1 AHY      0.033200
     25 H6C2       -0.6900    1.2140   -0.6640 hc        1 AHY      0.033200
     26 H5C1        0.5000   -1.0470    0.5690 hc        1 AHY      0.042200
     27 H5C2        1.0200   -0.5050   -0.8410 hc        1 AHY      0.042200
     28 H4C1        0.9250    1.1600    1.4560 hc        1 AHY      0.039200
     29 H4C2        1.6690    1.4940    0.0840 hc        1 AHY      0.039200
     30 H3          2.5150   -0.8050    1.4460 h1        1 AHY      0.050700
     31 H3N1        3.3980    0.6620   -0.4810 hn        1 AHY      0.350800
     32 H3N2        3.9690   -0.6330    0.0060 hn        1 AHY      0.350800
     33 H2O         2.2920    1.1390    4.1610 ho        1 AHY      0.425000
     34 H2          3.0850    1.8160    2.3510 h1        1 AHY      0.037700
@<TRIPOS>BOND
     1    1    2 1   
     2    1   15 1   
     3    1   16 1   
     4    1   17 1   
     5    2    3 1   
     6    2   18 1   
     7    2   19 1   
     8    3    4 1   
     9    3   20 1   
    10    3   21 1   
    11    4    5 1   
    12    4   22 1   
    13    4   23 1   
    14    5    6 1   
    15    5   24 1   
    16    5   25 1   
    17    6    7 1   
    18    6   26 1   
    19    6   27 1   
    20    7    8 1   
    21    7   28 1   
    22    7   29 1   
    23    8    9 1   
    24    8   10 1   
    25    8   30 1   
    26    9   31 1   
    27    9   32 1   
    28   10   11 1   
    29   10   12 1   
    30   10   34 1   
    31   11   33 1   
    32   12   13 1   
    33   12   14 1   
@<TRIPOS>SUBSTRUCTURE
     1 AHY         1 TEMP              0 ****  ****    0 ROOT
