@<TRIPOS>MOLECULE
AHY
   35    34     1     0     0
SMALL
bcc


@<TRIPOS>ATOM
      1 C10         0.0860   -0.0090    0.0140 c3        1 AHY     -0.093100
      2 C9          1.5910   -0.0730    0.0470 c3        1 AHY     -0.079400
      3 C8          2.1180   -0.0090    1.4650 c3        1 AHY     -0.080400
      4 C7          3.6300   -0.0740    1.4930 c3        1 AHY     -0.078400
      5 C6          4.1530   -0.0110    2.9120 c3        1 AHY     -0.079400
      6 C5          5.6660   -0.0780    2.9430 c3        1 AHY     -0.082400
      7 C4          6.1750    0.0000    4.3640 c3        1 AHY     -0.134400
      8 C3          7.6710   -0.2520    4.4700 c3        1 AHY      0.127500
      9 N3          8.4700    0.8360    3.7830 n4        1 AHY     -0.847600
     10 C2          8.0960   -0.3780    5.9480 c3        1 AHY     -0.039900
     11 OH2         9.4890   -0.1640    6.0490 oh        1 AHY     -0.669800
     12 C1          7.6990   -1.8260    6.4360 c         1 AHY      0.913600
     13 O           6.4780   -2.0950    6.4870 o         1 AHY     -0.775300
     14 OXT         8.6800   -2.5610    6.7050 o         1 AHY     -0.775300
     15 H101       -0.2790    0.9430    0.4720 hc        1 AHY      0.034367
     16 H102       -0.2820   -0.0570   -1.0390 hc        1 AHY      0.034367
     17 H103       -0.3570   -0.8620    0.5830 hc        1 AHY      0.034367
     18 H9C1        1.9380   -1.0230   -0.4390 hc        1 AHY      0.037700
     19 H9C2        2.0170    0.7770   -0.5490 hc        1 AHY      0.037700
     20 H8C1        1.7720    0.9400    1.9520 hc        1 AHY      0.044200
     21 H8C2        1.6950   -0.8600    2.0610 hc        1 AHY      0.044200
     22 H7C1        3.9740   -1.0250    1.0070 hc        1 AHY      0.037200
     23 H7C2        4.0530    0.7760    0.8950 hc        1 AHY      0.037200
     24 H6C1        3.8080    0.9380    3.4000 hc        1 AHY      0.054200
     25 H6C2        3.7310   -0.8630    3.5090 hc        1 AHY      0.054200
     26 H5C1        6.0820    0.7630    2.3260 hc        1 AHY      0.027200
     27 H5C2        6.0040   -1.0380    2.4700 hc        1 AHY      0.027200
     28 H4C1        5.9030    0.9860    4.8230 hc        1 AHY      0.108700
     29 H4C2        5.6850   -0.8040    5.0000 hc        1 AHY      0.108700
     30 H3          7.9440   -1.2110    3.9340 hx        1 AHY      0.107700
     31 H3N1        8.1680    1.7470    4.1280 hn        1 AHY      0.444467
     32 H3N2        8.3450    0.7920    2.7750 hn        1 AHY      0.444467
     33 H2O         9.8930   -0.9920    6.3780 ho        1 AHY      0.465000
     34 H2          7.5860    0.3990    6.5730 h1        1 AHY      0.068700
     35 H33         9.4580    0.6980    4.0350 hn        1 AHY      0.444467
@<TRIPOS>BOND
     1    1    2 1   
     2    1   15 1   
     3    1   16 1   
     4    1   17 1   
     5    2    3 1   
     6    2   18 1   
     7    2   19 1   
     8    3    4 1   
     9    3   20 1   
    10    3   21 1   
    11    4    5 1   
    12    4   22 1   
    13    4   23 1   
    14    5    6 1   
    15    5   24 1   
    16    5   25 1   
    17    6    7 1   
    18    6   26 1   
    19    6   27 1   
    20    7    8 1   
    21    7   28 1   
    22    7   29 1   
    23    8    9 1   
    24    8   10 1   
    25    8   30 1   
    26    9   31 1   
    27    9   32 1   
    28    9   35 1   
    29   10   11 1   
    30   10   12 1   
    31   10   34 1   
    32   11   33 1   
    33   12   13 1   
    34   12   14 1   
@<TRIPOS>SUBSTRUCTURE
     1 AHY         1 TEMP              0 ****  ****    0 ROOT
