@<TRIPOS>MOLECULE
AHY
   35    34     1     0     0
SMALL
bcc


@<TRIPOS>ATOM
      1 C10         0.0820   -0.0040    0.0210 c3        1 AHY     -0.093100
      2 C9          1.5870   -0.0750    0.0510 c3        1 AHY     -0.079400
      3 C8          2.1160   -0.0050    1.4680 c3        1 AHY     -0.080400
      4 C7          3.6280   -0.0770    1.4940 c3        1 AHY     -0.078400
      5 C6          4.1530   -0.0070    2.9120 c3        1 AHY     -0.079400
      6 C5          5.6660   -0.0820    2.9410 c3        1 AHY     -0.082400
      7 C4          6.1780    0.0040    4.3610 c3        1 AHY     -0.134400
      8 C3          7.6720   -0.2570    4.4670 c3        1 AHY      0.127500
      9 N3          8.4770    0.8210    3.7700 nz        1 AHY     -0.847600
     10 C2          8.1000   -0.3730    5.9450 c3        1 AHY     -0.039900
     11 OH2         9.4930   -0.1670    6.0420 oh        1 AHY     -0.669800
     12 C1          7.6940   -1.8150    6.4450 c         1 AHY      0.913600
     13 O           6.4710   -2.0760    6.5000 o         1 AHY     -0.775300
     14 OXT         8.6710   -2.5540    6.7190 o         1 AHY     -0.775300
     15 H101       -0.3640   -0.8520    0.5940 hc        1 AHY      0.034367
     16 H102       -0.2780    0.9520    0.4730 hc        1 AHY      0.034367
     17 H103       -0.2870   -0.0570   -1.0320 hc        1 AHY      0.034367
     18 H9C1        1.9290   -1.0300   -0.4290 hc        1 AHY      0.037700
     19 H9C2        2.0160    0.7700   -0.5500 hc        1 AHY      0.037700
     20 H8C1        1.7760    0.9490    1.9500 hc        1 AHY      0.044200
     21 H8C2        1.6900   -0.8510    2.0700 hc        1 AHY      0.044200
     22 H7C1        4.0550    0.7670    0.8900 hc        1 AHY      0.037200
     23 H7C2        3.9670   -1.0320    1.0140 hc        1 AHY      0.037200
     24 H6C1        3.7280   -0.8530    3.5150 hc        1 AHY      0.054200
     25 H6C2        3.8140    0.9470    3.3950 hc        1 AHY      0.054200
     26 H5C1        6.0860    0.7520    2.3180 hc        1 AHY      0.027200
     27 H5C2        5.9980   -1.0480    2.4750 hc        1 AHY      0.027200
     28 H4C1        5.6840   -0.7920    5.0040 hc        1 AHY      0.108700
     29 H4C2        5.9130    0.9950    4.8130 hc        1 AHY      0.108700
     30 H3          7.9380   -1.2210    3.9390 hx        1 AHY      0.107700
     31 H3N1        8.3500    0.7700    2.7620 hn        1 AHY      0.444467
     32 H3N2        8.1810    1.7360    4.1080 hn        1 AHY      0.444467
     33 H2O         9.8930   -0.9950    6.3780 ho        1 AHY      0.465000
     34 H2          7.5950    0.4120    6.5640 h1        1 AHY      0.068700
     35 H33         9.4650    0.6780    4.0210 hn        1 AHY      0.444467
@<TRIPOS>BOND
     1    1    2 1   
     2    1   15 1   
     3    1   16 1   
     4    1   17 1   
     5    2    3 1   
     6    2   18 1   
     7    2   19 1   
     8    3    4 1   
     9    3   20 1   
    10    3   21 1   
    11    4    5 1   
    12    4   22 1   
    13    4   23 1   
    14    5    6 1   
    15    5   24 1   
    16    5   25 1   
    17    6    7 1   
    18    6   26 1   
    19    6   27 1   
    20    7    8 1   
    21    7   28 1   
    22    7   29 1   
    23    8    9 1   
    24    8   10 1   
    25    8   30 1   
    26    9   31 1   
    27    9   32 1   
    28    9   35 1   
    29   10   11 1   
    30   10   12 1   
    31   10   34 1   
    32   11   33 1   
    33   12   13 1   
    34   12   14 1   
@<TRIPOS>SUBSTRUCTURE
     1 AHY         1 TEMP              0 ****  ****    0 ROOT
