@<TRIPOS>MOLECULE
AHY
   34    33     1     0     0
SMALL
bcc


@<TRIPOS>ATOM
      1 C10         7.7780    9.2870   -1.5180 c3        1 AHY     -0.091100
      2 C9          8.6800    8.1330   -1.1630 c3        1 AHY     -0.080400
      3 C8          7.9730    7.1220   -0.2860 c3        1 AHY     -0.079400
      4 C7          8.8820    5.9650    0.0680 c3        1 AHY     -0.078400
      5 C6          8.1720    4.9550    0.9440 c3        1 AHY     -0.079400
      6 C5          9.0770    3.7920    1.2930 c3        1 AHY     -0.074400
      7 C4          8.3700    2.8060    2.1970 c3        1 AHY     -0.120400
      8 C3          9.1250    1.4740    2.3270 c3        1 AHY      0.121500
      9 N3         10.4950    1.6030    2.8060 n3        1 AHY     -0.912800
     10 C2          8.2890    0.5160    3.2130 c3        1 AHY      0.027100
     11 OH2         8.8160   -0.7980    3.1840 oh        1 AHY     -0.584800
     12 C1          6.8140    0.4320    2.7040 c         1 AHY      0.929600
     13 O           6.6050    0.2900    1.4690 o         1 AHY     -0.831800
     14 OXT         5.9160    0.5620    3.5800 o         1 AHY     -0.831800
     15 H101        6.8770    8.9260   -2.0700 hc        1 AHY      0.028033
     16 H102        7.4340    9.8160   -0.5960 hc        1 AHY      0.028033
     17 H103        8.3180   10.0200   -2.1650 hc        1 AHY      0.028033
     18 H9C1        9.0340    7.6300   -2.1020 hc        1 AHY      0.035200
     19 H9C2        9.5910    8.5170   -0.6310 hc        1 AHY      0.035200
     20 H8C1        7.6180    7.6220    0.6530 hc        1 AHY      0.039700
     21 H8C2        7.0630    6.7350   -0.8170 hc        1 AHY      0.039700
     22 H7C1        9.7920    6.3510    0.5980 hc        1 AHY      0.032700
     23 H7C2        9.2350    5.4630   -0.8720 hc        1 AHY      0.032700
     24 H6C1        7.2600    4.5710    0.4160 hc        1 AHY      0.044700
     25 H6C2        7.8220    5.4530    1.8870 hc        1 AHY      0.044700
     26 H5C1       10.0030    4.1860    1.7900 hc        1 AHY      0.024200
     27 H5C2        9.4000    3.2730    0.3520 hc        1 AHY      0.024200
     28 H4C1        8.2210    3.2610    3.2110 hc        1 AHY      0.067200
     29 H4C2        7.3520    2.5730    1.7780 hc        1 AHY      0.067200
     30 H3          9.1730    0.9970    1.3030 h1        1 AHY      0.084700
     31 H3N1       10.4980    1.9910    3.7300 hn        1 AHY      0.324300
     32 H3N2       11.0020    2.2270    2.2080 hn        1 AHY      0.324300
     33 H2O         9.7390   -0.7380    3.4550 ho        1 AHY      0.372000
     34 H2          8.2870    0.8920    4.2740 h1        1 AHY      0.009700
@<TRIPOS>BOND
     1    1    2 1   
     2    1   15 1   
     3    1   16 1   
     4    1   17 1   
     5    2    3 1   
     6    2   18 1   
     7    2   19 1   
     8    3    4 1   
     9    3   20 1   
    10    3   21 1   
    11    4    5 1   
    12    4   22 1   
    13    4   23 1   
    14    5    6 1   
    15    5   24 1   
    16    5   25 1   
    17    6    7 1   
    18    6   26 1   
    19    6   27 1   
    20    7    8 1   
    21    7   28 1   
    22    7   29 1   
    23    8    9 1   
    24    8   10 1   
    25    8   30 1   
    26    9   31 1   
    27    9   32 1   
    28   10   11 1   
    29   10   12 1   
    30   10   34 1   
    31   11   33 1   
    32   12   13 1   
    33   12   14 1   
@<TRIPOS>SUBSTRUCTURE
     1 AHY         1 TEMP              0 ****  ****    0 ROOT
