@<TRIPOS>MOLECULE
AHY
   35    34     1     0     0
SMALL
bcc


@<TRIPOS>ATOM
      1 C10         0.0820   -0.0020    0.0210 c3        1 AHY     -0.093100
      2 C9          1.5870   -0.0650    0.0510 c3        1 AHY     -0.079400
      3 C8          2.1160   -0.0060    1.4680 c3        1 AHY     -0.080400
      4 C7          3.6280   -0.0700    1.4950 c3        1 AHY     -0.078400
      5 C6          4.1530   -0.0100    2.9130 c3        1 AHY     -0.079400
      6 C5          5.6660   -0.0780    2.9420 c3        1 AHY     -0.082400
      7 C4          6.1770   -0.0010    4.3620 c3        1 AHY     -0.134400
      8 C3          7.6720   -0.2560    4.4670 c3        1 AHY      0.127500
      9 N3          8.4730    0.8300    3.7790 n4        1 AHY     -0.847600
     10 C2          8.1000   -0.3820    5.9440 c3        1 AHY     -0.039900
     11 OH2         9.4920   -0.1710    6.0430 oh        1 AHY     -0.669800
     12 C1          7.7000   -1.8290    6.4330 c         1 AHY      0.913600
     13 O           6.4790   -2.0960    6.4850 o         1 AHY     -0.775300
     14 OXT         8.6800   -2.5660    6.7010 o         1 AHY     -0.775300
     15 H101       -0.2870   -0.0480   -1.0320 hc        1 AHY      0.034367
     16 H102       -0.3600   -0.8580    0.5870 hc        1 AHY      0.034367
     17 H103       -0.2830    0.9470    0.4820 hc        1 AHY      0.034367
     18 H9C1        2.0120    0.7870   -0.5430 hc        1 AHY      0.037700
     19 H9C2        1.9350   -1.0140   -0.4380 hc        1 AHY      0.037700
     20 H8C1        1.7700    0.9420    1.9590 hc        1 AHY      0.044200
     21 H8C2        1.6940   -0.8590    2.0630 hc        1 AHY      0.044200
     22 H7C1        4.0510    0.7810    0.8980 hc        1 AHY      0.037200
     23 H7C2        3.9720   -1.0200    1.0060 hc        1 AHY      0.037200
     24 H6C1        3.7310   -0.8620    3.5090 hc        1 AHY      0.054200
     25 H6C2        3.8090    0.9390    3.4040 hc        1 AHY      0.054200
     26 H5C1        6.0820    0.7630    2.3250 hc        1 AHY      0.026700
     27 H5C2        6.0020   -1.0380    2.4680 hc        1 AHY      0.026700
     28 H4C1        5.6860   -0.8040    4.9990 hc        1 AHY      0.108700
     29 H4C2        5.9080    0.9860    4.8220 hc        1 AHY      0.108700
     30 H3          7.9430   -1.2150    3.9310 hx        1 AHY      0.107700
     31 H3N1        8.1730    1.7420    4.1240 hn        1 AHY      0.444467
     32 H3N2        9.4610    0.6900    4.0290 hn        1 AHY      0.444467
     33 H2O         9.8950   -1.0000    6.3720 ho        1 AHY      0.465000
     34 H2          7.5920    0.3960    6.5690 h1        1 AHY      0.068700
     35 H33         8.3460    0.7870    2.7700 hn        1 AHY      0.444467
@<TRIPOS>BOND
     1    1    2 1   
     2    1   15 1   
     3    1   16 1   
     4    1   17 1   
     5    2    3 1   
     6    2   18 1   
     7    2   19 1   
     8    3    4 1   
     9    3   20 1   
    10    3   21 1   
    11    4    5 1   
    12    4   22 1   
    13    4   23 1   
    14    5    6 1   
    15    5   24 1   
    16    5   25 1   
    17    6    7 1   
    18    6   26 1   
    19    6   27 1   
    20    7    8 1   
    21    7   28 1   
    22    7   29 1   
    23    8    9 1   
    24    8   10 1   
    25    8   30 1   
    26    9   31 1   
    27    9   32 1   
    28    9   35 1   
    29   10   11 1   
    30   10   12 1   
    31   10   34 1   
    32   11   33 1   
    33   12   13 1   
    34   12   14 1   
@<TRIPOS>SUBSTRUCTURE
     1 AHY         1 TEMP              0 ****  ****    0 ROOT
