@<TRIPOS>MOLECULE
AHZ
   57    60     1     0     0
SMALL
bcc


@<TRIPOS>ATOM
      1 O2'         5.9360    3.2790    0.4220 oh        1 AHZ     -0.625800
      2 C2'         4.8600    2.3590    0.5270 c3        1 AHZ      0.067100
      3 C3'         3.8450    2.7750    1.6120 c3        1 AHZ      0.087100
      4 O3'         4.3770    3.8120    2.4140 oh        1 AHZ     -0.606800
      5 C1'         5.4700    1.0220    1.0510 c3        1 AHZ      0.252800
      6 N9          5.4950   -0.0380    0.0690 na        1 AHZ     -0.268000
      7 C8          4.5050   -0.3880   -0.8910 cc        1 AHZ      0.473700
      8 N7          4.8380   -1.4630   -1.6230 nd        1 AHZ     -0.587100
      9 C5          6.0820   -1.8840   -1.1300 ca        1 AHZ     -0.188200
     10 C6          6.9370   -2.9750   -1.4660 ca        1 AHZ      0.686200
     11 N1          8.1020   -3.1550   -0.7650 nb        1 AHZ     -0.803000
     12 C2          8.3870   -2.2430    0.2060 ca        1 AHZ      0.633900
     13 N6          6.6120   -3.8050   -2.5440 nh        1 AHZ     -0.923500
     14 C4          6.5120   -0.9970   -0.0470 ca        1 AHZ      0.434800
     15 N3          7.6890   -1.1660    0.6280 nb        1 AHZ     -0.717000
     16 O4'         4.7340    0.6440    2.2230 os        1 AHZ     -0.436600
     17 C4'         3.5740    1.4840    2.3990 c3        1 AHZ      0.079100
     18 C5'         2.3010    0.7450    1.9320 c3        1 AHZ      0.204400
     19 O5'         1.2920    1.6440    1.6350 os        1 AHZ     -0.582200
     20 PA          0.8560    1.8010    0.0250 p5        1 AHZ      1.622800
     21 O2A         0.1810    3.1030   -0.0750 o         1 AHZ     -0.897500
     22 O1A         2.1700    1.5750   -0.6480 o         1 AHZ     -0.897500
     23 O3A        -0.0970    0.5320   -0.1610 os        1 AHZ     -0.816800
     24 PB         -1.0190   -0.8250   -0.3280 p5        1 AHZ      1.595800
     25 O1B        -1.4890   -0.9060   -1.7240 o         1 AHZ     -0.871500
     26 O2B        -0.3270   -1.9230    0.3700 o         1 AHZ     -0.871500
     27 O3B        -2.3160   -0.4220    0.6160 os        1 AHZ     -0.595200
     28 C7T        -3.5670   -0.2610    0.0260 c3        1 AHZ      0.194400
     29 C6T        -4.5290   -1.3210    0.5810 c3        1 AHZ     -0.030100
     30 C5T        -5.9270   -1.1650    0.1500 cc        1 AHZ     -0.156700
     31 S1T        -7.1940   -0.8700    1.2430 ss        1 AHZ     -0.251300
     32 C2T        -8.3700   -0.9800   -0.0350 cc        1 AHZ      0.425900
     33 C1R        -9.8630   -0.8440    0.2620 c         1 AHZ      0.836100
     34 O1R       -10.4920   -1.8950    0.5630 o         1 AHZ     -0.822300
     35 O2R       -10.3730    0.3070    0.2130 o         1 AHZ     -0.822300
     36 N3T        -7.8440   -1.2070   -1.2260 nd        1 AHZ     -0.670000
     37 C4T        -6.4470   -1.3150   -1.1310 cd        1 AHZ      0.319600
     38 C1M        -5.6220   -1.5660   -2.3360 c3        1 AHZ     -0.118400
     39 H1          5.5440    4.1590    0.5000 ho        1 AHZ      0.414000
     40 H2'         4.3340    2.2490   -0.4640 h1        1 AHZ      0.145700
     41 H3'         2.8900    3.1790    1.1630 h1        1 AHZ      0.158700
     42 H3          5.1580    3.4510    2.8530 ho        1 AHZ      0.386000
     43 H1'         6.5350    1.1800    1.4020 h2        1 AHZ      0.088700
     44 H8          3.5540    0.2080   -0.9930 h5        1 AHZ      0.191800
     45 H2          9.3430   -2.4230    0.7380 h5        1 AHZ      0.021100
     46 HN61        5.6470   -3.7730   -2.7950 hn        1 AHZ      0.406800
     47 HN62        6.9980   -4.7220   -2.5130 hn        1 AHZ      0.406800
     48 H4'         3.5330    1.6830    3.5020 h1        1 AHZ      0.058700
     49 H5'1        2.5510    0.1050    1.0400 h1        1 AHZ      0.040200
     50 H5'2        1.9620    0.0850    2.7790 h1        1 AHZ      0.040200
     51 H7T1       -3.9570    0.7590    0.2990 h1        1 AHZ      0.036700
     52 H7T2       -3.4950   -0.3460   -1.0940 h1        1 AHZ      0.036700
     53 H6T1       -4.1630   -2.3370    0.2630 hc        1 AHZ      0.043700
     54 H6T2       -4.4680   -1.2890    1.7020 hc        1 AHZ      0.043700
     55 H1M1       -6.1430   -2.2450   -3.0540 hc        1 AHZ      0.042700
     56 H1M2       -5.4080   -0.5980   -2.8550 hc        1 AHZ      0.042700
     57 H1M3       -4.6440   -2.0260   -2.0420 hc        1 AHZ      0.042700
@<TRIPOS>BOND
     1    1    2 1   
     2    1   39 1   
     3    2    3 1   
     4    2    5 1   
     5    2   40 1   
     6    3    4 1   
     7    3   17 1   
     8    3   41 1   
     9    4   42 1   
    10    5    6 1   
    11    5   16 1   
    12    5   43 1   
    13    6    7 1   
    14    6   14 1   
    15    7    8 2   
    16    7   44 1   
    17    8    9 1   
    18    9   10 ar  
    19    9   14 ar  
    20   10   11 ar  
    21   10   13 1   
    22   11   12 ar  
    23   12   15 ar  
    24   12   45 1   
    25   13   46 1   
    26   13   47 1   
    27   14   15 ar  
    28   16   17 1   
    29   17   18 1   
    30   17   48 1   
    31   18   19 1   
    32   18   49 1   
    33   18   50 1   
    34   19   20 1   
    35   20   21 1   
    36   20   22 1   
    37   20   23 1   
    38   23   24 1   
    39   24   25 1   
    40   24   26 1   
    41   24   27 1   
    42   27   28 1   
    43   28   29 1   
    44   28   51 1   
    45   28   52 1   
    46   29   30 1   
    47   29   53 1   
    48   29   54 1   
    49   30   31 1   
    50   30   37 2   
    51   31   32 1   
    52   32   33 1   
    53   32   36 2   
    54   33   34 1   
    55   33   35 1   
    56   36   37 1   
    57   37   38 1   
    58   38   55 1   
    59   38   56 1   
    60   38   57 1   
@<TRIPOS>SUBSTRUCTURE
     1 AHZ         1 TEMP              0 ****  ****    0 ROOT
