@<TRIPOS>MOLECULE
AHZ
   57    60     1     0     0
SMALL
bcc


@<TRIPOS>ATOM
      1 O2'         1.0020   -0.4760    1.7740 oh        1 AHZ     -0.610800
      2 C2'         2.0290    0.0380    0.9540 c3        1 AHZ      0.111100
      3 C3'         3.0210    0.9750    1.6630 c3        1 AHZ      0.083100
      4 O3'         2.9710    0.7730    3.0570 oh        1 AHZ     -0.644800
      5 C1'         1.3800    0.9570   -0.1340 c3        1 AHZ      0.219800
      6 N9          1.9490    0.7670   -1.4560 na        1 AHZ     -0.276000
      7 C8          3.3120    0.7990   -1.8650 cc        1 AHZ      0.464700
      8 N7          3.4690    0.6240   -3.1880 nd        1 AHZ     -0.582100
      9 C5          2.1750    0.4920   -3.7080 ca        1 AHZ     -0.196200
     10 C6          1.6780    0.3060   -5.0330 ca        1 AHZ      0.691200
     11 N1          0.3230    0.2560   -5.2390 nb        1 AHZ     -0.804000
     12 C2         -0.4750    0.3510   -4.1390 ca        1 AHZ      0.637900
     13 N6          2.5710    0.1130   -6.0880 nh        1 AHZ     -0.927500
     14 C4          1.1940    0.5930   -2.6260 ca        1 AHZ      0.432800
     15 N3         -0.1550    0.5110   -2.8370 nb        1 AHZ     -0.718000
     16 O4'         1.5250    2.3030    0.3160 os        1 AHZ     -0.427600
     17 C4'         2.5870    2.4090    1.2900 c3        1 AHZ      0.062100
     18 C5'         3.7190    3.2730    0.6890 c3        1 AHZ      0.203400
     19 O5'         4.8070    3.3640    1.5290 os        1 AHZ     -0.579200
     20 PA          6.0810    2.2860    1.3160 p5        1 AHZ      1.632800
     21 O2A         5.9100    1.4450    2.5240 o         1 AHZ     -0.907000
     22 O1A         5.7580    1.6400    0.0140 o         1 AHZ     -0.907000
     23 O3A         7.3620    3.2210    1.2760 os        1 AHZ     -0.805800
     24 PB          8.6820    4.2120    1.1370 p5        1 AHZ      1.599800
     25 O1B         9.8780    3.3570    1.0110 o         1 AHZ     -0.868000
     26 O2B         8.3510    5.2980    0.2000 o         1 AHZ     -0.868000
     27 O3B         8.6960    4.8790    2.6490 os        1 AHZ     -0.595200
     28 C7T         9.8330    4.7420    3.4410 c3        1 AHZ      0.194400
     29 C6T        10.4290    6.1290    3.7200 c3        1 AHZ     -0.031100
     30 C5T        11.5590    6.1280    4.6610 cc        1 AHZ     -0.159700
     31 S1T        11.5090    6.9340    6.1550 ss        1 AHZ     -0.247300
     32 C2T        13.1750    6.5380    6.4660 cc        1 AHZ      0.425900
     33 C1R        13.8720    7.0250    7.7360 c         1 AHZ      0.836100
     34 O1R        14.4320    8.1540    7.6920 o         1 AHZ     -0.821800
     35 O2R        13.8270    6.2860    8.7550 o         1 AHZ     -0.821800
     36 N3T        13.7400    5.8220    5.5090 nd        1 AHZ     -0.670000
     37 C4T        12.8250    5.5830    4.4720 cd        1 AHZ      0.319600
     38 C1M        13.2160    4.7950    3.2800 c3        1 AHZ     -0.117400
     39 H1          0.9690    0.0630    2.5760 ho        1 AHZ      0.425000
     40 H2'         2.5420   -0.8560    0.5130 h1        1 AHZ      0.084700
     41 H3'         4.0720    0.7890    1.2760 h1        1 AHZ      0.133700
     42 H3          3.8810    0.9360    3.3790 ho        1 AHZ      0.484000
     43 H1'         0.2660    0.7800   -0.2020 h2        1 AHZ      0.100700
     44 H8          4.1630    0.9700   -1.1450 h5        1 AHZ      0.186800
     45 H2         -1.5620    0.2930   -4.3540 h5        1 AHZ      0.024100
     46 HN61        3.4970    0.4300   -5.8980 hn        1 AHZ      0.408800
     47 HN62        2.2320    0.3370   -6.9950 hn        1 AHZ      0.408800
     48 H4'         2.1330    2.9250    2.1770 h1        1 AHZ      0.066700
     49 H5'1        3.3000    4.3090    0.5450 h1        1 AHZ      0.030200
     50 H5'2        4.0130    2.8570   -0.3150 h1        1 AHZ      0.030200
     51 H7T1        9.5280    4.2770    4.4210 h1        1 AHZ      0.036200
     52 H7T2       10.5940    4.0820    2.9380 h1        1 AHZ      0.036200
     53 H6T1        9.6050    6.7860    4.1100 hc        1 AHZ      0.044700
     54 H6T2       10.7680    6.5760    2.7450 hc        1 AHZ      0.044700
     55 H1M1       14.2910    4.9520    3.0190 hc        1 AHZ      0.041700
     56 H1M2       13.0540    3.7060    3.4770 hc        1 AHZ      0.041700
     57 H1M3       12.5830    5.0880    2.4050 hc        1 AHZ      0.041700
@<TRIPOS>BOND
     1    1    2 1   
     2    1   39 1   
     3    2    3 1   
     4    2    5 1   
     5    2   40 1   
     6    3    4 1   
     7    3   17 1   
     8    3   41 1   
     9    4   42 1   
    10    5    6 1   
    11    5   16 1   
    12    5   43 1   
    13    6    7 1   
    14    6   14 1   
    15    7    8 2   
    16    7   44 1   
    17    8    9 1   
    18    9   10 ar  
    19    9   14 ar  
    20   10   11 ar  
    21   10   13 1   
    22   11   12 ar  
    23   12   15 ar  
    24   12   45 1   
    25   13   46 1   
    26   13   47 1   
    27   14   15 ar  
    28   16   17 1   
    29   17   18 1   
    30   17   48 1   
    31   18   19 1   
    32   18   49 1   
    33   18   50 1   
    34   19   20 1   
    35   20   21 1   
    36   20   22 1   
    37   20   23 1   
    38   23   24 1   
    39   24   25 1   
    40   24   26 1   
    41   24   27 1   
    42   27   28 1   
    43   28   29 1   
    44   28   51 1   
    45   28   52 1   
    46   29   30 1   
    47   29   53 1   
    48   29   54 1   
    49   30   31 1   
    50   30   37 2   
    51   31   32 1   
    52   32   33 1   
    53   32   36 2   
    54   33   34 1   
    55   33   35 1   
    56   36   37 1   
    57   37   38 1   
    58   38   55 1   
    59   38   56 1   
    60   38   57 1   
@<TRIPOS>SUBSTRUCTURE
     1 AHZ         1 TEMP              0 ****  ****    0 ROOT
