@<TRIPOS>MOLECULE
AHZ
   57    60     1     0     0
SMALL
bcc


@<TRIPOS>ATOM
      1 O2'         1.3920    1.9690    1.6800 oh        1 AHZ     -0.606800
      2 C2'         2.2230    1.3740    0.7110 c3        1 AHZ      0.108100
      3 C3'         3.7400    1.5340    0.9580 c3        1 AHZ      0.125100
      4 O3'         3.9300    2.0140    2.2680 oh        1 AHZ     -0.656800
      5 C1'         1.9740    2.0950   -0.6580 c3        1 AHZ      0.212800
      6 N9          1.7170    1.1770   -1.7610 na        1 AHZ     -0.256000
      7 C8          2.6650    0.4060   -2.4710 cc        1 AHZ      0.449700
      8 N7          2.1410   -0.2940   -3.4930 nd        1 AHZ     -0.582100
      9 C5          0.7770    0.0280   -3.4900 ca        1 AHZ     -0.209200
     10 C6         -0.3160   -0.3700   -4.3200 ca        1 AHZ      0.705200
     11 N1         -1.5570    0.1650   -4.0950 nb        1 AHZ     -0.804000
     12 C2         -1.6800    1.0320   -3.0480 ca        1 AHZ      0.648900
     13 N6         -0.1220   -1.3380   -5.3030 nh        1 AHZ     -0.933500
     14 C4          0.4920    0.9730   -2.4060 ca        1 AHZ      0.442800
     15 N3         -0.7570    1.4840   -2.1740 nb        1 AHZ     -0.705000
     16 O4'         3.1150    2.8870   -0.9510 os        1 AHZ     -0.423600
     17 C4'         4.2270    2.5590   -0.0860 c3        1 AHZ      0.053100
     18 C5'         5.4150    2.0660   -0.9400 c3        1 AHZ      0.215400
     19 O5'         6.6090    2.5230   -0.4280 os        1 AHZ     -0.563200
     20 PA          7.4710    1.3810    0.4750 p5        1 AHZ      1.631800
     21 O2A         6.4820    1.1240    1.5560 o         1 AHZ     -0.903000
     22 O1A         7.7950    0.3140   -0.4910 o         1 AHZ     -0.903000
     23 O3A         8.7400    2.2160    0.9550 os        1 AHZ     -0.806800
     24 PB         10.1100    3.0230    1.3910 p5        1 AHZ      1.602800
     25 O1B        10.9340    2.1180    2.2150 o         1 AHZ     -0.872000
     26 O2B        10.6330    3.7570    0.2270 o         1 AHZ     -0.872000
     27 O3B         9.4540    4.1530    2.4130 os        1 AHZ     -0.594200
     28 C7T        10.0970    4.4000    3.6220 c3        1 AHZ      0.198400
     29 C6T        10.5800    5.8570    3.6600 c3        1 AHZ     -0.034100
     30 C5T        11.1850    6.2600    4.9380 cc        1 AHZ     -0.157700
     31 S1T        10.5210    7.4670    5.9320 ss        1 AHZ     -0.247300
     32 C2T        11.8660    7.3540    7.0300 cc        1 AHZ      0.424900
     33 C1R        11.9570    8.2650    8.2550 c         1 AHZ      0.836100
     34 O1R        12.5250    9.3810    8.1050 o         1 AHZ     -0.822300
     35 O2R        11.4430    7.8610    9.3310 o         1 AHZ     -0.822300
     36 N3T        12.7630    6.4470    6.6840 nd        1 AHZ     -0.670000
     37 C4T        12.3830    5.8160    5.4890 cd        1 AHZ      0.317600
     38 C1M        13.2230    4.7530    4.8900 c3        1 AHZ     -0.116400
     39 H1          1.9150    2.6220    2.1660 ho        1 AHZ      0.435000
     40 H2'         1.9230    0.2940    0.6820 h1        1 AHZ      0.072700
     41 H3'         4.2600    0.5450    0.8330 h1        1 AHZ      0.097700
     42 H3          4.8810    1.8780    2.4730 ho        1 AHZ      0.507000
     43 H1'         1.0940    2.8000   -0.5890 h2        1 AHZ      0.102700
     44 H8          3.7310    0.4240   -2.1800 h5        1 AHZ      0.111800
     45 H2         -2.7060    1.4290   -2.9000 h5        1 AHZ      0.032100
     46 HN61       -0.7900   -1.3710   -6.0370 hn        1 AHZ      0.412300
     47 HN62        0.8250   -1.4680   -5.5770 hn        1 AHZ      0.412300
     48 H4'         4.5100    3.5260    0.4130 h1        1 AHZ      0.102700
     49 H5'1        5.2830    2.4840   -1.9800 h1        1 AHZ      0.011200
     50 H5'2        5.4130    0.9390   -0.9940 h1        1 AHZ      0.011200
     51 H7T1        9.3550    4.2460    4.4570 h1        1 AHZ      0.030700
     52 H7T2       10.9630    3.6960    3.7670 h1        1 AHZ      0.030700
     53 H6T1        9.7030    6.5180    3.4240 hc        1 AHZ      0.047200
     54 H6T2       11.3300    6.0070    2.8360 hc        1 AHZ      0.047200
     55 H1M1       14.3080    4.9150    5.1040 hc        1 AHZ      0.040700
     56 H1M2       13.0710    4.7290    3.7810 hc        1 AHZ      0.040700
     57 H1M3       12.9240    3.7570    5.3040 hc        1 AHZ      0.040700
@<TRIPOS>BOND
     1    1    2 1   
     2    1   39 1   
     3    2    3 1   
     4    2    5 1   
     5    2   40 1   
     6    3    4 1   
     7    3   17 1   
     8    3   41 1   
     9    4   42 1   
    10    5    6 1   
    11    5   16 1   
    12    5   43 1   
    13    6    7 1   
    14    6   14 1   
    15    7    8 2   
    16    7   44 1   
    17    8    9 1   
    18    9   10 ar  
    19    9   14 ar  
    20   10   11 ar  
    21   10   13 1   
    22   11   12 ar  
    23   12   15 ar  
    24   12   45 1   
    25   13   46 1   
    26   13   47 1   
    27   14   15 ar  
    28   16   17 1   
    29   17   18 1   
    30   17   48 1   
    31   18   19 1   
    32   18   49 1   
    33   18   50 1   
    34   19   20 1   
    35   20   21 1   
    36   20   22 1   
    37   20   23 1   
    38   23   24 1   
    39   24   25 1   
    40   24   26 1   
    41   24   27 1   
    42   27   28 1   
    43   28   29 1   
    44   28   51 1   
    45   28   52 1   
    46   29   30 1   
    47   29   53 1   
    48   29   54 1   
    49   30   31 1   
    50   30   37 2   
    51   31   32 1   
    52   32   33 1   
    53   32   36 2   
    54   33   34 1   
    55   33   35 1   
    56   36   37 1   
    57   37   38 1   
    58   38   55 1   
    59   38   56 1   
    60   38   57 1   
@<TRIPOS>SUBSTRUCTURE
     1 AHZ         1 TEMP              0 ****  ****    0 ROOT
