@<TRIPOS>MOLECULE
AHZ
   57    60     1     0     0
SMALL
bcc


@<TRIPOS>ATOM
      1 O2'         1.3290    2.2700    1.5460 oh        1 AHZ     -0.606800
      2 C2'         2.1580    1.5750    0.6440 c3        1 AHZ      0.108100
      3 C3'         3.6710    1.6630    0.9410 c3        1 AHZ      0.125100
      4 O3'         3.8420    2.2050    2.2290 oh        1 AHZ     -0.656800
      5 C1'         2.0010    2.2300   -0.7700 c3        1 AHZ      0.212800
      6 N9          1.7300    1.2660   -1.8310 na        1 AHZ     -0.256000
      7 C8          2.6570    0.4040   -2.4600 cc        1 AHZ      0.449700
      8 N7          2.1300   -0.3230   -3.4620 nd        1 AHZ     -0.582100
      9 C5          0.7880    0.0760   -3.5300 ca        1 AHZ     -0.209200
     10 C6         -0.2960   -0.3060   -4.3800 ca        1 AHZ      0.705200
     11 N1         -1.5100    0.3100   -4.2340 nb        1 AHZ     -0.804000
     12 C2         -1.6200    1.2410   -3.2420 ca        1 AHZ      0.648900
     13 N6         -0.1240   -1.3380   -5.3000 nv        1 AHZ     -0.933500
     14 C4          0.5200    1.0950   -2.5120 ca        1 AHZ      0.442800
     15 N3         -0.7050    1.6880   -2.3580 nb        1 AHZ     -0.705000
     16 O4'         3.1950    2.9380   -1.0620 os        1 AHZ     -0.423600
     17 C4'         4.2550    2.5980   -0.1370 c3        1 AHZ      0.053100
     18 C5'         5.4410    1.9910   -0.9160 c3        1 AHZ      0.215400
     19 O5'         6.6420    2.4090   -0.3840 os        1 AHZ     -0.563200
     20 PA          7.4030    1.2730    0.6130 p5        1 AHZ      1.631800
     21 O2A         6.3630    1.1350    1.6670 o         1 AHZ     -0.903000
     22 O1A         7.6980    0.1370   -0.2800 o         1 AHZ     -0.903000
     23 O3A         8.7000    2.0620    1.0950 os        1 AHZ     -0.806800
     24 PB         10.0990    2.8140    1.5400 p5        1 AHZ      1.602800
     25 O1B        10.8390    1.9130    2.4440 o         1 AHZ     -0.872000
     26 O2B        10.7050    3.4500    0.3580 o         1 AHZ     -0.872000
     27 O3B         9.4740    4.0360    2.4720 os        1 AHZ     -0.594200
     28 C7T        10.0880    4.3160    3.6890 c3        1 AHZ      0.198400
     29 C6T        10.6520    5.7430    3.6660 c3        1 AHZ     -0.034100
     30 C5T        11.2360    6.1840    4.9410 cc        1 AHZ     -0.157700
     31 S1T        10.6070    7.4800    5.8420 ss        1 AHZ     -0.247300
     32 C2T        11.9050    7.3550    6.9940 cc        1 AHZ      0.424900
     33 C1R        12.0070    8.3280    8.1690 c         1 AHZ      0.836100
     34 O1R        11.4340    8.0150    9.2460 o         1 AHZ     -0.822300
     35 O2R        12.6420    9.4010    7.9800 o         1 AHZ     -0.822300
     36 N3T        12.7610    6.3820    6.7320 nd        1 AHZ     -0.670000
     37 C4T        12.3860    5.7070    5.5590 cd        1 AHZ      0.317600
     38 C1M        13.1840    4.5660    5.0520 c3        1 AHZ     -0.116400
     39 H1          1.8720    2.9190    2.0160 ho        1 AHZ      0.435000
     40 H2'         1.7970    0.5130    0.6630 h1        1 AHZ      0.072700
     41 H3'         4.1380    0.6410    0.8910 h1        1 AHZ      0.097700
     42 H3          4.7760    2.0280    2.4780 ho        1 AHZ      0.507000
     43 H1'         1.1610    2.9860   -0.7740 h2        1 AHZ      0.102700
     44 H8          3.7100    0.3780   -2.1280 h5        1 AHZ      0.111800
     45 H2         -2.6260    1.7030   -3.1560 h5        1 AHZ      0.032100
     46 HN61       -0.7650   -1.3750   -6.0570 hn        1 AHZ      0.412300
     47 HN62        0.8240   -1.5370   -5.5290 hn        1 AHZ      0.412300
     48 H4'         4.5760    3.5750    0.3190 h1        1 AHZ      0.102700
     49 H5'1        5.3720    2.3560   -1.9810 h1        1 AHZ      0.011200
     50 H5'2        5.3770    0.8660   -0.9080 h1        1 AHZ      0.011200
     51 H7T1       10.9070    3.5740    3.9050 h1        1 AHZ      0.030700
     52 H7T2        9.3100    4.2500    4.5030 h1        1 AHZ      0.030700
     53 H6T1        9.8230    6.4370    3.3610 hc        1 AHZ      0.047200
     54 H6T2       11.4380    5.8040    2.8630 hc        1 AHZ      0.047200
     55 H1M1       12.8140    3.6130    5.5080 hc        1 AHZ      0.040700
     56 H1M2       13.0690    4.4870    3.9410 hc        1 AHZ      0.040700
     57 H1M3       14.2680    4.6800    5.2980 hc        1 AHZ      0.040700
@<TRIPOS>BOND
     1    1    2 1   
     2    1   39 1   
     3    2    3 1   
     4    2    5 1   
     5    2   40 1   
     6    3    4 1   
     7    3   17 1   
     8    3   41 1   
     9    4   42 1   
    10    5    6 1   
    11    5   16 1   
    12    5   43 1   
    13    6    7 1   
    14    6   14 1   
    15    7    8 2   
    16    7   44 1   
    17    8    9 1   
    18    9   10 ar  
    19    9   14 ar  
    20   10   11 ar  
    21   10   13 1   
    22   11   12 ar  
    23   12   15 ar  
    24   12   45 1   
    25   13   46 1   
    26   13   47 1   
    27   14   15 ar  
    28   16   17 1   
    29   17   18 1   
    30   17   48 1   
    31   18   19 1   
    32   18   49 1   
    33   18   50 1   
    34   19   20 1   
    35   20   21 1   
    36   20   22 1   
    37   20   23 1   
    38   23   24 1   
    39   24   25 1   
    40   24   26 1   
    41   24   27 1   
    42   27   28 1   
    43   28   29 1   
    44   28   51 1   
    45   28   52 1   
    46   29   30 1   
    47   29   53 1   
    48   29   54 1   
    49   30   31 1   
    50   30   37 2   
    51   31   32 1   
    52   32   33 1   
    53   32   36 2   
    54   33   34 1   
    55   33   35 1   
    56   36   37 1   
    57   37   38 1   
    58   38   55 1   
    59   38   56 1   
    60   38   57 1   
@<TRIPOS>SUBSTRUCTURE
     1 AHZ         1 TEMP              0 ****  ****    0 ROOT
