@<TRIPOS>MOLECULE
AHZ
   57    54     1     0     0
SMALL
bcc


@<TRIPOS>ATOM
      1 O2'        -3.5010   -4.5970   -3.0060 oh        1 AHZ     -0.338000
      2 C2'        -2.0930   -4.2210   -2.5860 c3        1 AHZ      0.000000
      3 C3'        -2.1260   -3.3910   -1.2610 c3        1 AHZ     -0.028000
      4 O3'        -3.3620   -3.0150   -0.9890 oh        1 AHZ     -0.372000
      5 C1'        -1.5610   -3.4370   -3.4570 c3        1 AHZ      0.128000
      6 N9         -0.7830   -4.1860   -4.3810 n3        1 AHZ     -0.193000
      7 C8          0.4860   -4.2660   -3.9150 c1        1 AHZ      0.009000
      8 N7          1.2700   -4.7200   -4.9170 n2        1 AHZ     -0.155000
      9 C5          0.4880   -4.9210   -6.0030 c1        1 AHZ     -0.205000
     10 C6          0.7780   -5.3510   -7.2910 c1        1 AHZ      0.170000
     11 N1         -0.2060   -5.4380   -8.2090 n1        1 AHZ     -0.278000
     12 C2         -1.4990   -5.1010   -7.8690 c1        1 AHZ     -0.025000
     13 N6          2.0340   -5.8880   -7.8330 n3        1 AHZ     -0.325000
     14 C4         -0.7810   -4.5890   -5.6700 c1        1 AHZ      0.041000
     15 N3         -1.7830   -4.6790   -6.6070 n1        1 AHZ     -0.192000
     16 O4'        -0.6050   -2.4150   -2.6230 os        1 AHZ     -0.284000
     17 C4'        -1.2320   -2.1530   -1.5210 c3        1 AHZ     -0.049000
     18 C5'        -0.2350   -1.9750   -0.3740 c3        1 AHZ      0.053000
     19 O5'        -0.2070   -0.6060    0.0320 os        1 AHZ     -0.741000
     20 PA          0.7360   -0.1930    1.2820 p5        1 AHZ      2.100000
     21 O2A         0.1000   -0.6450    2.5560 o         1 AHZ     -0.907000
     22 O1A         2.0690   -0.8430    1.1350 o         1 AHZ     -0.907000
     23 O3A         0.9190    1.3910    1.3110 os        1 AHZ     -1.273000
     24 PB          1.7220    2.1970    2.4940 p5        1 AHZ      2.067000
     25 O1B         1.3480    1.6190    3.8450 o         1 AHZ     -0.867500
     26 O2B         3.2090    2.0560    2.2830 o         1 AHZ     -0.867500
     27 O3B         1.3290    3.7140    2.4470 os        1 AHZ     -0.757000
     28 C7T         1.8120    4.5780    3.4760 c3        1 AHZ      0.044000
     29 C6T         0.8020    5.7210    3.6960 c3        1 AHZ     -0.116000
     30 C5T         0.7550    6.0750    5.1410 c2        1 AHZ     -0.357000
     31 S1T         1.1830    5.1870    6.2970 ss        1 AHZ      0.336000
     32 C2T         0.9430    5.9760    7.6020 c1        1 AHZ     -0.241000
     33 C1R         1.3420    5.5320    8.9960 c1        1 AHZ      0.395000
     34 O1R         0.4530    5.1270    9.8100 o         1 AHZ     -0.557000
     35 O2R         2.5460    5.6590    9.3830 o         1 AHZ     -0.557000
     36 N3T         0.4090    7.2470    7.2510 n2        1 AHZ     -0.144000
     37 C4T         0.2850    7.3200    5.6900 c1        1 AHZ     -0.103000
     38 C1M        -0.2890    8.4520    4.9130 c2        1 AHZ     -0.141000
     39 H1         -3.6490   -5.4940   -2.8280 ho        1 AHZ      0.224000
     40 H2'        -1.5230   -5.0560   -2.4640 h1        1 AHZ      0.124000
     41 H3'        -1.7710   -3.9070   -0.5360 h1        1 AHZ      0.173000
     42 H3         -3.6170   -3.3710   -0.2110 ho        1 AHZ      0.283000
     43 H1'        -2.2840   -2.9170   -3.9490 h2        1 AHZ      0.140000
     44 H8          0.7610   -4.1350   -2.9920 DU        1 AHZ      0.316000
     45 H2         -2.2150   -5.1640   -8.5380 ha        1 AHZ      0.161000
     46 HN61        2.8360   -5.7620   -7.3680 hn        1 AHZ      0.204000
     47 HN62        2.0370   -6.3100   -8.6440 hn        1 AHZ      0.204000
     48 H4'        -1.7890   -1.3410   -1.6250 h1        1 AHZ      0.106000
     49 H5'1        0.6640   -2.2460   -0.6730 h1        1 AHZ      0.069500
     50 H5'2       -0.5000   -2.5170    0.3600 h1        1 AHZ      0.069500
     51 H7T1        1.9230    4.0610    4.3250 h1        1 AHZ      0.075500
     52 H7T2        2.6620    4.9470    3.2120 h1        1 AHZ      0.075500
     53 H6T1       -0.0790    5.4360    3.4050 hc        1 AHZ      0.084000
     54 H6T2        1.0690    6.4750    3.1960 hc        1 AHZ      0.084000
     55 H1M1       -0.7810    9.0460    5.5160 ha        1 AHZ      0.081000
     56 H1M2       -0.9240    8.0860    4.2010 ha        1 AHZ      0.081000
     57 H1M3        0.4240    8.9490    4.4840 ha        1 AHZ      0.081000
@<TRIPOS>BOND
     1    1    2 1   
     2    1   39 1   
     3    2    3 1   
     4    2    5 1   
     5    2   40 1   
     6    3    4 1   
     7    3   17 1   
     8    3   41 1   
     9    4   42 1   
    10    5    6 1   
    11    5   16 1   
    12    5   43 1   
    13    6    7 1   
    14    6   14 1   
    15    7    8 1   
    16    8    9 1   
    17    9   10 1   
    18   10   13 1   
    19   11   12 1   
    20   12   45 1   
    21   13   46 1   
    22   13   47 1   
    23   14   15 1   
    24   16   17 1   
    25   17   18 1   
    26   17   48 1   
    27   18   19 1   
    28   18   49 1   
    29   18   50 1   
    30   19   20 1   
    31   20   21 1   
    32   20   22 1   
    33   20   23 1   
    34   23   24 1   
    35   24   25 1   
    36   24   26 1   
    37   24   27 1   
    38   27   28 1   
    39   28   29 1   
    40   28   51 1   
    41   28   52 1   
    42   29   30 1   
    43   29   53 1   
    44   29   54 1   
    45   30   31 1   
    46   30   37 1   
    47   31   32 1   
    48   32   36 1   
    49   33   34 1   
    50   33   35 1   
    51   36   37 1   
    52   38   55 1   
    53   38   56 1   
    54   38   57 1   
@<TRIPOS>SUBSTRUCTURE
     1 AHZ         1 TEMP              0 ****  ****    0 ROOT
