@<TRIPOS>MOLECULE
AI1
   52    54     1     0     0
SMALL
bcc


@<TRIPOS>ATOM
      1 C1         -0.0030    0.1490    0.2820 c3        1 AI1      0.303900
      2 O1         -0.9060   -0.9040    0.6440 os        1 AI1     -0.343900
      3 C2          1.4120   -0.3010    0.6910 c3        1 AI1      0.090100
      4 O2          1.7330   -1.5690    0.1620 oh        1 AI1     -0.582800
      5 C3          1.5180   -0.4190    2.2200 c3        1 AI1      0.115100
      6 O3          2.8610   -0.6330    2.6100 oh        1 AI1     -0.599800
      7 C4          1.0840    0.9110    2.8620 c3        1 AI1      0.122100
      8 O4          1.9590    1.9650    2.5060 oh        1 AI1     -0.593800
      9 C5         -0.3280    1.2730    2.3840 c3        1 AI1      0.145100
     10 O5         -0.4410    1.2990    0.9530 os        1 AI1     -0.419600
     11 C6         -0.7230    2.6780    2.8460 c3        1 AI1      0.138400
     12 O6         -2.1350    2.6780    2.9900 oh        1 AI1     -0.614800
     13 C1'        -2.1560   -0.8920    0.0720 ca        1 AI1      0.146100
     14 C2'        -2.7760    0.2410   -0.4760 ca        1 AI1     -0.122000
     15 C3'        -4.0650    0.1330   -0.9970 ca        1 AI1     -0.087000
     16 C4'        -4.7530   -1.0770   -0.9560 ca        1 AI1     -0.136000
     17 C5'        -4.1350   -2.2020   -0.3890 ca        1 AI1     -0.175600
     18 C6'        -2.8290   -2.1280    0.1100 ca        1 AI1     -0.088000
     19 C7'        -4.8000   -3.5050   -0.3290 c         1 AI1      0.575700
     20 O1'        -4.3360   -4.6200   -0.5190 o         1 AI1     -0.416100
     21 N1'        -6.2690   -3.4830    0.0550 n4        1 AI1     -0.684800
     22 C1B        -6.4440   -3.7800    1.5190 c3        1 AI1      0.179100
     23 C2B        -7.8860   -3.8240    1.8840 ca        1 AI1     -0.192300
     24 C3B        -8.6060   -5.0160    1.7370 ca        1 AI1     -0.100000
     25 C4B        -9.9470   -5.0680    2.1150 ca        1 AI1     -0.119500
     26 C5B       -10.5690   -3.9340    2.6400 ca        1 AI1     -0.078000
     27 C6B        -9.8510   -2.7460    2.7890 ca        1 AI1     -0.119500
     28 C7B        -8.5110   -2.6880    2.4120 ca        1 AI1     -0.100000
     29 H1         -0.0710    0.3910   -0.8150 h2        1 AI1      0.089700
     30 H2          2.1310    0.4890    0.3280 h1        1 AI1      0.088700
     31 HO2         1.8610   -1.4600   -0.7890 ho        1 AI1      0.414000
     32 H3          0.8660   -1.2620    2.5780 h1        1 AI1      0.070700
     33 HO3         3.1550   -1.4410    2.1680 ho        1 AI1      0.433000
     34 H4          1.0780    0.7880    3.9820 h1        1 AI1      0.068700
     35 HO4         2.8500    1.6830    2.7580 ho        1 AI1      0.432000
     36 H5         -1.0520    0.5060    2.7790 h1        1 AI1      0.073700
     37 HC61       -0.2350    2.8960    3.8330 h1        1 AI1      0.057200
     38 HC62       -0.3980    3.4380    2.0870 h1        1 AI1      0.057200
     39 HO6        -2.3900    3.5870    3.1900 ho        1 AI1      0.412000
     40 H2'        -2.2540    1.2150   -0.4760 ha        1 AI1      0.189000
     41 H3'        -4.5450    1.0200   -1.4420 ha        1 AI1      0.164000
     42 H4'        -5.7550   -1.1350   -1.4050 ha        1 AI1      0.132000
     43 H6'        -2.3220   -3.0120    0.5300 ha        1 AI1      0.178000
     44 HN'1       -6.6760   -2.5650   -0.1510 hn        1 AI1      0.455800
     45 H1'1       -5.9460   -4.7740    1.7180 hx        1 AI1      0.111700
     46 H1'2       -5.9030   -2.9770    2.0970 hx        1 AI1      0.111700
     47 H3B        -8.1140   -5.9180    1.3410 ha        1 AI1      0.140500
     48 H4B       -10.5120   -6.0070    2.0050 ha        1 AI1      0.159500
     49 H5'       -11.6290   -3.9780    2.9430 ha        1 AI1      0.161000
     50 H6B       -10.3410   -1.8540    3.2120 ha        1 AI1      0.159500
     51 H7'        -7.9440   -1.7540    2.5480 ha        1 AI1      0.140500
     52 H1'3       -6.7770   -4.1950   -0.4830 hn        1 AI1      0.455800
@<TRIPOS>BOND
     1    1    2 1   
     2    1    3 1   
     3    1   10 1   
     4    1   29 1   
     5    2   13 1   
     6    3    4 1   
     7    3    5 1   
     8    3   30 1   
     9    4   31 1   
    10    5    6 1   
    11    5    7 1   
    12    5   32 1   
    13    6   33 1   
    14    7    8 1   
    15    7    9 1   
    16    7   34 1   
    17    8   35 1   
    18    9   10 1   
    19    9   11 1   
    20    9   36 1   
    21   11   12 1   
    22   11   37 1   
    23   11   38 1   
    24   12   39 1   
    25   13   14 ar  
    26   13   18 ar  
    27   14   15 ar  
    28   14   40 1   
    29   15   16 ar  
    30   15   41 1   
    31   16   17 ar  
    32   16   42 1   
    33   17   18 ar  
    34   17   19 1   
    35   18   43 1   
    36   19   20 2   
    37   19   21 1   
    38   21   22 1   
    39   21   44 1   
    40   21   52 1   
    41   22   23 1   
    42   22   45 1   
    43   22   46 1   
    44   23   24 ar  
    45   23   28 ar  
    46   24   25 ar  
    47   24   47 1   
    48   25   26 ar  
    49   25   48 1   
    50   26   27 ar  
    51   26   49 1   
    52   27   28 ar  
    53   27   50 1   
    54   28   51 1   
@<TRIPOS>SUBSTRUCTURE
     1 AI1         1 TEMP              0 ****  ****    0 ROOT
