@<TRIPOS>MOLECULE
AI1
   51    53     1     0     0
SMALL
bcc


@<TRIPOS>ATOM
      1 C1         -0.2330    0.8770   -3.1830 c3        1 AI1      0.309900
      2 O1         -0.2920   -0.0810   -2.1270 os        1 AI1     -0.377900
      3 C2         -1.2580    0.4280   -4.2410 c3        1 AI1      0.091100
      4 O2         -2.5550    0.3300   -3.6990 oh        1 AI1     -0.589800
      5 C3         -0.8290   -0.9040   -4.8720 c3        1 AI1      0.076100
      6 O3         -1.6520   -1.2250   -5.9820 oh        1 AI1     -0.605800
      7 C4          0.6080   -0.7950   -5.4070 c3        1 AI1      0.127100
      8 O4          0.6920    0.1330   -6.4740 oh        1 AI1     -0.595800
      9 C5          1.5350   -0.3310   -4.2780 c3        1 AI1      0.105100
     10 O5          1.0910    0.8810   -3.6540 os        1 AI1     -0.432600
     11 C6          2.9380   -0.0150   -4.8070 c3        1 AI1      0.141400
     12 O6          3.8280    0.2680   -3.7490 oh        1 AI1     -0.596800
     13 C1'         0.0810    0.3670   -0.8680 ca        1 AI1      0.108100
     14 C2'         1.0870    1.3180   -0.6580 ca        1 AI1     -0.158000
     15 C3'         1.4270    1.6660    0.6480 ca        1 AI1     -0.109000
     16 C4'         0.7900    1.0630    1.7320 ca        1 AI1     -0.129000
     17 C5'        -0.2030    0.1030    1.5110 ca        1 AI1     -0.115600
     18 C6'        -0.5760   -0.2450    0.2110 ca        1 AI1     -0.098000
     19 C7'        -0.9220   -0.5530    2.6450 c         1 AI1      0.666700
     20 O1'        -2.1530   -0.7490    2.6070 o         1 AI1     -0.600100
     21 N1'        -0.1490   -0.9970    3.7040 n         1 AI1     -0.553900
     22 C1B        -0.7350   -1.4920    4.9220 c3        1 AI1      0.126300
     23 C2B        -0.5300   -0.5900    6.1070 ca        1 AI1     -0.122300
     24 C3B        -1.5890    0.1770    6.6010 ca        1 AI1     -0.117000
     25 C4B        -1.3980    0.9950    7.7140 ca        1 AI1     -0.131500
     26 C5B        -0.1500    1.0540    8.3340 ca        1 AI1     -0.123000
     27 C6B         0.9090    0.2920    7.8410 ca        1 AI1     -0.131500
     28 C7B         0.7200   -0.5280    6.7300 ca        1 AI1     -0.117000
     29 H1         -0.4280    1.9250   -2.8240 h2        1 AI1      0.103700
     30 H2         -1.3270    1.2230   -5.0380 h1        1 AI1      0.112700
     31 HO2        -2.5050   -0.2480   -2.9240 ho        1 AI1      0.420000
     32 H3         -0.8930   -1.7260   -4.1050 h1        1 AI1      0.062700
     33 HO3        -2.5650   -1.0550   -5.7110 ho        1 AI1      0.426000
     34 H4          0.9430   -1.8080   -5.7700 h1        1 AI1      0.060700
     35 HO4         0.0090   -0.1200   -7.1120 ho        1 AI1      0.424000
     36 H5          1.5760   -1.1350   -3.4910 h1        1 AI1      0.072700
     37 HC61        2.8840    0.8450   -5.5260 h1        1 AI1      0.066700
     38 HC62        3.3590   -0.9210   -5.3170 h1        1 AI1      0.066700
     39 HO6         3.4760    1.0350   -3.2810 ho        1 AI1      0.409000
     40 H2'         1.6040    1.7750   -1.5170 ha        1 AI1      0.156000
     41 H3'         2.2090    2.4200    0.8230 ha        1 AI1      0.141000
     42 H4'         1.0630    1.3610    2.7550 ha        1 AI1      0.138000
     43 H6'        -1.3730   -0.9840    0.0360 ha        1 AI1      0.166000
     44 HN'1        0.7980   -0.7040    3.7520 hn        1 AI1      0.307500
     45 H1'1       -1.8390   -1.6590    4.7540 h1        1 AI1      0.071700
     46 H1'2       -0.2600   -2.4920    5.1470 h1        1 AI1      0.071700
     47 H3B        -2.5740    0.1350    6.1100 ha        1 AI1      0.136000
     48 H4B        -2.2350    1.5960    8.1020 ha        1 AI1      0.134000
     49 H5'        -0.0020    1.7000    9.2120 ha        1 AI1      0.133000
     50 H6B         1.8930    0.3370    8.3300 ha        1 AI1      0.134000
     51 H7'         1.5540   -1.1340    6.3450 ha        1 AI1      0.136000
@<TRIPOS>BOND
     1    1    2 1   
     2    1    3 1   
     3    1   10 1   
     4    1   29 1   
     5    2   13 1   
     6    3    4 1   
     7    3    5 1   
     8    3   30 1   
     9    4   31 1   
    10    5    6 1   
    11    5    7 1   
    12    5   32 1   
    13    6   33 1   
    14    7    8 1   
    15    7    9 1   
    16    7   34 1   
    17    8   35 1   
    18    9   10 1   
    19    9   11 1   
    20    9   36 1   
    21   11   12 1   
    22   11   37 1   
    23   11   38 1   
    24   12   39 1   
    25   13   14 ar  
    26   13   18 ar  
    27   14   15 ar  
    28   14   40 1   
    29   15   16 ar  
    30   15   41 1   
    31   16   17 ar  
    32   16   42 1   
    33   17   18 ar  
    34   17   19 1   
    35   18   43 1   
    36   19   20 2   
    37   19   21 1   
    38   21   22 1   
    39   21   44 1   
    40   22   23 1   
    41   22   45 1   
    42   22   46 1   
    43   23   24 ar  
    44   23   28 ar  
    45   24   25 ar  
    46   24   47 1   
    47   25   26 ar  
    48   25   48 1   
    49   26   27 ar  
    50   26   49 1   
    51   27   28 ar  
    52   27   50 1   
    53   28   51 1   
@<TRIPOS>SUBSTRUCTURE
     1 AI1         1 TEMP              0 ****  ****    0 ROOT
