@<TRIPOS>MOLECULE
AI1
   52    54     1     0     0
SMALL
bcc


@<TRIPOS>ATOM
      1 C1          0.0020    0.1420    0.2890 c3        1 AI1      0.303900
      2 O1         -0.9020   -0.9100    0.6550 os        1 AI1     -0.343900
      3 C2          1.4150   -0.3020    0.7110 c3        1 AI1      0.090100
      4 O2          1.7410   -1.5750    0.1960 oh        1 AI1     -0.582800
      5 C3          1.5120   -0.4060    2.2410 c3        1 AI1      0.115100
      6 O3          2.8520   -0.6140    2.6410 oh        1 AI1     -0.599800
      7 C4          1.0710    0.9290    2.8680 c3        1 AI1      0.122100
      8 O4          1.9470    1.9810    2.5080 oh        1 AI1     -0.593800
      9 C5         -0.3390    1.2840    2.3790 c3        1 AI1      0.145100
     10 O5         -0.4420    1.2970    0.9460 os        1 AI1     -0.419600
     11 C6         -0.7390    2.6930    2.8250 c3        1 AI1      0.138400
     12 O6         -2.1510    2.6910    2.9620 oh        1 AI1     -0.614800
     13 C1'        -2.1480   -0.9050    0.0750 ca        1 AI1      0.146100
     14 C2'        -2.7660    0.2220   -0.4880 ca        1 AI1     -0.122000
     15 C3'        -4.0510    0.1060   -1.0160 ca        1 AI1     -0.087000
     16 C4'        -4.7380   -1.1040   -0.9670 ca        1 AI1     -0.136000
     17 C5'        -4.1230   -2.2220   -0.3850 ca        1 AI1     -0.174600
     18 C6'        -2.8200   -2.1420    0.1220 ca        1 AI1     -0.088000
     19 C7'        -4.7860   -3.5260   -0.3160 c         1 AI1      0.575700
     20 O1'        -4.3190   -4.6410   -0.4900 o         1 AI1     -0.416100
     21 N1'        -6.2580   -3.5010    0.0580 n4        1 AI1     -0.684800
     22 C1B        -6.4420   -3.7750    1.5260 c3        1 AI1      0.179100
     23 C2B        -7.8860   -3.8170    1.8820 ca        1 AI1     -0.192300
     24 C3B        -8.6030   -5.0130    1.7480 ca        1 AI1     -0.100000
     25 C4B        -9.9460   -5.0620    2.1170 ca        1 AI1     -0.119500
     26 C5B       -10.5750   -3.9210    2.6210 ca        1 AI1     -0.078000
     27 C6B        -9.8600   -2.7300    2.7580 ca        1 AI1     -0.119500
     28 C7B        -8.5170   -2.6740    2.3890 ca        1 AI1     -0.100000
     29 H1         -0.0590    0.3730   -0.8110 h2        1 AI1      0.089700
     30 H2          2.1350    0.4850    0.3450 h1        1 AI1      0.088700
     31 HO2         1.8750   -1.4740   -0.7550 ho        1 AI1      0.414000
     32 H3          0.8590   -1.2470    2.6030 h1        1 AI1      0.070700
     33 HO3         3.1510   -1.4260    2.2090 ho        1 AI1      0.433000
     34 H4          1.0580    0.8160    3.9890 h1        1 AI1      0.068700
     35 HO4         2.8370    1.7030    2.7680 ho        1 AI1      0.432000
     36 H5         -1.0630    0.5190    2.7760 h1        1 AI1      0.073700
     37 HC61       -0.2560    2.9210    3.8120 h1        1 AI1      0.057200
     38 HC62       -0.4110    3.4460    2.0610 h1        1 AI1      0.057200
     39 HO6        -2.4090    3.6000    3.1520 ho        1 AI1      0.412000
     40 H2'        -2.2460    1.1960   -0.4950 ha        1 AI1      0.189000
     41 H3'        -4.5300    0.9880   -1.4740 ha        1 AI1      0.164000
     42 H4'        -5.7370   -1.1670   -1.4220 ha        1 AI1      0.132000
     43 H6'        -2.3150   -3.0210    0.5540 ha        1 AI1      0.178000
     44 HN'1       -6.6670   -2.5880   -0.1660 hn        1 AI1      0.455800
     45 H1'1       -5.9070   -2.9610    2.0940 hx        1 AI1      0.111700
     46 H1'2       -5.9430   -4.7640    1.7450 hx        1 AI1      0.111700
     47 H3B        -8.1060   -5.9190    1.3700 ha        1 AI1      0.140500
     48 H4B       -10.5080   -6.0040    2.0180 ha        1 AI1      0.159500
     49 H5'       -11.6360   -3.9640    2.9170 ha        1 AI1      0.161000
     50 H6B       -10.3550   -1.8330    3.1640 ha        1 AI1      0.159500
     51 H7'        -7.9530   -1.7370    2.5140 ha        1 AI1      0.140500
     52 H1'3       -6.7610   -4.2240   -0.4710 hn        1 AI1      0.455800
@<TRIPOS>BOND
     1    1    2 1   
     2    1    3 1   
     3    1   10 1   
     4    1   29 1   
     5    2   13 1   
     6    3    4 1   
     7    3    5 1   
     8    3   30 1   
     9    4   31 1   
    10    5    6 1   
    11    5    7 1   
    12    5   32 1   
    13    6   33 1   
    14    7    8 1   
    15    7    9 1   
    16    7   34 1   
    17    8   35 1   
    18    9   10 1   
    19    9   11 1   
    20    9   36 1   
    21   11   12 1   
    22   11   37 1   
    23   11   38 1   
    24   12   39 1   
    25   13   14 ar  
    26   13   18 ar  
    27   14   15 ar  
    28   14   40 1   
    29   15   16 ar  
    30   15   41 1   
    31   16   17 ar  
    32   16   42 1   
    33   17   18 ar  
    34   17   19 1   
    35   18   43 1   
    36   19   20 2   
    37   19   21 1   
    38   21   22 1   
    39   21   44 1   
    40   21   52 1   
    41   22   23 1   
    42   22   45 1   
    43   22   46 1   
    44   23   24 ar  
    45   23   28 ar  
    46   24   25 ar  
    47   24   47 1   
    48   25   26 ar  
    49   25   48 1   
    50   26   27 ar  
    51   26   49 1   
    52   27   28 ar  
    53   27   50 1   
    54   28   51 1   
@<TRIPOS>SUBSTRUCTURE
     1 AI1         1 TEMP              0 ****  ****    0 ROOT
