@<TRIPOS>MOLECULE
AI1
   51    49     1     0     0
SMALL
bcc


@<TRIPOS>ATOM
      1 C1          2.8180    0.2320   -0.5160 c3        1 AI1      0.125000
      2 O1          2.3030    1.2270    0.2980 os        1 AI1     -0.271000
      3 C2          3.9180   -0.4830    0.2240 c3        1 AI1     -0.023000
      4 O2          3.4210   -0.8910    1.5270 oh        1 AI1     -0.318000
      5 C3          5.1320    0.3780    0.4120 c3        1 AI1     -0.031000
      6 O3          6.1870   -0.4240    0.9610 oh        1 AI1     -0.335000
      7 C4          5.5980    0.9770   -0.8610 c3        1 AI1      0.007000
      8 O4          6.1240   -0.0610   -1.6950 oh        1 AI1     -0.334000
      9 C5          4.4840    1.6900   -1.6060 c3        1 AI1      0.000000
     10 O5          3.2910    0.8400   -1.7870 os        1 AI1     -0.268000
     11 C6          4.9920    2.1030   -2.9490 c3        1 AI1     -0.004000
     12 O6          5.8040    3.3000   -2.8140 oh        1 AI1     -0.329000
     13 C1'         0.8960    1.2150    0.2230 c2        1 AI1      0.059000
     14 C2'         0.2050    2.3710   -0.1920 c2        1 AI1     -0.114000
     15 C3'        -1.1850    2.4020   -0.1560 c1        1 AI1     -0.120000
     16 C4'        -1.9010    1.2830    0.2940 c1        1 AI1     -0.118000
     17 C5'        -1.2110    0.1240    0.7100 c1        1 AI1     -0.098000
     18 C6'         0.1800    0.0930    0.6740 c1        1 AI1     -0.116000
     19 C7'        -1.9850   -1.0660    1.2470 c2        1 AI1      0.337000
     20 O1'        -1.3820   -2.0830    1.6130 o         1 AI1     -0.362000
     21 N1'        -3.4100   -1.0100    1.3310 n         1 AI1     -0.360000
     22 C1B        -4.1650   -2.2140    1.5560 c3        1 AI1      0.005000
     23 C2B        -5.6280   -1.9970    1.1090 c2        1 AI1     -0.121000
     24 C3B        -5.9670   -2.0880   -0.2480 c2        1 AI1     -0.112000
     25 C4B        -7.3030   -1.9340   -0.6480 c1        1 AI1     -0.131000
     26 C5B        -8.2990   -1.6890    0.3080 c1        1 AI1     -0.128500
     27 C6B        -7.9620   -1.5980    1.6610 c1        1 AI1     -0.128500
     28 C7B        -6.6220   -1.7530    2.0640 c1        1 AI1     -0.121000
     29 H1          2.0880   -0.4260   -0.7240 h2        1 AI1      0.147000
     30 H2          4.1690   -1.2700   -0.2760 h1        1 AI1      0.152000
     31 HO2         2.7070   -1.4310    1.4180 ho        1 AI1      0.218000
     32 H3          4.9160    1.0990    1.0430 h1        1 AI1      0.102000
     33 HO3         6.0670   -0.5120    1.8390 ho        1 AI1      0.225000
     34 H4          6.3200    1.6260   -0.6660 h1        1 AI1      0.106000
     35 HO4         7.0080    0.0850   -1.8380 ho        1 AI1      0.226000
     36 H5          4.2280    2.4950   -1.1010 h1        1 AI1      0.101000
     37 HC61        5.5380    1.3780   -3.3300 h1        1 AI1      0.102500
     38 HC62        4.2370    2.2860   -3.5410 h1        1 AI1      0.102500
     39 HO6         6.4120    3.3320   -3.4890 ho        1 AI1      0.215000
     40 H2'         0.7000    3.1470   -0.5030 ha        1 AI1      0.151000
     41 H3'        -1.6590    3.1970   -0.4410 ha        1 AI1      0.142000
     42 H4'        -2.8650    1.3060    0.3180 ha        1 AI1      0.138000
     43 H6'         0.6500   -0.6970    0.9570 ha        1 AI1      0.163000
     44 HN'1       -3.8440   -0.2210    1.1800 hn        1 AI1      0.220000
     45 H1'1       -3.7760   -2.9390    1.0450 h1        1 AI1      0.110500
     46 H1'2       -4.1450   -2.4410    2.5190 h1        1 AI1      0.110500
     47 H3B        -5.2790   -2.2580   -0.9100 ha        1 AI1      0.153000
     48 H4B        -7.5350   -1.9960   -1.5780 ha        1 AI1      0.135000
     49 H5'        -9.2220   -1.5830    0.0300 ha        1 AI1      0.132000
     50 H6B        -8.6520   -1.4290    2.3230 ha        1 AI1      0.132000
     51 H7'        -6.3920   -1.6900    2.9860 ha        1 AI1      0.129000
@<TRIPOS>BOND
     1    1    2 1   
     2    1    3 1   
     3    1   10 1   
     4    1   29 1   
     5    2   13 1   
     6    3    4 1   
     7    3    5 1   
     8    3   30 1   
     9    4   31 1   
    10    5    6 1   
    11    5    7 1   
    12    5   32 1   
    13    6   33 1   
    14    7    8 1   
    15    7    9 1   
    16    7   34 1   
    17    8   35 1   
    18    9   10 1   
    19    9   11 1   
    20    9   36 1   
    21   11   12 1   
    22   11   37 1   
    23   11   38 1   
    24   12   39 1   
    25   13   14 1   
    26   13   18 1   
    27   14   15 1   
    28   14   40 1   
    29   15   41 1   
    30   16   17 1   
    31   16   42 1   
    32   17   19 1   
    33   18   43 1   
    34   19   20 1   
    35   19   21 1   
    36   21   22 1   
    37   21   44 1   
    38   22   23 1   
    39   22   45 1   
    40   22   46 1   
    41   23   24 1   
    42   23   28 1   
    43   24   25 1   
    44   24   47 1   
    45   25   48 1   
    46   26   27 1   
    47   26   49 1   
    48   27   50 1   
    49   28   51 1   
@<TRIPOS>SUBSTRUCTURE
     1 AI1         1 TEMP              0 ****  ****    0 ROOT
