@<TRIPOS>MOLECULE
AI1
   52    54     1     0     0
SMALL
bcc


@<TRIPOS>ATOM
      1 C1         -0.0120    0.1700    0.2810 c3        1 AI1      0.303900
      2 O1         -0.9110   -0.8900    0.6330 os        1 AI1     -0.343900
      3 C2          1.4070   -0.2830    0.6750 c3        1 AI1      0.090100
      4 O2          1.7270   -1.5430    0.1260 oh        1 AI1     -0.582800
      5 C3          1.5220   -0.4230    2.2010 c3        1 AI1      0.115100
      6 O3          2.8680   -0.6400    2.5790 oh        1 AI1     -0.599800
      7 C4          1.0900    0.8970    2.8650 c3        1 AI1      0.122100
      8 O4          1.9600    1.9570    2.5190 oh        1 AI1     -0.593800
      9 C5         -0.3260    1.2630    2.4010 c3        1 AI1      0.145100
     10 O5         -0.4480    1.3090    0.9710 os        1 AI1     -0.419600
     11 C6         -0.7210    2.6600    2.8860 c3        1 AI1      0.138400
     12 O6         -2.1320    2.6550    3.0390 oh        1 AI1     -0.614800
     13 C1'        -2.1640   -0.8730    0.0690 ca        1 AI1      0.146100
     14 C2'        -2.7890    0.2670   -0.4580 ca        1 AI1     -0.122000
     15 C3'        -4.0810    0.1640   -0.9730 ca        1 AI1     -0.087000
     16 C4'        -4.7670   -1.0480   -0.9450 ca        1 AI1     -0.136000
     17 C5'        -4.1430   -2.1790   -0.3980 ca        1 AI1     -0.175600
     18 C6'        -2.8340   -2.1110    0.0940 ca        1 AI1     -0.088000
     19 C7'        -4.8050   -3.4850   -0.3540 c         1 AI1      0.575700
     20 O1'        -4.3400   -4.5960   -0.5620 o         1 AI1     -0.416100
     21 N1'        -6.2720   -3.4710    0.0400 ny        1 AI1     -0.684800
     22 C1B        -6.4370   -3.7890    1.5010 c3        1 AI1      0.179100
     23 C2B        -7.8770   -3.8420    1.8740 ca        1 AI1     -0.192300
     24 C3B        -8.5950   -5.0340    1.7130 ca        1 AI1     -0.100000
     25 C4B        -9.9330   -5.0950    2.0980 ca        1 AI1     -0.119500
     26 C5B       -10.5560   -3.9700    2.6430 ca        1 AI1     -0.078000
     27 C6B        -9.8400   -2.7830    2.8060 ca        1 AI1     -0.119500
     28 C7B        -8.5020   -2.7150    2.4220 ca        1 AI1     -0.100000
     29 H1         -0.0870    0.4280   -0.8120 h2        1 AI1      0.089700
     30 H2          2.1220    0.5130    0.3190 h1        1 AI1      0.088700
     31 HO2         1.8490   -1.4200   -0.8240 ho        1 AI1      0.414000
     32 H3          0.8740   -1.2720    2.5510 h1        1 AI1      0.070700
     33 HO3         3.1620   -1.4410    2.1240 ho        1 AI1      0.433000
     34 H4          1.0910    0.7580    3.9830 h1        1 AI1      0.068700
     35 HO4         2.8540    1.6730    2.7610 ho        1 AI1      0.432000
     36 H5         -1.0460    0.4880    2.7890 h1        1 AI1      0.073700
     37 HC61       -0.4020    3.4310    2.1360 h1        1 AI1      0.057200
     38 HC62       -0.2270    2.8650    3.8730 h1        1 AI1      0.057200
     39 HO6        -2.3870    3.5590    3.2550 ho        1 AI1      0.412000
     40 H2'        -2.2700    1.2420   -0.4480 ha        1 AI1      0.189000
     41 H3'        -4.5660    1.0560   -1.4030 ha        1 AI1      0.164000
     42 H4'        -5.7710   -1.1010   -1.3890 ha        1 AI1      0.132000
     43 H6'        -2.3230   -3.0000    0.4980 ha        1 AI1      0.178000
     44 HN'1       -6.6830   -2.5520   -0.1520 hn        1 AI1      0.455800
     45 H1'1       -5.8950   -2.9910    2.0860 hx        1 AI1      0.111700
     46 H1'2       -5.9350   -4.7840    1.6840 hx        1 AI1      0.111700
     47 H3B        -8.1020   -5.9280    1.3020 ha        1 AI1      0.140500
     48 H4B       -10.4970   -6.0340    1.9770 ha        1 AI1      0.159500
     49 H5'       -11.6130   -4.0220    2.9510 ha        1 AI1      0.161000
     50 H6B       -10.3300   -1.8990    3.2440 ha        1 AI1      0.159500
     51 H7'        -7.9370   -1.7820    2.5680 ha        1 AI1      0.140500
     52 H1'3       -6.7820   -4.1780   -0.5050 hn        1 AI1      0.455800
@<TRIPOS>BOND
     1    1    2 1   
     2    1    3 1   
     3    1   10 1   
     4    1   29 1   
     5    2   13 1   
     6    3    4 1   
     7    3    5 1   
     8    3   30 1   
     9    4   31 1   
    10    5    6 1   
    11    5    7 1   
    12    5   32 1   
    13    6   33 1   
    14    7    8 1   
    15    7    9 1   
    16    7   34 1   
    17    8   35 1   
    18    9   10 1   
    19    9   11 1   
    20    9   36 1   
    21   11   12 1   
    22   11   37 1   
    23   11   38 1   
    24   12   39 1   
    25   13   14 ar  
    26   13   18 ar  
    27   14   15 ar  
    28   14   40 1   
    29   15   16 ar  
    30   15   41 1   
    31   16   17 ar  
    32   16   42 1   
    33   17   18 ar  
    34   17   19 1   
    35   18   43 1   
    36   19   20 2   
    37   19   21 1   
    38   21   22 1   
    39   21   44 1   
    40   21   52 1   
    41   22   23 1   
    42   22   45 1   
    43   22   46 1   
    44   23   24 ar  
    45   23   28 ar  
    46   24   25 ar  
    47   24   47 1   
    48   25   26 ar  
    49   25   48 1   
    50   26   27 ar  
    51   26   49 1   
    52   27   28 ar  
    53   27   50 1   
    54   28   51 1   
@<TRIPOS>SUBSTRUCTURE
     1 AI1         1 TEMP              0 ****  ****    0 ROOT
