@<TRIPOS>MOLECULE
AI3
   40    37     1     0     0
SMALL
bcc


@<TRIPOS>ATOM
      1 C1         -1.9610    0.1300    0.8810 c1        1 AI3     -0.222000
      2 C2         -0.5530    0.1720    0.8910 c1        1 AI3      0.083000
      3 C3          0.1300    0.1720    2.0900 c1        1 AI3     -0.063000
      4 C4         -0.5780    0.1310    3.3030 c1        1 AI3     -0.222000
      5 C5         -1.9600    0.0900    3.2960 c1        1 AI3      0.140500
      6 C6         -2.6590    0.0890    2.0710 c1        1 AI3      0.140500
      7 C13         1.5390    0.1550    2.0940 c2        1 AI3      0.019000
      8 N14         2.2270    0.1380    0.9100 n2        1 AI3     -0.079000
      9 C15         1.5380    0.1380   -0.2950 c1        1 AI3      0.066000
     10 C16         0.1510    0.1540   -0.3060 c2        1 AI3     -0.084000
     11 C22        -0.2890    0.1840   -1.7160 c3        1 AI3     -0.090000
     12 C23         0.9030    0.1690   -2.5600 c2        1 AI3     -0.038000
     13 C24         2.0180    0.1470   -1.7260 c1        1 AI3     -0.113000
     14 C29         3.3110    0.1580   -2.2780 c1        1 AI3     -0.072000
     15 C30         3.4800    0.1920   -3.6680 c1        1 AI3      0.043500
     16 C31         2.3700    0.2140   -4.5050 c1        1 AI3      0.043500
     17 C32         1.0730    0.2030   -3.9550 c1        1 AI3     -0.103000
     18 O38         2.8420    0.1670   -5.8650 os        1 AI3     -0.198500
     19 C39         4.2580    0.1610   -5.8360 c3        1 AI3      0.098000
     20 O40         4.6660    0.1930   -4.4970 os        1 AI3     -0.198500
     21 O45        -4.0430    0.4850    2.1640 os        1 AI3     -0.158500
     22 C47        -4.9890   -0.5480    1.7440 c3        1 AI3     -0.089000
     23 O49        -2.5940    0.4390    4.5060 os        1 AI3     -0.158500
     24 C51        -2.4820   -0.5610    5.5270 c3        1 AI3     -0.089000
     25 H1         -2.4420    0.1310    0.0310 ha        1 AI3      0.166000
     26 H4         -0.0780    0.1320    4.1760 ha        1 AI3      0.166000
     27 H13         2.0440    0.2390    2.9700 h4        1 AI3      0.198000
     28 H14         3.1150    0.1680    0.9130 hn        1 AI3      0.286000
     29 H221       -0.8010    0.9920   -1.8840 hc        1 AI3      0.145000
     30 H222       -0.8250   -0.5810   -1.9020 hc        1 AI3      0.145000
     31 H29         4.0810    0.2040   -1.6980 ha        1 AI3      0.161000
     32 H32         0.2720    0.1910   -4.5590 ha        1 AI3      0.180000
     33 H391        4.5990   -0.6610   -6.2710 h2        1 AI3      0.135000
     34 H392        4.5990    0.9460   -6.3030 h2        1 AI3      0.135000
     35 H471       -5.8830   -0.3500    2.1220 h1        1 AI3      0.104333
     36 H472       -4.6770   -1.4440    2.0750 h1        1 AI3      0.104333
     37 H473       -5.0440   -0.5610    0.7730 h1        1 AI3      0.104333
     38 H511       -1.6120   -0.4550    6.0030 h1        1 AI3      0.104333
     39 H512       -3.2200   -0.4580    6.1700 h1        1 AI3      0.104333
     40 H513       -2.5270   -1.4650    5.1140 h1        1 AI3      0.104333
@<TRIPOS>BOND
     1    1    6 1   
     2    1   25 1   
     3    2    3 1   
     4    2   10 1   
     5    3    7 1   
     6    4    5 1   
     7    4   26 1   
     8    5   23 1   
     9    6   21 1   
    10    7    8 1   
    11    7   27 1   
    12    8   28 1   
    13    9   10 1   
    14   10   11 1   
    15   11   12 1   
    16   11   29 1   
    17   11   30 1   
    18   12   13 1   
    19   12   17 1   
    20   13   14 1   
    21   14   31 1   
    22   15   16 1   
    23   15   20 1   
    24   16   18 1   
    25   17   32 1   
    26   18   19 1   
    27   19   20 1   
    28   19   33 1   
    29   19   34 1   
    30   21   22 1   
    31   22   35 1   
    32   22   36 1   
    33   22   37 1   
    34   23   24 1   
    35   24   38 1   
    36   24   39 1   
    37   24   40 1   
@<TRIPOS>SUBSTRUCTURE
     1 AI3         1 TEMP              0 ****  ****    0 ROOT
