@<TRIPOS>MOLECULE
AI3
   40    44     1     0     0
SMALL
bcc


@<TRIPOS>ATOM
      1 C1          2.3120   -1.1670   -0.0010 ca        1 AI3     -0.245000
      2 C2          1.4270   -0.0610   -0.0130 ca        1 AI3      0.083000
      3 C3          1.9590    1.2730   -0.0080 ca        1 AI3     -0.063000
      4 C4          3.3720    1.4680    0.0110 ca        1 AI3     -0.199000
      5 C5          4.2180    0.3860    0.0230 ca        1 AI3      0.159100
      6 C6          3.6770   -0.9660    0.0170 ca        1 AI3      0.212100
      7 C13         1.0850    2.3780   -0.0200 ca        1 AI3     -0.005300
      8 N14        -0.2660    2.2240   -0.0380 na        1 AI3     -0.080100
      9 C15        -0.7990    0.9630   -0.0440 cp        1 AI3      0.041700
     10 C16         0.0290   -0.1900   -0.0320 ca        1 AI3     -0.091300
     11 C22        -0.8350   -1.4190   -0.0420 c3        1 AI3      0.003200
     12 C23        -2.2330   -0.8640   -0.0610 ca        1 AI3     -0.045300
     13 C24        -2.2020    0.5610   -0.0620 cp        1 AI3     -0.113000
     14 C29        -3.3630    1.3460   -0.0780 ca        1 AI3     -0.072000
     15 C30        -4.5440    0.6280   -0.0930 ca        1 AI3      0.063100
     16 C31        -4.5790   -0.7980   -0.0920 ca        1 AI3      0.114100
     17 C32        -3.4320   -1.5780   -0.0760 ca        1 AI3     -0.103000
     18 O38        -5.8930   -1.2200   -0.1080 os        1 AI3     -0.311900
     19 C39        -6.7270   -0.0300   -0.1210 c3        1 AI3      0.320200
     20 O40        -5.8400    1.1180   -0.1100 os        1 AI3     -0.318900
     21 O45         4.6230   -1.9420    0.0310 os        1 AI3     -0.270900
     22 C47         4.1620   -3.2970    0.0260 c3        1 AI3      0.099700
     23 O49         5.5820    0.4350    0.0410 os        1 AI3     -0.279900
     24 C51         6.1790    1.7340    0.0480 c3        1 AI3      0.101700
     25 H1          1.8850   -2.1820   -0.0050 ha        1 AI3      0.167000
     26 H4          3.7640    2.4960    0.0150 ha        1 AI3      0.165000
     27 H13         1.4730    3.4170   -0.0160 h4        1 AI3      0.198000
     28 H14        -0.8750    3.0220   -0.0470 hn        1 AI3      0.335700
     29 H221       -0.6340   -2.0470   -0.9490 hc        1 AI3      0.105700
     30 H222       -0.6580   -2.0460    0.8720 hc        1 AI3      0.105700
     31 H29        -3.3480    2.4430   -0.0790 ha        1 AI3      0.161000
     32 H32        -3.4700   -2.6750   -0.0750 ha        1 AI3      0.180000
     33 H391       -7.3150   -0.0190   -1.0710 h2        1 AI3      0.095700
     34 H392       -7.3400   -0.0180    0.8140 h2        1 AI3      0.095700
     35 H471        3.5780   -3.5050   -0.9030 h1        1 AI3      0.066700
     36 H472        5.1170   -3.8830    0.0390 h1        1 AI3      0.066700
     37 H473        3.5540   -3.5030    0.9400 h1        1 AI3      0.066700
     38 H511        7.2760    1.5030    0.0620 h1        1 AI3      0.063367
     39 H512        5.9030    2.2950   -0.8770 h1        1 AI3      0.063367
     40 H513        5.8780    2.2970    0.9640 h1        1 AI3      0.063367
@<TRIPOS>BOND
     1    1    2 ar  
     2    1    6 ar  
     3    1   25 1   
     4    2    3 ar  
     5    2   10 ar  
     6    3    4 ar  
     7    3    7 ar  
     8    4    5 ar  
     9    4   26 1   
    10    5    6 ar  
    11    5   23 1   
    12    6   21 1   
    13    7    8 1   
    14    7   27 1   
    15    8    9 2   
    16    8   28 1   
    17    9   10 ar  
    18    9   13 1   
    19   10   11 1   
    20   11   12 1   
    21   11   29 1   
    22   11   30 1   
    23   12   13 ar  
    24   12   17 ar  
    25   13   14 ar  
    26   14   15 ar  
    27   14   31 1   
    28   15   16 ar  
    29   15   20 1   
    30   16   17 ar  
    31   16   18 1   
    32   17   32 1   
    33   18   19 1   
    34   19   20 1   
    35   19   33 1   
    36   19   34 1   
    37   21   22 1   
    38   22   35 1   
    39   22   36 1   
    40   22   37 1   
    41   23   24 1   
    42   24   38 1   
    43   24   39 1   
    44   24   40 1   
@<TRIPOS>SUBSTRUCTURE
     1 AI3         1 TEMP              0 ****  ****    0 ROOT
