@<TRIPOS>MOLECULE
AI3
   40    44     1     0     0
SMALL
bcc


@<TRIPOS>ATOM
      1 C1          0.0910   -0.0030   -0.0650 ca        1 AI3     -0.245000
      2 C2          1.5080   -0.0240   -0.0760 ca        1 AI3      0.083000
      3 C3          2.2260   -0.0110    1.1680 ca        1 AI3     -0.063000
      4 C4          1.5040    0.0210    2.3980 ca        1 AI3     -0.199000
      5 C5          0.1310    0.0410    2.3920 ca        1 AI3      0.159100
      6 C6         -0.5960    0.0280    1.1300 ca        1 AI3      0.212100
      7 C13         3.6350   -0.0310    1.1660 ca        1 AI3     -0.005300
      8 N14         4.3500   -0.0620    0.0100 na        1 AI3     -0.080100
      9 C15         3.6900   -0.0750   -1.1890 cp        1 AI3      0.041700
     10 C16         2.2710   -0.0560   -1.2530 ca        1 AI3     -0.091300
     11 C22         1.8410   -0.0760   -2.6920 c3        1 AI3      0.003200
     12 C23         3.1430   -0.1080   -3.4460 ca        1 AI3     -0.045300
     13 C24         4.2430   -0.1070   -2.5390 cp        1 AI3     -0.113000
     14 C29         5.5780   -0.1340   -2.9650 ca        1 AI3     -0.072000
     15 C30         5.7450   -0.1610   -4.3370 ca        1 AI3      0.063100
     16 C31         4.6470   -0.1620   -5.2470 ca        1 AI3      0.114100
     17 C32         3.3240   -0.1360   -4.8300 ca        1 AI3     -0.103000
     18 O38         5.1290   -0.1920   -6.5400 os        1 AI3     -0.311900
     19 C39         6.5790   -0.2110   -6.4580 c3        1 AI3      0.320200
     20 O40         6.9320   -0.1910   -5.0510 os        1 AI3     -0.318900
     21 O45        -1.9480    0.0500    1.2700 os        1 AI3     -0.270900
     22 C47        -2.7270    0.0390    0.0680 c3        1 AI3      0.099700
     23 O49        -0.6750    0.0720    3.4940 os        1 AI3     -0.279900
     24 C51        -0.0240    0.0860    4.7670 c3        1 AI3      0.101700
     25 H1         -0.4410   -0.0130   -1.0290 ha        1 AI3      0.167000
     26 H4          2.0690    0.0310    3.3430 ha        1 AI3      0.165000
     27 H13         4.2100   -0.0220    2.1140 h4        1 AI3      0.198000
     28 H14         5.3530   -0.0760    0.0260 hn        1 AI3      0.335700
     29 H221        1.2190   -0.9820   -2.9160 hc        1 AI3      0.105700
     30 H222        1.2440    0.8380   -2.9490 hc        1 AI3      0.105700
     31 H29         6.4300   -0.1330   -2.2740 ha        1 AI3      0.161000
     32 H32         2.4860   -0.1370   -5.5390 ha        1 AI3      0.180000
     33 H391        6.9470   -1.1670   -6.9060 h2        1 AI3      0.095700
     34 H392        6.9740    0.7170   -6.9400 h2        1 AI3      0.095700
     35 H471       -3.7780    0.0610    0.4560 h1        1 AI3      0.066700
     36 H472       -2.5330   -0.8960   -0.5110 h1        1 AI3      0.066700
     37 H473       -2.5070    0.9460   -0.5450 h1        1 AI3      0.066700
     38 H511       -0.8850    0.1120    5.4850 h1        1 AI3      0.063367
     39 H512        0.5830   -0.8410    4.9050 h1        1 AI3      0.063367
     40 H513        0.6090    1.0000    4.8720 h1        1 AI3      0.063367
@<TRIPOS>BOND
     1    1    2 ar  
     2    1    6 ar  
     3    1   25 1   
     4    2    3 ar  
     5    2   10 ar  
     6    3    4 ar  
     7    3    7 ar  
     8    4    5 ar  
     9    4   26 1   
    10    5    6 ar  
    11    5   23 1   
    12    6   21 1   
    13    7    8 1   
    14    7   27 1   
    15    8    9 2   
    16    8   28 1   
    17    9   10 ar  
    18    9   13 1   
    19   10   11 1   
    20   11   12 1   
    21   11   29 1   
    22   11   30 1   
    23   12   13 ar  
    24   12   17 ar  
    25   13   14 ar  
    26   14   15 ar  
    27   14   31 1   
    28   15   16 ar  
    29   15   20 1   
    30   16   17 ar  
    31   16   18 1   
    32   17   32 1   
    33   18   19 1   
    34   19   20 1   
    35   19   33 1   
    36   19   34 1   
    37   21   22 1   
    38   22   35 1   
    39   22   36 1   
    40   22   37 1   
    41   23   24 1   
    42   24   38 1   
    43   24   39 1   
    44   24   40 1   
@<TRIPOS>SUBSTRUCTURE
     1 AI3         1 TEMP              0 ****  ****    0 ROOT
