@<TRIPOS>MOLECULE
AI7
   36    32     1     0     0
SMALL
bcc


@<TRIPOS>ATOM
      1 C1         -2.9080   -1.9170    2.2140 c1        1 AI7     -0.062500
      2 C2         -1.8520   -1.3700    4.7620 c1        1 AI7     -0.077500
      3 C3         -2.8510   -2.3150    4.6240 c1        1 AI7     -0.077500
      4 C4          2.6680    1.6400   -2.7390 c3        1 AI7     -0.079400
      5 C5         -4.5270   -3.6180    3.3540 c1        1 AI7      0.823000
      6 C6         -0.4180    0.6630   -0.6260 c3        1 AI7     -0.088400
      7 C7         -1.3700   -0.6890    3.6280 c1        1 AI7     -0.161500
      8 C8         -0.5290    0.2840    0.8340 c3        1 AI7      0.134400
      9 C9          4.4030    1.9110   -4.4990 c3        1 AI7     -0.091100
     10 C10         2.8810    1.6450   -4.2050 c3        1 AI7     -0.080400
     11 C11        -1.9000   -0.9660    2.3600 c1        1 AI7      0.060600
     12 C12         1.2440    1.2330   -2.4290 c3        1 AI7     -0.078400
     13 C13         1.0490    1.1650   -0.9320 c3        1 AI7     -0.077400
     14 C14        -3.3910   -2.5970    3.3330 c1        1 AI7     -0.083000
     15 O15        -5.7580   -3.2140    3.4050 o         1 AI7     -0.797500
     16 O16        -1.7960   -0.2780    1.0800 os        1 AI7     -0.325400
     17 O17        -4.2700   -4.8710    3.1950 o         1 AI7     -0.797500
     18 H1         -3.2890   -2.0980    1.3230 ha        1 AI7      0.107500
     19 H2         -1.5550   -1.0950    5.6620 ha        1 AI7      0.070500
     20 H3         -3.1440   -2.7170    5.4790 ha        1 AI7      0.070500
     21 H41         3.2800    1.0110   -2.3270 hc        1 AI7      0.037700
     22 H42         2.8380    2.5570   -2.3780 hc        1 AI7      0.037700
     23 H61        -1.0610    1.3840   -0.8290 hc        1 AI7      0.054200
     24 H62        -0.6150   -0.1150   -1.1800 hc        1 AI7      0.054200
     25 H7         -0.5870   -0.2200    3.9970 ha        1 AI7      0.050500
     26 H81        -0.4180    1.0510    1.3660 h1        1 AI7      0.028200
     27 H82         0.1470   -0.3500    1.0480 h1        1 AI7      0.028200
     28 H91         4.9550    1.2890   -3.9660 hc        1 AI7      0.029367
     29 H92         4.6140    2.7870   -4.2690 hc        1 AI7      0.029367
     30 H93         4.5780    1.7730   -5.4310 hc        1 AI7      0.029367
     31 H101        2.6370    0.8320   -4.5560 hc        1 AI7      0.038200
     32 H102        2.3280    2.3700   -4.6230 hc        1 AI7      0.038200
     33 H121        1.0680    0.3870   -2.8040 hc        1 AI7      0.040700
     34 H122        0.6390    1.8780   -2.8000 hc        1 AI7      0.040700
     35 H131        1.1840    2.0620   -0.5390 hc        1 AI7      0.036700
     36 H132        1.7240    0.5110   -0.5290 hc        1 AI7      0.036700
@<TRIPOS>BOND
     1    1   14 3   
     2    1   18 1   
     3    2    3 3   
     4    2   19 1   
     5    3   20 1   
     6    4   10 1   
     7    4   12 1   
     8    4   21 1   
     9    4   22 1   
    10    5   15 2   
    11    5   17 2   
    12    6    8 1   
    13    6   13 1   
    14    6   23 1   
    15    6   24 1   
    16    7   11 3   
    17    7   25 1   
    18    8   16 1   
    19    8   26 1   
    20    8   27 1   
    21    9   10 1   
    22    9   28 1   
    23    9   29 1   
    24    9   30 1   
    25   10   31 1   
    26   10   32 1   
    27   11   16 1   
    28   12   13 1   
    29   12   33 1   
    30   12   34 1   
    31   13   35 1   
    32   13   36 1   
@<TRIPOS>SUBSTRUCTURE
     1 AI7         1 TEMP              0 ****  ****    0 ROOT
