@<TRIPOS>MOLECULE
AI7
   36    36     1     0     0
SMALL
bcc


@<TRIPOS>ATOM
      1 C1         -5.4920   -4.4080   -7.9090 ca        1 AI7     -0.120000
      2 C2         -7.6900   -3.9000   -6.2550 ca        1 AI7     -0.141000
      3 C3         -7.8540   -3.9760   -7.6340 ca        1 AI7     -0.129000
      4 C4          0.0670   -2.9650   -1.7420 c3        1 AI7     -0.079400
      5 C6         -2.2560   -4.0260   -4.6140 c3        1 AI7     -0.088400
      6 C7         -6.4300   -4.0780   -5.6790 ca        1 AI7     -0.219000
      7 C8         -3.7680   -4.0110   -4.7600 c3        1 AI7      0.134400
      8 C9          1.9870   -2.4410   -0.2320 c3        1 AI7     -0.091100
      9 C10         1.5720   -2.9700   -1.5810 c3        1 AI7     -0.080400
     10 C11        -5.3380   -4.3320   -6.5150 ca        1 AI7      0.077100
     11 C12        -0.3440   -3.4980   -3.0980 c3        1 AI7     -0.078400
     12 C13        -1.8490   -3.4930   -3.2580 c3        1 AI7     -0.077400
     13 C14        -6.7570   -4.2320   -8.4680 ca        1 AI7     -0.103600
     14 O15        -5.9330   -4.5240  -10.6950 o         1 AI7     -0.829300
     15 O16        -4.0520   -4.5730   -6.0410 os        1 AI7     -0.341900
     16 O17        -8.1170   -4.1440  -10.4310 o         1 AI7     -0.829300
     17 H1         -4.6320   -4.6100   -8.5660 ha        1 AI7      0.165000
     18 H2         -8.5540   -3.6990   -5.6060 ha        1 AI7      0.104000
     19 H3         -8.8410   -3.8370   -8.1040 ha        1 AI7      0.152000
     20 H41        -0.3210   -1.9200   -1.6150 hc        1 AI7      0.037700
     21 H42        -0.3990   -3.5900   -0.9350 hc        1 AI7      0.037700
     22 H61        -1.8810   -5.0740   -4.7480 hc        1 AI7      0.054200
     23 H62        -1.8000   -3.4050   -5.4290 hc        1 AI7      0.054200
     24 H7         -6.3090   -4.0210   -4.5900 ha        1 AI7      0.108000
     25 H81        -4.1680   -2.9650   -4.6910 h1        1 AI7      0.028200
     26 H82        -4.2500   -4.6430   -3.9670 h1        1 AI7      0.028200
     27 H91         1.6320   -1.3910   -0.0950 hc        1 AI7      0.029367
     28 H92         3.0990   -2.4530   -0.1350 hc        1 AI7      0.029367
     29 H93         1.5540   -3.0650    0.5860 hc        1 AI7      0.029367
     30 H101        1.9580   -4.0160   -1.7100 hc        1 AI7      0.038200
     31 H102        2.0360   -2.3460   -2.3900 hc        1 AI7      0.038200
     32 H121        0.1210   -2.8730   -3.9050 hc        1 AI7      0.040700
     33 H122        0.0430   -4.5430   -3.2250 hc        1 AI7      0.040700
     34 H131       -2.2370   -2.4470   -3.1320 hc        1 AI7      0.036700
     35 H132       -2.3160   -4.1170   -2.4510 hc        1 AI7      0.036700
     36 C5         -6.9490   -4.3060   -9.9780 c         1 AI7      0.907200
@<TRIPOS>BOND
     1    1   10 ar  
     2    1   13 ar  
     3    1   17 1   
     4    2    3 ar  
     5    2    6 ar  
     6    2   18 1   
     7    3   13 ar  
     8    3   19 1   
     9    4    9 1   
    10    4   11 1   
    11    4   20 1   
    12    4   21 1   
    13    5    7 1   
    14    5   12 1   
    15    5   22 1   
    16    5   23 1   
    17    6   10 ar  
    18    6   24 1   
    19    7   15 1   
    20    7   25 1   
    21    7   26 1   
    22    8    9 1   
    23    8   27 1   
    24    8   28 1   
    25    8   29 1   
    26    9   30 1   
    27    9   31 1   
    28   10   15 1   
    29   11   12 1   
    30   11   32 1   
    31   11   33 1   
    32   12   34 1   
    33   12   35 1   
    34   13   36 1   
    35   14   36 1   
    36   16   36 1   
@<TRIPOS>SUBSTRUCTURE
     1 AI7         1 TEMP              0 ****  ****    0 ROOT
