@<TRIPOS>MOLECULE
AI7
   36    35     1     0     0
SMALL
bcc


@<TRIPOS>ATOM
      1 C1          0.3610    0.1060    0.0860 c2        1 AI7      0.022000
      2 C2          1.8920   -1.1350    2.5340 c2        1 AI7     -0.234000
      3 C3         -1.2160   -0.7960    1.8600 c1        1 AI7      0.077000
      4 C4          6.0000    3.4330   -4.3080 c3        1 AI7     -0.158000
      5 C6          3.7990    0.8710   -2.4750 c3        1 AI7     -0.163000
      6 C7          2.3160   -1.0300    1.2730 c2        1 AI7     -0.114000
      7 C8          3.0570    0.9280   -1.1510 c3        1 AI7     -0.021000
      8 C9          7.4720    4.6890   -5.8880 c3        1 AI7     -0.209000
      9 C10         6.7450    3.3960   -5.6260 c3        1 AI7     -0.159000
     10 C11         1.6200   -0.3830    0.1780 c2        1 AI7     -0.059000
     11 C12         5.2710    2.1320   -4.0490 c3        1 AI7     -0.156000
     12 C13         4.5260    2.1720   -2.7320 c3        1 AI7     -0.157000
     13 C14        -0.6720    0.0730    1.0700 c2        1 AI7     -0.492000
     14 O15        -2.0420    1.7770    0.0330 o         1 AI7     -0.489000
     15 O16         2.4020   -0.3350   -0.9950 os        1 AI7     -0.252000
     16 O17        -1.3010    2.1780    2.1310 o         1 AI7     -0.489000
     17 H1          0.0620    0.6020   -0.8620 ha        1 AI7      0.142000
     18 H2          0.9360   -0.7220    2.8860 ha        1 AI7      0.118500
     19 H3          2.4930   -1.6440    3.2980 ha        1 AI7      0.118500
     20 H41         3.7900    3.0190   -2.7410 hc        1 AI7      0.080000
     21 H42         5.2640    4.2810   -4.3170 hc        1 AI7      0.078500
     22 H61         4.5250    0.0170   -2.4580 hc        1 AI7      0.086500
     23 H62         3.0670    0.6670   -3.3000 hc        1 AI7      0.086500
     24 H7          3.2940   -1.4560    0.9800 ha        1 AI7      0.105000
     25 H81         2.2940    1.7510   -1.1500 h1        1 AI7      0.071000
     26 H82         3.7690    1.0870   -0.2980 h1        1 AI7      0.071000
     27 H91         6.7230    3.6320   -3.4740 hc        1 AI7      0.078500
     28 H92         6.7550    5.5440   -5.9250 hc        1 AI7      0.068667
     29 H93         8.0140    4.6410   -6.8630 hc        1 AI7      0.068667
     30 H101        8.2170    4.8930   -5.0800 hc        1 AI7      0.068667
     31 H102        7.4770    2.5460   -5.6160 hc        1 AI7      0.076000
     32 H121        6.0190    3.1960   -6.4590 hc        1 AI7      0.076000
     33 H122        4.5470    1.9340   -4.8830 hc        1 AI7      0.077000
     34 H131        6.0050    1.2840   -4.0400 hc        1 AI7      0.077000
     35 H132        5.2490    2.3710   -1.8970 hc        1 AI7      0.080000
     36 C5         -1.4390    1.5110    1.0910 c2        1 AI7      0.425000
@<TRIPOS>BOND
     1    1   10 1   
     2    1   13 1   
     3    1   17 1   
     4    2    6 1   
     5    2   18 1   
     6    2   19 1   
     7    3   13 1   
     8    4    9 1   
     9    4   11 1   
    10    4   21 1   
    11    4   27 1   
    12    5    7 1   
    13    5   12 1   
    14    5   22 1   
    15    5   23 1   
    16    6   10 1   
    17    6   24 1   
    18    7   15 1   
    19    7   25 1   
    20    7   26 1   
    21    8    9 1   
    22    8   28 1   
    23    8   29 1   
    24    8   30 1   
    25    9   31 1   
    26    9   32 1   
    27   10   15 1   
    28   11   12 1   
    29   11   33 1   
    30   11   34 1   
    31   12   20 1   
    32   12   35 1   
    33   13   36 1   
    34   14   36 1   
    35   16   36 1   
@<TRIPOS>SUBSTRUCTURE
     1 AI7         1 TEMP              0 ****  ****    0 ROOT
