@<TRIPOS>MOLECULE
AI7
   36    35     1     0     0
SMALL
bcc


@<TRIPOS>ATOM
      1 C1          0.3350    0.1200    0.0520 c2        1 AI7      0.022000
      2 C2          1.8330   -1.1450    2.5070 c2        1 AI7     -0.234000
      3 C3         -1.2660   -0.7780    1.8070 c1        1 AI7      0.077000
      4 C4          6.0320    3.4270   -4.2790 c3        1 AI7     -0.158000
      5 C6          3.8000    0.8710   -2.4750 c3        1 AI7     -0.163000
      6 C7          2.2690   -1.0370    1.2510 c2        1 AI7     -0.114000
      7 C8          3.0470    0.9270   -1.1580 c3        1 AI7     -0.021000
      8 C9          7.5250    4.6800   -5.8410 c3        1 AI7     -0.209000
      9 C10         6.7890    3.3900   -5.5900 c3        1 AI7     -0.159000
     10 C11         1.5890   -0.3800    0.1530 c2        1 AI7     -0.059000
     11 C12         5.2930    2.1290   -4.0310 c3        1 AI7     -0.156000
     12 C13         4.5370    2.1680   -2.7210 c3        1 AI7     -0.157000
     13 C14        -0.7080    0.0910    1.0270 c2        1 AI7     -0.492000
     14 O15        -2.0530    1.8120   -0.0130 o         1 AI7     -0.489000
     15 O16         2.3820   -0.3310   -1.0130 os        1 AI7     -0.252000
     16 O17        -1.3280    2.1960    2.0930 o         1 AI7     -0.489000
     17 H1          0.0480    0.6230   -0.8950 ha        1 AI7      0.142000
     18 H2          0.8770   -0.7260    2.8530 ha        1 AI7      0.118500
     19 H3          2.4240   -1.6640    3.2740 ha        1 AI7      0.118500
     20 H41         3.8060    3.0190   -2.7340 hc        1 AI7      0.080000
     21 H42         5.3010    4.2780   -4.2920 hc        1 AI7      0.078500
     22 H61         4.5210    0.0130   -2.4550 hc        1 AI7      0.086500
     23 H62         3.0750    0.6740   -3.3070 hc        1 AI7      0.086500
     24 H7          3.2460   -1.4700    0.9640 ha        1 AI7      0.105000
     25 H81         2.2890    1.7550   -1.1610 h1        1 AI7      0.071000
     26 H82         3.7520    1.0780   -0.2980 h1        1 AI7      0.071000
     27 H91         6.7480    3.6190   -3.4380 hc        1 AI7      0.078500
     28 H92         6.8120    5.5390   -5.8830 hc        1 AI7      0.068667
     29 H93         8.0760    4.6320   -6.8120 hc        1 AI7      0.068667
     30 H101        8.2630    4.8780   -5.0260 hc        1 AI7      0.068667
     31 H102        7.5170    2.5360   -5.5760 hc        1 AI7      0.076000
     32 H121        6.0710    3.1960   -6.4300 hc        1 AI7      0.076000
     33 H122        4.5770    1.9370   -4.8730 hc        1 AI7      0.077000
     34 H131        6.0240    1.2770   -4.0190 hc        1 AI7      0.077000
     35 H132        5.2530    2.3610   -1.8790 hc        1 AI7      0.080000
     36 C5         -1.4630    1.5360    1.0480 c2        1 AI7      0.425000
@<TRIPOS>BOND
     1    1   10 1   
     2    1   13 1   
     3    1   17 1   
     4    2    6 1   
     5    2   18 1   
     6    2   19 1   
     7    3   13 1   
     8    4    9 1   
     9    4   11 1   
    10    4   21 1   
    11    4   27 1   
    12    5    7 1   
    13    5   12 1   
    14    5   22 1   
    15    5   23 1   
    16    6   10 1   
    17    6   24 1   
    18    7   15 1   
    19    7   25 1   
    20    7   26 1   
    21    8    9 1   
    22    8   28 1   
    23    8   29 1   
    24    8   30 1   
    25    9   31 1   
    26    9   32 1   
    27   10   15 1   
    28   11   12 1   
    29   11   33 1   
    30   11   34 1   
    31   12   20 1   
    32   12   35 1   
    33   13   36 1   
    34   14   36 1   
    35   16   36 1   
@<TRIPOS>SUBSTRUCTURE
     1 AI7         1 TEMP              0 ****  ****    0 ROOT
