@<TRIPOS>MOLECULE
AI8
   61    55     1     0     0
SMALL
bcc


@<TRIPOS>ATOM
      1 S1         -0.3640    0.2510   -1.2120 ss        1 AI8      0.051000
      2 N2          1.6770    0.2410    0.2590 n3        1 AI8     -0.294000
      3 S2         -1.3640    2.8090    2.1640 ss        1 AI8      0.467000
      4 N3          1.9230   -0.7660   -3.2800 n3        1 AI8     -0.347000
      5 O3         -0.5410   -1.8610   -2.4340 o         1 AI8     -0.270000
      6 S3         -3.4800    0.8400    3.1540 ss        1 AI8      1.240000
      7 C4          1.0630    0.2510   -1.1740 c3        1 AI8     -0.103000
      8 N4          3.1350   -3.0370   -5.3570 n1        1 AI8      0.028000
      9 O4          2.4820    2.5410    2.8250 o         1 AI8     -0.449500
     10 S4          5.4270   -0.0400   -7.8790 ss        1 AI8      0.410000
     11 C5          1.6070   -1.1010   -1.9820 c3        1 AI8     -0.030000
     12 N5         -2.4230    2.4090    4.6430 n2        1 AI8     -0.038000
     13 O5          1.8130    0.5360    3.4570 o         1 AI8     -0.449500
     14 C6          0.5630   -2.1200   -1.9830 c2        1 AI8      0.189000
     15 N6          3.0840   -0.2860   -7.6700 n2        1 AI8     -0.209000
     16 O6          4.2450   -0.6980   -3.1920 o         1 AI8     -0.343000
     17 C7          1.1750    1.2480    1.2100 c1        1 AI8      0.082000
     18 N7          5.1980   -0.6940   -6.5900 n2        1 AI8     -0.282000
     19 O7          3.2580   -3.6260   -6.6130 o         1 AI8     -0.193000
     20 C8         -1.1400    1.5700   -0.3550 c3        1 AI8     -0.197000
     21 N8          4.0100    0.7890   -9.8270 n3        1 AI8     -0.299000
     22 C9         -0.6060    1.6930    1.0190 c2        1 AI8     -0.484000
     23 N9         -5.1020    2.4970    9.3330 n2        1 AI8     -0.163000
     24 C10         1.8770    1.4450    2.5720 c1        1 AI8      0.364000
     25 C11         3.2360   -1.0680   -3.8040 c1        1 AI8      0.375000
     26 C12         3.3750   -1.7230   -5.2030 c1        1 AI8     -0.045000
     27 C13        -2.3560    1.8900    3.3140 c2        1 AI8     -0.616000
     28 C14         3.7900   -0.8610   -6.4260 c1        1 AI8     -0.008000
     29 C15        -3.6080    1.7020    5.3920 c1        1 AI8     -0.146000
     30 C16        -4.2280    0.7640    4.4790 c1        1 AI8     -0.725000
     31 C17        -4.1010    2.0340    6.8080 c1        1 AI8      0.145000
     32 C18         4.0480    0.2000   -8.5300 c2        1 AI8     -0.123000
     33 C19        -5.0670    2.9890    7.0020 c1        1 AI8     -0.101000
     34 C20        -3.6360    1.3120    7.8720 c1        1 AI8     -0.201000
     35 C21         3.7130   -4.9910   -6.4730 c3        1 AI8     -0.007000
     36 C22        -5.5680    3.2190    8.2750 c1        1 AI8     -0.101000
     37 C23        -4.1430    1.5480    9.1450 c1        1 AI8     -0.009000
     38 C24         3.1540   -5.8220   -7.5940 c3        1 AI8     -0.224000
     39 C25        -5.6890    2.7470   10.5820 c3        1 AI8     -0.090000
     40 HN2         2.4630   -0.1690    0.4110 hn        1 AI8      0.248000
     41 HN3         1.2870   -0.4440   -3.8260 hn        1 AI8      0.263000
     42 H4          1.3880    1.0480   -1.6480 h2        1 AI8      0.128000
     43 H5          2.4120   -1.4560   -1.5290 h1        1 AI8      0.144000
     44 H6          0.7350   -2.9970   -1.5810 h4        1 AI8      0.119000
     45 H18        -2.1240    1.5290   -0.5130 h1        1 AI8      0.121500
     46 H28        -0.9340    2.4320   -0.7770 h1        1 AI8      0.121500
     47 H1N8        4.7840    0.9630  -10.2690 hn        1 AI8      0.217500
     48 H2N8        3.2090    1.0330  -10.1940 hn        1 AI8      0.217500
     49 H16        -4.9440    0.1170    4.7070 DU        1 AI8      0.174000
     50 H19        -5.3980    3.4990    6.2560 ha        1 AI8      0.174000
     51 H20        -2.9480    0.6310    7.7380 ha        1 AI8      0.165000
     52 H121        4.6940   -5.0140   -6.5080 h1        1 AI8      0.093000
     53 H221        3.4120   -5.3470   -5.6270 h1        1 AI8      0.093000
     54 H22        -6.2700    3.9130    8.4170 ha        1 AI8      0.174000
     55 H23        -3.8160    1.0390    9.8960 ha        1 AI8      0.163000
     56 H124        2.1800   -5.8430   -7.5290 hc        1 AI8      0.091667
     57 H224        3.4130   -5.4350   -8.4420 hc        1 AI8      0.091667
     58 H324        3.5070   -6.7410   -7.5300 hc        1 AI8      0.091667
     59 H125       -6.4040    2.0780   10.7530 h1        1 AI8      0.101333
     60 H225       -6.0780    3.6520   10.5860 h1        1 AI8      0.101333
     61 H325       -5.0070    2.6810   11.2810 h1        1 AI8      0.101333
@<TRIPOS>BOND
     1    1    7 1   
     2    1   20 1   
     3    2    7 1   
     4    2   17 1   
     5    2   40 1   
     6    3   22 1   
     7    3   27 1   
     8    4   11 1   
     9    4   25 1   
    10    4   41 1   
    11    5   14 1   
    12    6   27 1   
    13    6   30 1   
    14    7   11 1   
    15    7   42 1   
    16    8   26 1   
    17    9   24 1   
    18   10   18 1   
    19   10   32 1   
    20   11   14 1   
    21   11   43 1   
    22   12   27 1   
    23   12   29 1   
    24   13   24 1   
    25   14   44 1   
    26   15   28 1   
    27   15   32 1   
    28   16   25 1   
    29   17   22 1   
    30   18   28 1   
    31   19   35 1   
    32   20   22 1   
    33   20   45 1   
    34   20   46 1   
    35   21   32 1   
    36   21   47 1   
    37   21   48 1   
    38   23   37 1   
    39   23   39 1   
    40   29   30 1   
    41   31   34 1   
    42   33   36 1   
    43   33   50 1   
    44   34   51 1   
    45   35   38 1   
    46   35   52 1   
    47   35   53 1   
    48   36   54 1   
    49   37   55 1   
    50   38   56 1   
    51   38   57 1   
    52   38   58 1   
    53   39   59 1   
    54   39   60 1   
    55   39   61 1   
@<TRIPOS>SUBSTRUCTURE
     1 AI8         1 TEMP              0 ****  ****    0 ROOT
