@<TRIPOS>MOLECULE
AI8
   62    66     1     0     0
SMALL
bcc


@<TRIPOS>ATOM
      1 S1         -0.6660    0.2300   -0.6590 ss        1 AI8     -0.379200
      2 N2          1.1380   -0.9760    0.9500 nh        1 AI8     -0.727000
      3 S2         -0.3880    1.9750    3.2360 ss        1 AI8     -0.010800
      4 N3          0.9430   -1.1520   -2.8240 n4        1 AI8     -0.661800
      5 S3         -1.0310   -0.5660    4.7810 sx        1 AI8      0.438200
      6 C4          0.9500   -0.5120   -0.3960 c3        1 AI8      0.279600
      7 N4          3.2480   -2.1860   -5.3240 n2        1 AI8     -0.252200
      8 S4         -0.3180    0.8050   -6.6380 ss        1 AI8      0.131700
      9 C5          1.0380   -1.6770   -1.4210 c3        1 AI8     -0.008500
     10 N5         -2.2370    1.6890    5.0960 ne        1 AI8     -0.478300
     11 C6         -0.0270   -2.7470   -1.1330 c         1 AI8      0.583900
     12 N6          1.9630   -0.3080   -7.1420 nc        1 AI8     -0.710000
     13 O6          3.1350   -0.3360   -2.7510 o         1 AI8     -0.393100
     14 C7          0.7850   -0.1410    2.0160 ce        1 AI8      0.104800
     15 N7          0.3920    0.0180   -5.4070 nd        1 AI8     -0.661100
     16 O7          3.9540   -2.8150   -4.4390 os        1 AI8     -0.196300
     17 C8         -0.7890    1.3410    0.7310 c3        1 AI8      0.103900
     18 N8          1.0130    0.8160   -9.0640 nh        1 AI8     -0.927500
     19 C9         -0.0900    0.8980    1.9530 c2        1 AI8     -0.195600
     20 N9         -5.4890    1.9810    9.0530 na        1 AI8     -0.042100
     21 C10         1.4940   -0.5540    3.3220 c         1 AI8      0.767800
     22 C12         2.4160   -1.2730   -4.8800 ce        1 AI8      0.225300
     23 C13        -1.3010    1.0900    4.3510 cf        1 AI8      0.340500
     24 C14         1.5630   -0.5060   -5.8210 cc        1 AI8      0.588700
     25 C15        -2.7090    0.7970    6.0610 ce        1 AI8     -0.041400
     26 C16        -2.1350   -0.5100    5.9350 ce        1 AI8     -0.597000
     27 C17        -3.6380    1.1930    7.0560 cd        1 AI8      0.186000
     28 C18         0.9950    0.4290   -7.7690 cd        1 AI8      0.695300
     29 C19        -4.1000    0.2870    8.0510 cd        1 AI8     -0.181500
     30 C20        -4.1600    2.5190    7.1150 cd        1 AI8     -0.181500
     31 C21         4.9230   -3.7880   -5.0000 c3        1 AI8      0.155400
     32 C22        -5.0000    0.6960    9.0170 cc        1 AI8     -0.029800
     33 C23        -5.0590    2.8790    8.1000 cc        1 AI8     -0.029800
     34 C24         5.6260   -4.3390   -3.7880 c3        1 AI8     -0.117100
     35 HN2         2.0220   -1.4340    1.0990 hn        1 AI8      0.443800
     36 HN3         0.3830   -0.2750   -2.8180 hn        1 AI8      0.490800
     37 H4          1.7360    0.2540   -0.6720 h2        1 AI8      0.084700
     38 H5          2.0480   -2.1830   -1.3110 hx        1 AI8      0.130700
     39 H6         -0.1520   -2.9930   -0.0580 h4        1 AI8      0.094200
     40 H18        -0.4140    2.3470    0.4120 h1        1 AI8      0.097700
     41 H28        -1.8950    1.4150    0.9140 h1        1 AI8      0.097700
     42 H1N8        0.2790    1.3790   -9.4180 hn        1 AI8      0.463300
     43 H2N8        1.7790    0.5860   -9.6530 hn        1 AI8      0.463300
     44 H16        -2.4100   -1.3300    6.5990 h4        1 AI8      0.165000
     45 H19        -3.7390   -0.7530    8.0660 ha        1 AI8      0.189500
     46 H20        -3.8450    3.2730    6.3740 ha        1 AI8      0.189500
     47 H121        5.6190   -3.2420   -5.6850 h1        1 AI8      0.074700
     48 H221        4.3510   -4.5720   -5.5580 h1        1 AI8      0.074700
     49 H22        -5.3640    0.0040    9.8020 h4        1 AI8      0.183000
     50 H23        -5.4710    3.9040    8.1670 h4        1 AI8      0.183000
     51 H124        6.4000   -5.0690   -4.1300 hc        1 AI8      0.064700
     52 H224        6.1270   -3.5230   -3.2130 hc        1 AI8      0.064700
     53 H324        4.9080   -4.8620   -3.1120 hc        1 AI8      0.064700
     54 H125       -6.9530    1.5090   10.5000 h1        1 AI8      0.079700
     55 H225       -5.8320    2.8950   10.9210 h1        1 AI8      0.079700
     56 H325       -7.1500    3.1260    9.6690 h1        1 AI8      0.079700
     57 O3         -0.6400   -3.2860   -2.0500 o         1 AI8     -0.499100
     58 O4          0.7800   -0.8320    4.3590 os        1 AI8     -0.412900
     59 O5          2.7300   -0.6680    3.3030 o         1 AI8     -0.676500
     60 C11         2.2850   -0.8630   -3.4480 c         1 AI8      0.471800
     61 H32         0.4360   -1.8420   -3.4040 hn        1 AI8      0.490800
     62 C25        -6.4050    2.3990   10.0910 c3        1 AI8     -0.010400
@<TRIPOS>BOND
     1    1    6 1   
     2    1   17 1   
     3    2    6 1   
     4    2   14 1   
     5    2   35 1   
     6    3   19 1   
     7    3   23 1   
     8    4    9 1   
     9    4   36 1   
    10    4   60 1   
    11    4   61 1   
    12    5   23 1   
    13    5   26 2   
    14    5   58 1   
    15    6    9 1   
    16    6   37 1   
    17    7   16 1   
    18    7   22 2   
    19    8   15 1   
    20    8   28 1   
    21    9   11 1   
    22    9   38 1   
    23   10   23 2   
    24   10   25 1   
    25   11   39 1   
    26   11   57 2   
    27   12   24 1   
    28   12   28 2   
    29   13   60 2   
    30   14   19 2   
    31   14   21 1   
    32   15   24 2   
    33   16   31 1   
    34   17   19 1   
    35   17   40 1   
    36   17   41 1   
    37   18   28 1   
    38   18   42 1   
    39   18   43 1   
    40   20   32 1   
    41   20   33 1   
    42   20   62 1   
    43   21   58 1   
    44   21   59 2   
    45   22   24 1   
    46   22   60 1   
    47   25   26 1   
    48   25   27 2   
    49   26   44 1   
    50   27   29 1   
    51   27   30 1   
    52   29   32 2   
    53   29   45 1   
    54   30   33 2   
    55   30   46 1   
    56   31   34 1   
    57   31   47 1   
    58   31   48 1   
    59   32   49 1   
    60   33   50 1   
    61   34   51 1   
    62   34   52 1   
    63   34   53 1   
    64   54   62 1   
    65   55   62 1   
    66   56   62 1   
@<TRIPOS>SUBSTRUCTURE
     1 AI8         1 TEMP              0 ****  ****    0 ROOT
