@<TRIPOS>MOLECULE
AI8
   61    65     1     0     0
SMALL
bcc


@<TRIPOS>ATOM
      1 S1         -1.0080    0.8020   -0.6990 ss        1 AI8     -0.356200
      2 N2         -0.9970   -1.5370   -2.1320 nh        1 AI8     -0.323100
      3 S2          2.6730   -1.4160   -0.8170 sx        1 AI8     -0.043800
      4 N3         -3.8230   -0.5270    0.1390 n         1 AI8     -0.533900
      5 S3          2.9200    0.8930    1.2590 ss        1 AI8     -0.061300
      6 C4         -1.8510   -0.6390   -1.3960 c3        1 AI8      0.103100
      7 N4         -7.0660   -0.1600    0.9890 n2        1 AI8     -0.353200
      8 S4         -7.0800    3.4410   -1.7290 ss        1 AI8      0.043700
      9 C5         -2.6640   -1.2970   -0.2280 c3        1 AI8     -0.036300
     10 N5          4.8940   -0.1620   -0.0050 nc        1 AI8     -0.652000
     11 C6         -1.7220   -1.5670    0.9400 c         1 AI8      0.571900
     12 N6         -5.0370    2.0740   -0.9670 nc        1 AI8     -0.732000
     13 O6         -5.2770   -1.6720   -1.2330 o         1 AI8     -0.585100
     14 C7          0.2970   -1.7560   -1.6600 ce        1 AI8      0.120600
     15 N7         -7.4010    2.0460   -0.9390 nd        1 AI8     -0.504100
     16 O7         -6.9350   -1.3300    1.5690 os        1 AI8     -0.175300
     17 C8          0.7080    0.6180   -1.1400 c3        1 AI8      0.091900
     18 N8         -4.4270    4.0700   -2.2230 nh        1 AI8     -0.903500
     19 C9          1.1400   -0.7810   -1.1870 ce        1 AI8     -0.502800
     20 N9          9.6020    1.1860    1.4800 na        1 AI8     -0.033100
     21 C10         0.9230   -3.1310   -1.7420 c         1 AI8      0.637300
     22 C12        -6.1800    0.1320    0.0740 ce        1 AI8      0.278300
     23 C13         3.5710   -0.2030    0.0340 cd        1 AI8      0.637000
     24 C14        -6.2480    1.4410   -0.6210 cc        1 AI8      0.581700
     25 C15         5.4050    0.7140    0.9690 cc        1 AI8      0.285800
     26 C16         4.4110    1.3810    1.7180 cd        1 AI8     -0.213400
     27 C17         6.8100    0.8800    1.1400 ca        1 AI8      0.070500
     28 C18        -5.3270    3.2240   -1.6170 cd        1 AI8      0.649300
     29 C19         7.3520    1.8010    2.0750 ca        1 AI8     -0.168000
     30 C20         7.7420    0.1190    0.3780 ca        1 AI8     -0.168000
     31 C21        -7.9790   -1.6220    2.5520 c3        1 AI8      0.146400
     32 C22         8.7230    1.9310    2.2250 ca        1 AI8     -0.035300
     33 C23         9.1010    0.2850    0.5640 ca        1 AI8     -0.035300
     34 C24        -7.6250   -2.9910    3.0800 c3        1 AI8     -0.108100
     35 HN2        -1.4560   -2.3970   -2.3840 hn        1 AI8      0.274700
     36 HN3        -3.6790    0.2580    0.7310 hn        1 AI8      0.338500
     37 H4         -2.5910   -0.2310   -2.1460 h2        1 AI8      0.106700
     38 H5         -3.0330   -2.3100   -0.5920 h1        1 AI8      0.111700
     39 H6         -0.7920   -2.1020    0.6400 h4        1 AI8      0.026200
     40 H18         0.8660    1.0950   -2.1430 h1        1 AI8      0.071700
     41 H28         1.2640    1.2240   -0.3780 h1        1 AI8      0.071700
     42 H1N8       -4.6790    5.0320   -2.2120 hn        1 AI8      0.422800
     43 H2N8       -3.4590    3.8840   -2.0650 hn        1 AI8      0.422800
     44 H16         4.6110    2.1160    2.4950 h4        1 AI8      0.168000
     45 H19         6.6870    2.4230    2.6940 ha        1 AI8      0.196500
     46 H20         7.3810   -0.6140   -0.3680 ha        1 AI8      0.196500
     47 H121       -7.9560   -0.8460    3.3580 h1        1 AI8      0.051200
     48 H221       -8.9760   -1.6180    2.0430 h1        1 AI8      0.051200
     49 H22         9.1610    2.6420    2.9520 h4        1 AI8      0.184000
     50 H23         9.8450   -0.2970   -0.0140 h4        1 AI8      0.184000
     51 H124       -7.6110   -3.7390    2.2510 hc        1 AI8      0.053033
     52 H224       -6.6160   -2.9790    3.5580 hc        1 AI8      0.053033
     53 H324       -8.3870   -3.2950    3.8370 hc        1 AI8      0.053033
     54 H125       11.5390    1.3390    0.6590 h1        1 AI8      0.080033
     55 H225       11.2680    2.2600    2.2160 h1        1 AI8      0.080033
     56 H325       11.4160    0.4350    2.2480 h1        1 AI8      0.080033
     57 O3         -1.9580   -1.2640    2.1080 o         1 AI8     -0.525100
     58 O4          2.1870   -3.1390   -1.4000 os        1 AI8     -0.337900
     59 O5          0.3090   -4.1570   -2.0760 o         1 AI8     -0.688500
     60 C25        11.0330    1.3130    1.6620 c3        1 AI8     -0.012400
     61 C11        -5.0610   -0.7640   -0.4100 c         1 AI8      0.586800
@<TRIPOS>BOND
     1    1    6 1   
     2    1   17 1   
     3    2    6 1   
     4    2   14 2   
     5    2   35 1   
     6    3   19 2   
     7    3   23 1   
     8    3   58 1   
     9    4    9 1   
    10    4   36 1   
    11    4   61 1   
    12    5   23 1   
    13    5   26 1   
    14    6    9 1   
    15    6   37 1   
    16    7   16 1   
    17    7   22 2   
    18    8   15 1   
    19    8   28 1   
    20    9   11 1   
    21    9   38 1   
    22   10   23 2   
    23   10   25 1   
    24   11   39 1   
    25   11   57 2   
    26   12   24 1   
    27   12   28 2   
    28   13   61 2   
    29   14   19 1   
    30   14   21 1   
    31   15   24 2   
    32   16   31 1   
    33   17   19 1   
    34   17   40 1   
    35   17   41 1   
    36   18   28 1   
    37   18   42 1   
    38   18   43 1   
    39   20   32 1   
    40   20   33 2   
    41   20   60 1   
    42   21   58 1   
    43   21   59 2   
    44   22   24 1   
    45   22   61 1   
    46   25   26 2   
    47   25   27 1   
    48   26   44 1   
    49   27   29 ar  
    50   27   30 ar  
    51   29   32 ar  
    52   29   45 1   
    53   30   33 ar  
    54   30   46 1   
    55   31   34 1   
    56   31   47 1   
    57   31   48 1   
    58   32   49 1   
    59   33   50 1   
    60   34   51 1   
    61   34   52 1   
    62   34   53 1   
    63   54   60 1   
    64   55   60 1   
    65   56   60 1   
@<TRIPOS>SUBSTRUCTURE
     1 AI8         1 TEMP              0 ****  ****    0 ROOT
