@<TRIPOS>MOLECULE
AI9
   36    36     1     0     0
SMALL
bcc


@<TRIPOS>ATOM
      1 O4         -6.9530   -0.8110    0.9020 o         1 AI9     -0.657500
      2 N3         -5.7900    1.1310    1.0380 n         1 AI9     -0.589500
      3 N5         -4.8410   -2.1230   -0.4660 nh        1 AI9     -0.760600
      4 O2         -4.5980    3.0960    1.2150 o         1 AI9     -0.676500
      5 N1         -3.4560    1.2250    0.4770 n         1 AI9     -0.471100
      6 C6         -3.4690   -0.1190    0.0540 cc        1 AI9      0.276200
      7 C5         -4.6670   -0.8400    0.0920 cd        1 AI9     -0.113200
      8 C4         -5.8760   -0.2220    0.6790 c         1 AI9      0.724700
      9 P           3.9480    0.2630    1.2310 p5        1 AI9      1.335900
     10 O1P         3.0840   -0.9860    1.2850 o         1 AI9     -0.926167
     11 O2P         3.0910    1.5020    1.2260 o         1 AI9     -0.926167
     12 O3P         5.2510    0.2790    1.9580 o         1 AI9     -0.926167
     13 C5'         3.4850    0.6400   -1.3580 c3        1 AI9      0.197400
     14 O5'         4.3600    0.1100   -0.4470 os        1 AI9     -0.571200
     15 C4'         2.2920   -0.3090   -1.6790 c3        1 AI9      0.098100
     16 O4'         2.6640   -1.6590   -1.5050 oh        1 AI9     -0.653800
     17 C3'         1.1250    0.0310   -0.7290 c3        1 AI9      0.030100
     18 O3'         0.4150    1.1770   -1.1940 oh        1 AI9     -0.653800
     19 C2'         0.1290   -1.1300   -0.5920 c3        1 AI9      0.126800
     20 O2'         0.5730   -2.1390    0.2840 oh        1 AI9     -0.649800
     21 C1'        -1.1400   -0.5480    0.0270 c2        1 AI9      0.535200
     22 N1'        -2.3070   -0.6980   -0.5050 ne        1 AI9     -0.651300
     23 C2         -4.6090    1.8780    0.9180 c         1 AI9      0.803500
     24 H1         -6.5900    1.5950    1.4050 hn        1 AI9      0.337500
     25 H2         -3.9920   -2.4970   -0.8390 hn        1 AI9      0.375300
     26 H3         -5.2320   -2.7470    0.2150 hn        1 AI9      0.375300
     27 H8          3.0790    1.6250   -0.9910 h1        1 AI9     -0.006300
     28 H9          4.0410    0.8100   -2.3260 h1        1 AI9     -0.006300
     29 H10         1.9680   -0.2070   -2.7470 h1        1 AI9      0.020700
     30 H11         3.1440   -1.6900   -0.6420 ho        1 AI9      0.476000
     31 H12         1.5870    0.2470    0.3000 h1        1 AI9      0.166700
     32 H13         0.9610    1.9270   -0.9200 ho        1 AI9      0.425000
     33 H14        -0.0700   -1.6150   -1.5860 h1        1 AI9      0.061700
     34 H15         1.4380   -1.8710    0.6780 ho        1 AI9      0.511000
     35 H16        -0.9340    0.0000    0.9740 h4        1 AI9     -0.002200
     36 H4         -2.6240    1.7720    0.3900 hn        1 AI9      0.367500
@<TRIPOS>BOND
     1    1    8 2   
     2    2    8 1   
     3    2   23 1   
     4    2   24 1   
     5    3    7 1   
     6    3   25 1   
     7    3   26 1   
     8    4   23 2   
     9    5    6 1   
    10    5   23 1   
    11    5   36 1   
    12    6    7 2   
    13    6   22 1   
    14    7    8 1   
    15    9   10 1   
    16    9   11 1   
    17    9   12 1   
    18    9   14 1   
    19   13   14 1   
    20   13   15 1   
    21   13   27 1   
    22   13   28 1   
    23   15   16 1   
    24   15   17 1   
    25   15   29 1   
    26   16   30 1   
    27   17   18 1   
    28   17   19 1   
    29   17   31 1   
    30   18   32 1   
    31   19   20 1   
    32   19   21 1   
    33   19   33 1   
    34   20   34 1   
    35   21   22 2   
    36   21   35 1   
@<TRIPOS>SUBSTRUCTURE
     1 AI9         1 TEMP              0 ****  ****    0 ROOT
