@<TRIPOS>MOLECULE
AI9
   37    38     1     0     0
SMALL
bcc


@<TRIPOS>ATOM
      1 O4          0.0000    0.0000    0.0000 o         1 AI9     -0.498000
      2 N3          1.8960    0.0000    1.1650 ns        1 AI9      0.089000
      3 N5          1.2490   -0.0090   -2.4500 nz        1 AI9      1.117000
      4 O2          3.8250    0.0110    2.2470 o         1 AI9     -0.464000
      5 N1          3.9530    0.0030    0.0400 ns        1 AI9      0.184000
      6 C6          3.3120   -0.0040   -1.1860 c2        1 AI9     -0.041000
      7 C5          1.9320   -0.0020   -1.2230 c2        1 AI9     -0.809000
      8 C4          1.2180    0.0000    0.0000 c2        1 AI9      0.333000
      9 P          10.3400   -3.4830   -6.9740 p5        1 AI9      1.068500
     10 O1P        11.4630   -3.7920   -5.8630 o         1 AI9     -0.443833
     11 O2P        11.0510   -3.0120   -8.3390 o         1 AI9     -0.443833
     12 O3P         9.5460   -4.7060   -7.2280 o         1 AI9     -0.443833
     13 C5'         8.5150   -2.4660   -5.3080 c3        1 AI9      0.116000
     14 O5'         9.3690   -2.3140   -6.4440 os        1 AI9     -0.657000
     15 C4'         7.7320   -1.1720   -5.0810 c3        1 AI9      0.047000
     16 O4'         6.8540   -0.9460   -6.1850 oh        1 AI9     -0.306000
     17 C3'         6.9130   -1.2900   -3.7940 c3        1 AI9      0.060000
     18 O3'         7.7910   -1.5160   -2.6890 oh        1 AI9     -0.291000
     19 C2'         6.1290    0.0050   -3.5670 DU        1 AI9      0.054000
     20 O2'         5.2520    0.2300   -4.6720 oh        1 AI9     -0.313000
     21 C1'         5.3220   -0.1120   -2.3000 c2        1 AI9     -0.530000
     22 N1'         4.0320   -0.0050   -2.3410 n2        1 AI9     -0.106000
     23 C2          3.2400    0.0050    1.1800 c2        1 AI9      0.165000
     24 H1          1.3920   -0.0030    2.0290 hn        1 AI9      0.107000
     25 H2          0.2630    0.0340   -2.2830 hn        1 AI9     -0.043000
     26 H3          1.4670   -0.8500   -2.9480 hn        1 AI9     -0.043000
     27 H8          7.8230   -3.2800   -5.4830 h1        1 AI9      0.031500
     28 H9          9.1140   -2.6840   -4.4320 h1        1 AI9      0.031500
     29 H10         8.4230   -0.3420   -4.9930 h1        1 AI9      0.051000
     30 H11         7.3190   -0.4910   -6.8680 ho        1 AI9      0.193000
     31 H12         6.2220   -2.1200   -3.8810 h1        1 AI9      0.049000
     32 H13         7.5420   -2.3110   -2.2480 ho        1 AI9      0.188000
     33 H14         6.8200    0.8340   -3.4800 ha        1 AI9      0.059000
     34 H15         5.1140    1.1570   -4.7800 ho        1 AI9      0.180000
     35 H16         5.4570   -0.9490   -2.9740 DU        1 AI9      0.214000
     36 H4          4.9540    0.0020    0.0780 hn        1 AI9      0.139000
     37 H53         1.5310    0.7830   -2.9930 hn        1 AI9     -0.043000
@<TRIPOS>BOND
     1    1    8 1   
     2    2    8 1   
     3    2   23 1   
     4    2   24 1   
     5    3    7 1   
     6    3   25 1   
     7    3   26 1   
     8    3   37 1   
     9    4   23 1   
    10    5    6 1   
    11    5   23 1   
    12    5   36 1   
    13    6    7 1   
    14    6   22 1   
    15    7    8 1   
    16    9   10 1   
    17    9   11 1   
    18    9   12 1   
    19    9   14 1   
    20   13   14 1   
    21   13   15 1   
    22   13   27 1   
    23   13   28 1   
    24   15   16 1   
    25   15   17 1   
    26   15   29 1   
    27   16   30 1   
    28   17   18 1   
    29   17   19 1   
    30   17   31 1   
    31   18   32 1   
    32   19   20 1   
    33   19   21 1   
    34   19   33 1   
    35   19   35 1   
    36   20   34 1   
    37   21   22 1   
    38   21   35 1   
@<TRIPOS>SUBSTRUCTURE
     1 AI9         1 TEMP              0 ****  ****    0 ROOT
