@<TRIPOS>MOLECULE
AI9
   36    34     1     0     0
SMALL
bcc


@<TRIPOS>ATOM
      1 O4         -5.2100   -1.7270    2.6150 o         1 AI9     -0.410000
      2 N3         -3.1680   -1.7950    3.6360 n         1 AI9     -0.381000
      3 N5         -4.2310   -1.7830   -0.0010 n3        1 AI9     -0.238000
      4 O2         -1.0220   -2.1220    4.4600 o         1 AI9     -0.448000
      5 N1         -1.1130   -1.8480    2.1560 n         1 AI9     -0.318000
      6 C6         -1.9350   -1.8090    1.0000 c1        1 AI9      0.156000
      7 C5         -3.3990   -1.7230    1.1470 c2        1 AI9     -0.296000
      8 C4         -4.0000   -1.7210    2.4900 c2        1 AI9      0.379000
      9 P           5.2020    2.2140   -2.4160 p3        1 AI9      2.533000
     10 O1P         5.3790    1.2530   -3.5690 o         1 AI9     -0.984000
     11 O2P         6.5240    2.3980   -1.7050 os        1 AI9     -1.170000
     12 O3P         4.7230    3.5450   -2.9400 o         1 AI9     -0.984000
     13 C5'         2.7710    1.6620   -1.7670 c3        1 AI9     -0.009000
     14 O5'         4.1320    1.6300   -1.4000 os        1 AI9     -0.751000
     15 C4'         1.9390    0.9870   -0.6880 c3        1 AI9      0.007000
     16 O4'         2.1840    1.6080    0.5500 oh        1 AI9     -0.356000
     17 C3'         0.4770    1.1080   -1.0300 c3        1 AI9      0.033000
     18 O3'         0.2790    0.7480   -2.3750 oh        1 AI9     -0.358000
     19 C2'        -0.3330    0.1850   -0.1320 c3        1 AI9     -0.005000
     20 O2'        -1.5570    0.7990    0.1910 oh        1 AI9     -0.362000
     21 C1'        -0.5970   -1.1130   -0.8530 c2        1 AI9     -0.331000
     22 N1'        -1.3600   -2.0390   -0.2920 n1        1 AI9     -0.213000
     23 C2         -1.7220   -1.9450    3.4820 c2        1 AI9      0.382000
     24 H1         -3.5400   -1.7940    4.4700 hn        1 AI9      0.234000
     25 H2         -4.6530   -1.0290   -0.3000 hn        1 AI9      0.133500
     26 H3         -4.3290   -2.5720   -0.4540 hn        1 AI9      0.133500
     27 H8          2.6500    1.1880   -2.6170 h1        1 AI9      0.082000
     28 H9          2.4810    2.5920   -1.8680 h1        1 AI9      0.082000
     29 H10         2.1830    0.0410   -0.6320 h1        1 AI9      0.091000
     30 H11         2.7800    1.1330    1.0070 ho        1 AI9      0.223000
     31 H12         0.1870    2.0320   -0.8950 h1        1 AI9      0.101000
     32 H13        -0.0750    1.4330   -2.8170 ho        1 AI9      0.234000
     33 H14         0.1680    0.0060    0.6880 h1        1 AI9      0.110000
     34 H15        -1.4030    1.6080    0.5260 ho        1 AI9      0.200000
     35 H16        -0.2060   -1.2710   -1.7330 h4        1 AI9      0.220000
     36 H4         -0.2050   -1.8770    2.0680 hn        1 AI9      0.279000
@<TRIPOS>BOND
     1    1    8 1   
     2    2    8 1   
     3    2   23 1   
     4    2   24 1   
     5    3    7 1   
     6    3   25 1   
     7    3   26 1   
     8    4   23 1   
     9    5    6 1   
    10    5   23 1   
    11    5   36 1   
    12    6    7 1   
    13    7    8 1   
    14    9   10 1   
    15    9   12 1   
    16    9   14 1   
    17   13   14 1   
    18   13   15 1   
    19   13   27 1   
    20   13   28 1   
    21   15   16 1   
    22   15   17 1   
    23   15   29 1   
    24   16   30 1   
    25   17   18 1   
    26   17   19 1   
    27   17   31 1   
    28   18   32 1   
    29   19   20 1   
    30   19   21 1   
    31   19   33 1   
    32   20   34 1   
    33   21   22 1   
    34   21   35 1   
@<TRIPOS>SUBSTRUCTURE
     1 AI9         1 TEMP              0 ****  ****    0 ROOT
