@<TRIPOS>MOLECULE
AIA
   41    40     1     0     0
SMALL
bcc


@<TRIPOS>ATOM
      1 C2          0.4930    0.9600   -2.5710 c3        1 AIA      0.133000
      2 C3          1.5670    1.0270   -0.4950 c3        1 AIA      0.031000
      3 C4         -0.9080   -0.0870   -0.8650 c1        1 AIA      0.260000
      4 C5          2.0720    0.9340   -2.6290 c3        1 AIA     -0.166000
      5 C6         -0.0130    2.3820   -2.9090 c1        1 AIA     -0.172000
      6 C7          2.5500    0.8110   -1.1850 c3        1 AIA     -0.161000
      7 C8          1.4890    2.5630   -0.1420 c3        1 AIA     -0.092000
      8 C9         -0.9590   -0.5580    0.5920 c2        1 AIA     -0.023000
      9 N1          0.2750    0.5940   -1.3650 n3        1 AIA     -0.325000
     10 O10        -1.8190   -0.3610   -1.6250 o         1 AIA     -0.369000
     11 C11        -0.4100    3.5050   -3.1740 c1        1 AIA     -0.198000
     12 N12         2.4860    2.8770    0.8470 n3        1 AIA     -0.351000
     13 C13        -1.9160   -1.7770    0.7140 c3        1 AIA     -0.105000
     14 N14        -1.4200    0.4810    1.4030 n3        1 AIA     -0.329000
     15 C16        -1.0500   -3.1880    0.6630 c3        1 AIA     -0.153000
     16 C17        -2.5150   -1.7600    1.8660 c3        1 AIA     -0.153000
     17 C18        -0.5750   -3.3780    1.8990 c3        1 AIA     -0.158500
     18 C19        -1.5860   -2.6480    2.8370 c3        1 AIA     -0.158500
     19 H2         -0.0080    0.4140   -3.2130 h1        1 AIA      0.132000
     20 H3          1.6120    0.4900    0.3340 h1        1 AIA      0.090000
     21 H51         2.3710    0.1790   -3.1410 hc        1 AIA      0.098000
     22 H52         2.4120    1.7710   -3.0290 hc        1 AIA      0.098000
     23 H71         2.8880   -0.0860   -1.0170 hc        1 AIA      0.102500
     24 H72         3.2440    1.4740   -1.0020 hc        1 AIA      0.102500
     25 H81         1.6510    3.0870   -0.9410 h1        1 AIA      0.076500
     26 H82         0.5910    2.7760    0.2160 h1        1 AIA      0.076500
     27 H9         -0.0570   -0.8210    0.8820 h4        1 AIA      0.107000
     28 H11        -0.7260    4.3950   -3.3850 DU        1 AIA      0.222000
     29 H121        2.6940    3.7740    0.7990 hn        1 AIA      0.148500
     30 H122        2.1640    2.6860    1.6720 hn        1 AIA      0.148500
     31 H13        -2.5860   -1.7610   -0.0180 hc        1 AIA      0.113000
     32 H141       -0.7210    0.8970    1.7810 hn        1 AIA      0.156000
     33 H142       -1.8960    1.0860    0.8880 hn        1 AIA      0.156000
     34 H161       -0.3020   -3.1060    0.0190 hc        1 AIA      0.085500
     35 H162       -1.6490   -3.9500    0.4030 hc        1 AIA      0.085500
     36 H171       -3.4170   -2.1620    1.7900 hc        1 AIA      0.085500
     37 H172       -2.5800   -0.8350    2.2040 hc        1 AIA      0.085500
     38 H181        0.3190   -2.9780    1.9860 hc        1 AIA      0.080500
     39 H182       -0.5430   -4.3530    2.1140 hc        1 AIA      0.080500
     40 H191       -1.0970   -2.0590    3.4810 hc        1 AIA      0.080500
     41 H192       -2.1240   -3.2930    3.3150 hc        1 AIA      0.080500
@<TRIPOS>BOND
     1    1    4 1   
     2    1    5 1   
     3    1    9 1   
     4    1   19 1   
     5    2    6 1   
     6    2    7 1   
     7    2    9 1   
     8    2   20 1   
     9    3    9 1   
    10    3   10 1   
    11    4    6 1   
    12    4   21 1   
    13    4   22 1   
    14    5   11 1   
    15    6   23 1   
    16    6   24 1   
    17    7   12 1   
    18    7   25 1   
    19    7   26 1   
    20    8   13 1   
    21    8   14 1   
    22    8   27 1   
    23   12   29 1   
    24   12   30 1   
    25   13   15 1   
    26   13   16 1   
    27   13   31 1   
    28   14   32 1   
    29   14   33 1   
    30   15   17 1   
    31   15   34 1   
    32   15   35 1   
    33   16   18 1   
    34   16   36 1   
    35   16   37 1   
    36   17   18 1   
    37   17   38 1   
    38   17   39 1   
    39   18   40 1   
    40   18   41 1   
@<TRIPOS>SUBSTRUCTURE
     1 AIA         1 TEMP              0 ****  ****    0 ROOT
