@<TRIPOS>MOLECULE
AIA
   43    44     1     0     0
SMALL
bcc


@<TRIPOS>ATOM
      1 C2          0.1550   -0.0190   -0.0430 c3        1 AIA      0.201800
      2 C3          0.7210   -0.8790    2.1550 c3        1 AIA      0.090700
      3 C4         -1.5580   -1.2920    1.3460 c         1 AIA      0.655100
      4 C5          1.7040   -0.0280    0.0670 c3        1 AIA     -0.081400
      5 C6         -0.3390    1.3280   -0.2140 c1        1 AIA     -0.255100
      6 C7          2.0360   -0.4000    1.5060 c3        1 AIA     -0.105400
      7 C8          0.4270   -0.1140    3.4750 c3        1 AIA      0.074800
      8 C9         -2.6320   -1.2440    0.2360 c3        1 AIA      0.068500
      9 N1         -0.3410   -0.6890    1.1700 n         1 AIA     -0.444800
     10 O10        -1.8220   -1.8870    2.4170 o         1 AIA     -0.623100
     11 C11        -0.6960    2.4530   -0.4110 c1        1 AIA     -0.020500
     12 N12         1.4020   -0.4530    4.5470 n4        1 AIA     -0.832600
     13 C13        -3.4450    0.0600    0.3340 c3        1 AIA     -0.093700
     14 N14        -3.5300   -2.4440    0.3620 n4        1 AIA     -0.837600
     15 C16        -4.4180    0.1950   -0.8410 c3        1 AIA     -0.105900
     16 C17        -4.3070    0.1330    1.5950 c3        1 AIA     -0.105900
     17 C18        -5.8080   -0.1570   -0.3240 c3        1 AIA     -0.101400
     18 C19        -5.7220   -0.2630    1.1930 c3        1 AIA     -0.101400
     19 H2         -0.1570   -0.6340   -0.9440 h1        1 AIA      0.082700
     20 H3          0.7750   -1.9840    2.3970 h1        1 AIA      0.086700
     21 H51         2.1240   -0.7800   -0.6470 hc        1 AIA      0.098700
     22 H52         2.1240    0.9730   -0.2040 hc        1 AIA      0.098700
     23 H71         2.4510    0.4900    2.0440 hc        1 AIA      0.075200
     24 H72         2.8010   -1.2160    1.5360 hc        1 AIA      0.075200
     25 H81        -0.6050   -0.3900    3.8480 hx        1 AIA      0.129700
     26 H82         0.4730    1.0000    3.2990 hx        1 AIA      0.129700
     27 H9         -2.1480   -1.3020   -0.7870 hx        1 AIA      0.127700
     28 H11        -1.0060    3.4570   -0.5990 ha        1 AIA      0.199500
     29 H121        1.2010    0.1060    5.3860 hn        1 AIA      0.470467
     30 H122        2.3610   -0.2530    4.2360 hn        1 AIA      0.470467
     31 H13        -2.6930    0.8980    0.3140 hc        1 AIA      0.108700
     32 H141       -3.7520   -2.5960    1.3590 hn        1 AIA      0.476467
     33 H142       -3.0730   -3.2800   -0.0100 hn        1 AIA      0.476467
     34 H161       -4.1250   -0.4430   -1.7110 hc        1 AIA      0.072450
     35 H162       -4.4060    1.2570   -1.2030 hc        1 AIA      0.072450
     36 H171       -4.3050    1.1880    1.9750 hc        1 AIA      0.072450
     37 H172       -3.9080   -0.5120    2.4170 hc        1 AIA      0.072450
     38 H181       -6.5430    0.6350   -0.6220 hc        1 AIA      0.068950
     39 H182       -6.1770   -1.1140   -0.7740 hc        1 AIA      0.068950
     40 H191       -5.9570   -1.3030    1.5350 hc        1 AIA      0.068950
     41 H192       -6.4710    0.4120    1.6820 hc        1 AIA      0.068950
     42 H123        1.3370   -1.4490    4.7890 hn        1 AIA      0.470467
     43 H143       -4.4050   -2.2600   -0.1500 hn        1 AIA      0.476467
@<TRIPOS>BOND
     1    1    4 1   
     2    1    5 1   
     3    1    9 1   
     4    1   19 1   
     5    2    6 1   
     6    2    7 1   
     7    2    9 1   
     8    2   20 1   
     9    3    8 1   
    10    3    9 1   
    11    3   10 2   
    12    4    6 1   
    13    4   21 1   
    14    4   22 1   
    15    5   11 3   
    16    6   23 1   
    17    6   24 1   
    18    7   12 1   
    19    7   25 1   
    20    7   26 1   
    21    8   13 1   
    22    8   14 1   
    23    8   27 1   
    24   11   28 1   
    25   12   29 1   
    26   12   30 1   
    27   12   42 1   
    28   13   15 1   
    29   13   16 1   
    30   13   31 1   
    31   14   32 1   
    32   14   33 1   
    33   14   43 1   
    34   15   17 1   
    35   15   34 1   
    36   15   35 1   
    37   16   18 1   
    38   16   36 1   
    39   16   37 1   
    40   17   18 1   
    41   17   38 1   
    42   17   39 1   
    43   18   40 1   
    44   18   41 1   
@<TRIPOS>SUBSTRUCTURE
     1 AIA         1 TEMP              0 ****  ****    0 ROOT
