@<TRIPOS>MOLECULE
AIA
   41    42     1     0     0
SMALL
bcc


@<TRIPOS>ATOM
      1 C2          1.3110   -1.3340    1.0010 c3        1 AIA      0.192800
      2 C3          2.4930    0.6040    0.1650 c3        1 AIA      0.107700
      3 C4          0.0570    0.8140    0.5440 c         1 AIA      0.627100
      4 C5          2.8240   -1.5710    1.2690 c3        1 AIA     -0.083400
      5 C6          0.7950   -2.3610    0.1150 c1        1 AIA     -0.161100
      6 C7          3.5640   -0.3930    0.6510 c3        1 AIA     -0.084400
      7 C8          2.6450    0.9100   -1.3470 c3        1 AIA      0.143800
      8 C9         -1.3080    0.2150    0.9630 c3        1 AIA      0.122500
      9 N1          1.1880    0.0250    0.4870 n         1 AIA     -0.467800
     10 O10         0.1420    2.0270    0.2500 o         1 AIA     -0.630100
     11 C11         0.3800   -3.2280   -0.5970 c1        1 AIA     -0.131500
     12 N12         3.8810    1.5960   -1.6390 n3        1 AIA     -0.915800
     13 C13        -1.9710   -0.3870   -0.2920 c3        1 AIA     -0.066700
     14 N14        -2.1470    1.1660    1.6620 n3        1 AIA     -0.889800
     15 C16        -3.2880   -1.0820    0.0540 c3        1 AIA     -0.080400
     16 C17        -2.3100    0.6600   -1.3530 c3        1 AIA     -0.080400
     17 C18        -4.4150   -0.1560   -0.3800 c3        1 AIA     -0.079400
     18 C19        -3.8160    0.8810   -1.3210 c3        1 AIA     -0.079400
     19 H2          0.7450   -1.4120    1.9810 h1        1 AIA      0.067700
     20 H3          2.5820    1.5790    0.7310 h1        1 AIA      0.065700
     21 H51         3.1580   -2.5380    0.8230 hc        1 AIA      0.058700
     22 H52         2.9980   -1.6190    2.3720 hc        1 AIA      0.058700
     23 H71         4.2040   -0.7290   -0.2030 hc        1 AIA      0.064200
     24 H72         4.2290    0.1020    1.4000 hc        1 AIA      0.064200
     25 H81         1.7350    1.5000   -1.6700 h1        1 AIA      0.042200
     26 H82         2.6470   -0.0590   -1.9220 h1        1 AIA      0.042200
     27 H9         -1.1270   -0.6290    1.6960 h1        1 AIA      0.069700
     28 H11         0.0110   -4.0010   -1.2220 ha        1 AIA      0.167500
     29 H121        3.9260    1.8140   -2.6150 hn        1 AIA      0.350300
     30 H122        3.9510    2.4450   -1.1130 hn        1 AIA      0.350300
     31 H13        -1.2430   -1.1350   -0.7100 hc        1 AIA      0.065700
     32 H141       -1.5870    1.7820    2.2210 hn        1 AIA      0.360300
     33 H142       -2.6760    1.7160    1.0110 hn        1 AIA      0.360300
     34 H161       -3.3510   -2.0530   -0.5010 hc        1 AIA      0.050700
     35 H162       -3.3570   -1.3140    1.1460 hc        1 AIA      0.050700
     36 H171       -1.7550    1.6170   -1.1750 hc        1 AIA      0.050700
     37 H172       -1.9990    0.2820   -2.3610 hc        1 AIA      0.050700
     38 H181       -5.2290   -0.7320   -0.8850 hc        1 AIA      0.041950
     39 H182       -4.8650    0.3470    0.5130 hc        1 AIA      0.041950
     40 H191       -4.2480    0.7800   -2.3480 hc        1 AIA      0.041950
     41 H192       -4.0530    1.9150   -0.9640 hc        1 AIA      0.041950
@<TRIPOS>BOND
     1    1    4 1   
     2    1    5 1   
     3    1    9 1   
     4    1   19 1   
     5    2    6 1   
     6    2    7 1   
     7    2    9 1   
     8    2   20 1   
     9    3    8 1   
    10    3    9 1   
    11    3   10 2   
    12    4    6 1   
    13    4   21 1   
    14    4   22 1   
    15    5   11 3   
    16    6   23 1   
    17    6   24 1   
    18    7   12 1   
    19    7   25 1   
    20    7   26 1   
    21    8   13 1   
    22    8   14 1   
    23    8   27 1   
    24   11   28 1   
    25   12   29 1   
    26   12   30 1   
    27   13   15 1   
    28   13   16 1   
    29   13   31 1   
    30   14   32 1   
    31   14   33 1   
    32   15   17 1   
    33   15   34 1   
    34   15   35 1   
    35   16   18 1   
    36   16   36 1   
    37   16   37 1   
    38   17   18 1   
    39   17   38 1   
    40   17   39 1   
    41   18   40 1   
    42   18   41 1   
@<TRIPOS>SUBSTRUCTURE
     1 AIA         1 TEMP              0 ****  ****    0 ROOT
