@<TRIPOS>MOLECULE
AIA
   43    44     1     0     0
SMALL
bcc


@<TRIPOS>ATOM
      1 C2          0.1520    0.0010   -0.0280 c3        1 AIA      0.201800
      2 C3          0.7200   -0.8760    2.1630 c3        1 AIA      0.090700
      3 C4         -1.5560   -1.2950    1.3460 c         1 AIA      0.655100
      4 C5          1.7010    0.0000    0.0850 c3        1 AIA     -0.081400
      5 C6         -0.3490    1.3460   -0.1870 c1        1 AIA     -0.255100
      6 C7          2.0330   -0.3840    1.5210 c3        1 AIA     -0.105400
      7 C8          0.4190   -0.1250    3.4890 c3        1 AIA      0.074800
      8 C9         -2.6270   -1.2430    0.2340 c3        1 AIA      0.068500
      9 N1         -0.3420   -0.6840    1.1780 n         1 AIA     -0.444800
     10 O10        -1.8180   -1.9010    2.4110 o         1 AIA     -0.623100
     11 C11        -0.7130    2.4720   -0.3740 c1        1 AIA     -0.020500
     12 N12         1.3940   -0.4680    4.5600 nz        1 AIA     -0.832600
     13 C13        -3.4490    0.0550    0.3430 c3        1 AIA     -0.093700
     14 N14        -3.5180   -2.4490    0.3470 nz        1 AIA     -0.837600
     15 C16        -4.4200    0.1950   -0.8330 c3        1 AIA     -0.105900
     16 C17        -4.3140    0.1110    1.6020 c3        1 AIA     -0.105900
     17 C18        -5.8090   -0.1710   -0.3230 c3        1 AIA     -0.101400
     18 C19        -5.7250   -0.2900    1.1940 c3        1 AIA     -0.101400
     19 H2         -0.1540   -0.6080   -0.9350 h1        1 AIA      0.082700
     20 H3          0.7790   -1.9830    2.3950 h1        1 AIA      0.086700
     21 H51         2.1270   -0.7430   -0.6360 hc        1 AIA      0.098700
     22 H52         2.1160    1.0060   -0.1760 hc        1 AIA      0.098700
     23 H71         2.8020   -1.1960    1.5450 hc        1 AIA      0.075200
     24 H72         2.4420    0.5030    2.0680 hc        1 AIA      0.075200
     25 H81         0.4590    0.9910    3.3230 hx        1 AIA      0.129700
     26 H82        -0.6120   -0.4100    3.8580 hx        1 AIA      0.129700
     27 H9         -2.1420   -1.2890   -0.7880 hx        1 AIA      0.127700
     28 H11        -1.0290    3.4750   -0.5530 ha        1 AIA      0.199500
     29 H121        1.3330   -1.4660    4.7930 hn        1 AIA      0.470467
     30 H122        1.1880    0.0820    5.4040 hn        1 AIA      0.470467
     31 H13        -2.7020    0.8970    0.3320 hc        1 AIA      0.108700
     32 H141       -3.0560   -3.2800   -0.0300 hn        1 AIA      0.476467
     33 H142       -3.7420   -2.6120    1.3430 hn        1 AIA      0.476467
     34 H161       -4.1210   -0.4340   -1.7080 hc        1 AIA      0.072450
     35 H162       -4.4130    1.2600   -1.1850 hc        1 AIA      0.072450
     36 H171       -3.9130   -0.5390    2.4200 hc        1 AIA      0.072450
     37 H172       -4.3190    1.1630    1.9920 hc        1 AIA      0.072450
     38 H181       -6.5480    0.6200   -0.6150 hc        1 AIA      0.068950
     39 H182       -6.1720   -1.1250   -0.7830 hc        1 AIA      0.068950
     40 H191       -6.4790    0.3770    1.6870 hc        1 AIA      0.068950
     41 H192       -5.9550   -1.3340    1.5260 hc        1 AIA      0.068950
     42 H123        2.3520   -0.2600    4.2520 hn        1 AIA      0.470467
     43 H143       -4.3940   -2.2670   -0.1640 hn        1 AIA      0.476467
@<TRIPOS>BOND
     1    1    4 1   
     2    1    5 1   
     3    1    9 1   
     4    1   19 1   
     5    2    6 1   
     6    2    7 1   
     7    2    9 1   
     8    2   20 1   
     9    3    8 1   
    10    3    9 1   
    11    3   10 2   
    12    4    6 1   
    13    4   21 1   
    14    4   22 1   
    15    5   11 3   
    16    6   23 1   
    17    6   24 1   
    18    7   12 1   
    19    7   25 1   
    20    7   26 1   
    21    8   13 1   
    22    8   14 1   
    23    8   27 1   
    24   11   28 1   
    25   12   29 1   
    26   12   30 1   
    27   12   42 1   
    28   13   15 1   
    29   13   16 1   
    30   13   31 1   
    31   14   32 1   
    32   14   33 1   
    33   14   43 1   
    34   15   17 1   
    35   15   34 1   
    36   15   35 1   
    37   16   18 1   
    38   16   36 1   
    39   16   37 1   
    40   17   18 1   
    41   17   38 1   
    42   17   39 1   
    43   18   40 1   
    44   18   41 1   
@<TRIPOS>SUBSTRUCTURE
     1 AIA         1 TEMP              0 ****  ****    0 ROOT
