@<TRIPOS>MOLECULE
AIA
   43    44     1     0     0
SMALL
bcc


@<TRIPOS>ATOM
      1 C2          0.1390   -0.0060   -0.0400 c3        1 AIA      0.201800
      2 C3          0.7110   -0.8780    2.1520 c3        1 AIA      0.090700
      3 C4         -1.5680   -1.2920    1.3440 c         1 AIA      0.655100
      4 C5          1.6880   -0.0110    0.0680 c3        1 AIA     -0.081400
      5 C6         -0.3590    1.3410   -0.2010 c1        1 AIA     -0.255100
      6 C7          2.0240   -0.3910    1.5040 c3        1 AIA     -0.105400
      7 C8          0.4170   -0.1220    3.4770 c3        1 AIA      0.074800
      8 C9         -2.6430   -1.2400    0.2350 c3        1 AIA      0.068500
      9 N1         -0.3530   -0.6850    1.1700 n         1 AIA     -0.444800
     10 O10        -1.8290   -1.8940    2.4110 o         1 AIA     -0.623100
     11 C11        -0.7190    2.4670   -0.3900 c1        1 AIA     -0.020500
     12 N12         1.3950   -0.4650    4.5460 n4        1 AIA     -0.832600
     13 C13        -3.4610    0.0610    0.3430 c3        1 AIA     -0.093700
     14 N14        -3.5380   -2.4430    0.3550 n4        1 AIA     -0.837600
     15 C16        -4.4350    0.2010   -0.8300 c3        1 AIA     -0.105900
     16 C17        -4.3210    0.1230    1.6050 c3        1 AIA     -0.105900
     17 C18        -5.8240   -0.1590   -0.3140 c3        1 AIA     -0.101400
     18 C19        -5.7350   -0.2740    1.2020 c3        1 AIA     -0.101400
     19 H2         -0.1720   -0.6160   -0.9440 h1        1 AIA      0.082700
     20 H3          0.7680   -1.9850    2.3870 h1        1 AIA      0.086700
     21 H51         2.1100   -0.7570   -0.6520 hc        1 AIA      0.098700
     22 H52         2.1050    0.9930   -0.1970 hc        1 AIA      0.098700
     23 H71         2.7900   -1.2060    1.5280 hc        1 AIA      0.075200
     24 H72         2.4380    0.4950    2.0470 hc        1 AIA      0.075200
     25 H81        -0.6140   -0.4030    3.8500 hx        1 AIA      0.129700
     26 H82         0.4600    0.9930    3.3080 hx        1 AIA      0.129700
     27 H9         -2.1620   -1.2900   -0.7890 hx        1 AIA      0.127700
     28 H11        -1.0330    3.4700   -0.5720 ha        1 AIA      0.199500
     29 H121        1.3310   -1.4620    4.7820 hn        1 AIA      0.470467
     30 H122        2.3520   -0.2610    4.2340 hn        1 AIA      0.470467
     31 H13        -2.7110    0.9010    0.3280 hc        1 AIA      0.108700
     32 H141       -3.7580   -2.6020    1.3510 hn        1 AIA      0.476467
     33 H142       -4.4150   -2.2590   -0.1540 hn        1 AIA      0.476467
     34 H161       -4.1410   -0.4310   -1.7040 hc        1 AIA      0.072450
     35 H162       -4.4260    1.2650   -1.1850 hc        1 AIA      0.072450
     36 H171       -3.9200   -0.5260    2.4230 hc        1 AIA      0.072450
     37 H172       -4.3210    1.1760    1.9920 hc        1 AIA      0.072450
     38 H181       -6.1910   -1.1140   -0.7700 hc        1 AIA      0.068950
     39 H182       -6.5610    0.6330   -0.6060 hc        1 AIA      0.068950
     40 H191       -5.9670   -1.3170    1.5380 hc        1 AIA      0.068950
     41 H192       -6.4850    0.3960    1.6960 hc        1 AIA      0.068950
     42 H123        1.1930    0.0880    5.3880 hn        1 AIA      0.470467
     43 H143       -3.0790   -3.2760   -0.0220 hn        1 AIA      0.476467
@<TRIPOS>BOND
     1    1    4 1   
     2    1    5 1   
     3    1    9 1   
     4    1   19 1   
     5    2    6 1   
     6    2    7 1   
     7    2    9 1   
     8    2   20 1   
     9    3    8 1   
    10    3    9 1   
    11    3   10 2   
    12    4    6 1   
    13    4   21 1   
    14    4   22 1   
    15    5   11 3   
    16    6   23 1   
    17    6   24 1   
    18    7   12 1   
    19    7   25 1   
    20    7   26 1   
    21    8   13 1   
    22    8   14 1   
    23    8   27 1   
    24   11   28 1   
    25   12   29 1   
    26   12   30 1   
    27   12   42 1   
    28   13   15 1   
    29   13   16 1   
    30   13   31 1   
    31   14   32 1   
    32   14   33 1   
    33   14   43 1   
    34   15   17 1   
    35   15   34 1   
    36   15   35 1   
    37   16   18 1   
    38   16   36 1   
    39   16   37 1   
    40   17   18 1   
    41   17   38 1   
    42   17   39 1   
    43   18   40 1   
    44   18   41 1   
@<TRIPOS>SUBSTRUCTURE
     1 AIA         1 TEMP              0 ****  ****    0 ROOT
