@<TRIPOS>MOLECULE
AIB
   15    14     1     0     0
SMALL
bcc


@<TRIPOS>ATOM
      1 N          -1.3730    0.6980    0.9870 n3        1 AIB     -0.882800
      2 CA         -0.1050    0.0260    0.6610 c3        1 AIB      0.021200
      3 C           0.1740   -0.0320   -0.8910 c         1 AIB      0.892600
      4 O           1.2380   -0.5900   -1.2750 o         1 AIB     -0.843300
      5 OXT        -0.6830    0.4820   -1.6660 o         1 AIB     -0.843300
      6 CB1         1.0800    0.7560    1.3000 c3        1 AIB     -0.062100
      7 CB2        -0.1070   -1.4190    1.1680 c3        1 AIB     -0.062100
      8 H          -1.3310    1.6170    0.5790 hn        1 AIB      0.329800
      9 H2         -2.1000    0.2080    0.4940 hn        1 AIB      0.329800
     10 HB11        1.0200    0.7270    2.4140 hc        1 AIB      0.020367
     11 HB12        2.0210    0.2550    0.9670 hc        1 AIB      0.020367
     12 HB13        1.1120    1.8220    0.9710 hc        1 AIB      0.020367
     13 HB21        0.8400   -1.9080    0.8360 hc        1 AIB      0.020367
     14 HB22       -0.1720   -1.4560    2.2820 hc        1 AIB      0.020367
     15 HB23       -0.9680   -1.9870    0.7410 hc        1 AIB      0.020367
@<TRIPOS>BOND
     1    1    2 1   
     2    1    8 1   
     3    1    9 1   
     4    2    3 1   
     5    2    6 1   
     6    2    7 1   
     7    3    4 1   
     8    3    5 1   
     9    6   10 1   
    10    6   11 1   
    11    6   12 1   
    12    7   13 1   
    13    7   14 1   
    14    7   15 1   
@<TRIPOS>SUBSTRUCTURE
     1 AIB         1 TEMP              0 ****  ****    0 ROOT
