@<TRIPOS>MOLECULE
AIC
   44    44     1     0     0
SMALL
bcc


@<TRIPOS>ATOM
      1 C8          2.7110   -2.9560   -0.9780 c1        1 AIC     -1.525900
      2 C5          1.4110    1.4670    0.5400 c3        1 AIC     -0.067600
      3 C6          4.0720   -5.3790   -1.3250 c3        1 AIC     -0.184500
      4 N1          6.1880   -1.9430    1.4870 ns        1 AIC     -0.586900
      5 N3          5.3830   -4.9510    0.5720 n         1 AIC     -0.087600
      6 C4          2.8430    2.0580    0.5480 c3        1 AIC      0.162800
      7 C3          5.9880   -0.7910    2.2480 c         1 AIC      0.679900
      8 C7          0.7860    1.5180    1.9230 c3        1 AIC     -0.093100
      9 C9          1.5610   -2.2900   -0.9320 ce        1 AIC      0.451200
     10 C10         1.4660   -0.9900   -0.4270 cg        1 AIC     -0.301300
     11 C11         1.4260    0.1270    0.0190 c1        1 AIC      0.055900
     12 C12         5.0020   -5.9020   -0.2370 c2        1 AIC      0.247500
     13 C13         4.8140   -3.6720    0.2740 cv        1 AIC     -1.228600
     14 C14         5.3080   -3.0410    1.5530 cy        1 AIC      0.263900
     15 C15         5.9990   -4.4470    1.8670 c         1 AIC      0.716500
     16 N2          3.8310    1.3740    1.3310 n8        1 AIC     -0.912800
     17 O3          5.0320   -0.6880    3.0270 o         1 AIC     -0.573100
     18 O4          6.6800   -5.0680    2.6340 o         1 AIC     -0.406500
     19 S1          3.9180   -3.5660   -0.9770 s6        1 AIC      2.107400
     20 HC8         1.3530    0.8820    2.6450 hc        1 AIC      0.054367
     21 HN1         6.9050   -1.9540    0.8010 hn        1 AIC      0.329500
     22 HC4         2.7660    3.1230    0.9090 h1        1 AIC      0.066200
     23 HC1         2.2960   -5.9410   -0.1970 hc        1 AIC      0.072200
     24 HC2         2.8400   -7.1620   -1.4230 hc        1 AIC      0.072200
     25 HC3         2.0220   -5.6420   -1.9700 hc        1 AIC      0.072200
     26 HC7         0.7950    2.5720    2.2930 hc        1 AIC      0.054367
     27 HC9        -0.2710    1.1600    1.8890 hc        1 AIC      0.054367
     28 HC01        0.6130   -2.7430   -1.2960 ha        1 AIC      0.143000
     29 HC11        0.7900    2.1070   -0.1570 hc        1 AIC      0.097700
     30 HC21        5.2890   -6.9650   -0.1510 h4        1 AIC      0.112800
     31 HC31        4.6170   -3.1670   -1.9120 hs        1 AIC      0.115800
     32 HC41        4.4980   -2.8590    2.3190 h1        1 AIC      0.139700
     33 H161        4.0090   -5.2000   -3.4840 hc        1 AIC      0.072200
     34 H162        5.6830   -5.0950   -2.7670 hc        1 AIC      0.072200
     35 H163        4.8320   -6.6890   -2.8760 hc        1 AIC      0.072200
     36 HN21        3.2090    2.0800   -0.5190 h1        1 AIC      0.066200
     37 HN22        3.7220    1.5520    2.3110 hn        1 AIC      0.354800
     38 C2          6.9100   -9.3140    1.7460 c1        1 AIC      0.902000
     39 O1          7.4570  -10.1820    2.3370 o         1 AIC     -0.450500
     40 O2          6.3580   -8.4380    1.1490 o         1 AIC     -0.450500
     41 C16         4.6860   -5.5960   -2.6870 c3        1 AIC     -0.086600
     42 H12         6.7570   -0.0030    2.0830 h5        1 AIC      0.079200
     43 H23         3.7920    0.3830    1.1850 hn        1 AIC      0.354800
     44 C1          2.7320   -6.0680   -1.2180 c3        1 AIC     -0.086600
@<TRIPOS>BOND
     1    1    9 2   
     2    1   19 2   
     3    2    6 1   
     4    2    8 1   
     5    2   11 1   
     6    2   29 1   
     7    3   12 1   
     8    3   19 1   
     9    3   41 1   
    10    3   44 1   
    11    4    7 1   
    12    4   14 1   
    13    4   21 1   
    14    5   12 2   
    15    5   13 1   
    16    5   15 1   
    17    6   16 1   
    18    6   22 1   
    19    6   36 1   
    20    7   17 2   
    21    7   42 1   
    22    8   20 1   
    23    8   26 1   
    24    8   27 1   
    25    9   10 1   
    26    9   28 1   
    27   10   11 3   
    28   12   30 1   
    29   13   14 1   
    30   13   19 2   
    31   14   15 1   
    32   14   32 1   
    33   15   18 2   
    34   16   37 1   
    35   16   43 1   
    36   19   31 1   
    37   23   44 1   
    38   24   44 1   
    39   25   44 1   
    40   33   41 1   
    41   34   41 1   
    42   35   41 1   
    43   38   39 2   
    44   38   40 2   
@<TRIPOS>SUBSTRUCTURE
     1 AIC         1 TEMP              0 ****  ****    0 ROOT
