@<TRIPOS>MOLECULE
AIC
   42    44     1     0     0
SMALL
bcc


@<TRIPOS>ATOM
      1 C8          2.4420    0.5450   -3.7120 ca        1 AIC     -0.127000
      2 C5          0.0310    0.5020   -3.5240 ca        1 AIC     -0.087300
      3 C6          1.5030    0.0510    2.2820 c3        1 AIC      0.089100
      4 N1         -1.2000    0.3790   -0.7990 n         1 AIC     -0.524900
      5 N3         -0.9260   -0.3890    2.3780 n         1 AIC     -0.337800
      6 C4         -1.2580    1.1910   -3.1580 c3        1 AIC      0.144800
      7 C3         -1.9120    0.4240   -1.9740 c         1 AIC      0.621100
      8 C7          1.2460    1.1790   -3.3790 ca        1 AIC     -0.113500
      9 C9          2.4310   -0.7630   -4.1960 ca        1 AIC     -0.123000
     10 C10         1.2200   -1.4390   -4.3450 ca        1 AIC     -0.127000
     11 C11         0.0220   -0.8090   -4.0110 ca        1 AIC     -0.113500
     12 C12         0.2220    0.0070    3.1660 c3        1 AIC     -0.081300
     13 C13        -0.5940   -1.1540    1.1590 cy        1 AIC      0.131800
     14 C14        -1.6600   -0.3120    0.3530 cy        1 AIC     -0.020300
     15 C15        -1.7660    0.5310    1.6780 c         1 AIC      0.651500
     16 N2         -2.1400    1.3630   -4.2960 n3        1 AIC     -0.879800
     17 O3         -3.0540   -0.0680   -2.0940 o         1 AIC     -0.632100
     18 O4         -2.3900    1.5340    1.9970 o         1 AIC     -0.569500
     19 S1          1.1260   -0.8750    0.7380 ss        1 AIC     -0.431200
     20 HC8         3.3960    1.0770   -3.5860 ha        1 AIC      0.130000
     21 HN1        -0.2310    0.6300   -0.8030 hn        1 AIC      0.337500
     22 HC4        -1.0300    2.2360   -2.7800 h1        1 AIC      0.083700
     23 HC1         3.5950   -0.5150    2.3180 hc        1 AIC      0.046200
     24 HC2         2.8600   -0.1480    3.9460 hc        1 AIC      0.046200
     25 HC3         2.4610   -1.7040    3.1130 hc        1 AIC      0.046200
     26 HC7         1.2600    2.2120   -2.9990 ha        1 AIC      0.135500
     27 HC9         3.3760   -1.2640   -4.4500 ha        1 AIC      0.128000
     28 HC01        1.2090   -2.4730   -4.7170 ha        1 AIC      0.130000
     29 HC11       -0.9310   -1.3500   -4.1150 ha        1 AIC      0.135500
     30 HC21        0.0270    1.0400    3.5800 h1        1 AIC      0.081700
     31 HC31       -0.8120   -2.2390    1.2480 h2        1 AIC      0.121700
     32 HC41       -2.6010   -0.8810    0.1340 h1        1 AIC      0.111700
     33 H161        2.6990    1.4880    1.1750 hc        1 AIC      0.046200
     34 H162        0.9640    1.9670    1.4080 hc        1 AIC      0.046200
     35 H163        2.1240    2.0540    2.8000 hc        1 AIC      0.046200
     36 HN21       -2.2370    0.4980   -4.7950 hn        1 AIC      0.356800
     37 HN22       -3.0490    1.6410   -3.9710 hn        1 AIC      0.356800
     38 C1          2.6780   -0.6190    2.9460 c3        1 AIC     -0.089100
     39 C2          0.4530   -0.9260    4.4270 c         1 AIC      0.942600
     40 O1          0.3500   -2.1700    4.3030 o         1 AIC     -0.810800
     41 O2          0.7580   -0.3010    5.4770 o         1 AIC     -0.810800
     42 C16         1.8400    1.4690    1.8900 c3        1 AIC     -0.089100
@<TRIPOS>BOND
     1    1    8 ar  
     2    1    9 ar  
     3    1   20 1   
     4    2    6 1   
     5    2    8 ar  
     6    2   11 ar  
     7    3   12 1   
     8    3   19 1   
     9    3   38 1   
    10    3   42 1   
    11    4    7 1   
    12    4   14 1   
    13    4   21 1   
    14    5   12 1   
    15    5   13 1   
    16    5   15 1   
    17    6    7 1   
    18    6   16 1   
    19    6   22 1   
    20    7   17 2   
    21    8   26 1   
    22    9   10 ar  
    23    9   27 1   
    24   10   11 ar  
    25   10   28 1   
    26   11   29 1   
    27   12   30 1   
    28   12   39 1   
    29   13   14 1   
    30   13   19 1   
    31   13   31 1   
    32   14   15 1   
    33   14   32 1   
    34   15   18 2   
    35   16   36 1   
    36   16   37 1   
    37   23   38 1   
    38   24   38 1   
    39   25   38 1   
    40   33   42 1   
    41   34   42 1   
    42   35   42 1   
    43   39   40 1   
    44   39   41 1   
@<TRIPOS>SUBSTRUCTURE
     1 AIC         1 TEMP              0 ****  ****    0 ROOT
