@<TRIPOS>MOLECULE
AIF
   36    34     1     0     0
SMALL
bcc


@<TRIPOS>ATOM
      1 C4         -3.5880    2.2180   -2.7200 c1        1 AIF      0.591500
      2 C5         -2.1320    2.1450   -2.5500 c1        1 AIF     -0.109200
      3 C6         -1.5510    2.1550   -1.1880 cg        1 AIF      0.198000
      4 N1         -2.4040    2.1700   -0.0620 n2        1 AIF     -0.536400
      5 N3         -4.4310    2.3520   -1.5820 n         1 AIF     -0.519500
      6 N5         -1.2900    2.1640   -3.6750 n3        1 AIF     -0.732400
      7 O2         -4.5350    2.6450    0.7040 o         1 AIF     -0.664300
      8 O4         -4.0760    2.1530   -3.8350 o         1 AIF     -0.625500
      9 O1P         4.6510   -5.1890    2.0270 o         1 AIF     -0.923167
     10 P           4.0420   -3.9350    2.6420 p5        1 AIF      1.330900
     11 O3P         3.1570   -4.3270    3.8310 o         1 AIF     -0.923167
     12 O2P         5.1540   -3.0140    3.1180 o         1 AIF     -0.923167
     13 O5'         3.1490   -3.1720    1.5360 os        1 AIF     -0.573200
     14 C5'         2.4470   -1.9980    1.9220 c3        1 AIF      0.208400
     15 C4'         1.7100   -1.4310    0.7250 c3        1 AIF      0.088100
     16 O4'         1.0840   -2.4700    0.0270 oh        1 AIF     -0.680800
     17 C3'         0.6700   -0.4430    1.1960 c3        1 AIF      0.063100
     18 O3'         1.3110    0.6210    1.8980 oh        1 AIF     -0.680800
     19 C2'        -0.0700    0.1140    0.0070 c3        1 AIF      0.053800
     20 O2'        -0.0500   -0.8360   -1.0500 oh        1 AIF     -0.656800
     21 C1'         0.5950    1.3770   -0.4470 c2        1 AIF      0.510200
     22 N1'        -0.1160    2.3280   -1.0080 ne        1 AIF     -0.566700
     23 C2         -3.8540    2.3400   -0.2390 c2        1 AIF      0.724300
     24 HN1        -2.0480    2.1620    0.7750 hn        1 AIF      0.529400
     25 HN3        -5.3300    2.4580   -1.6900 hn        1 AIF      0.336500
     26 HN5        -0.9220    2.9440   -3.9530 hn        1 AIF      0.373800
     27 HN5A       -1.1440    1.3940   -4.1490 hn        1 AIF      0.373800
     28 H5'         3.0780   -1.3390    2.2540 h1        1 AIF     -0.004800
     29 H5'A        1.8070   -2.2190    2.6220 h1        1 AIF     -0.004800
     30 H4'         2.3450   -0.9790    0.1370 h1        1 AIF      0.006700
     31 HO4'        1.6700   -2.8300   -0.5730 ho        1 AIF      0.490000
     32 H3'         0.0220   -0.9050    1.8050 h1        1 AIF      0.169700
     33 HO3'        0.9260    0.7180    2.7310 ho        1 AIF      0.492000
     34 H2'        -0.9700    0.3000    0.2520 h1        1 AIF      0.063700
     35 HO2'       -0.8550   -1.1660   -1.1620 ho        1 AIF      0.476000
     36 H1'         1.5480    1.4920   -0.3260 h4        1 AIF      0.046800
@<TRIPOS>BOND
     1    1    5 2   
     2    1    8 2   
     3    2    3 3   
     4    2    6 1   
     5    3   22 1   
     6    4   23 2   
     7    4   24 1   
     8    5   23 1   
     9    5   25 1   
    10    6   26 1   
    11    6   27 1   
    12    7   23 1   
    13    9   10 1   
    14   10   11 1   
    15   10   12 1   
    16   10   13 1   
    17   13   14 1   
    18   14   15 1   
    19   14   28 1   
    20   14   29 1   
    21   15   16 1   
    22   15   17 1   
    23   15   30 1   
    24   16   31 1   
    25   17   18 1   
    26   17   19 1   
    27   17   32 1   
    28   18   33 1   
    29   19   20 1   
    30   19   21 1   
    31   19   34 1   
    32   20   35 1   
    33   21   22 2   
    34   21   36 1   
@<TRIPOS>SUBSTRUCTURE
     1 AIF         1 TEMP              0 ****  ****    0 ROOT
