@<TRIPOS>MOLECULE
AIF
   36    36     1     0     0
SMALL
bcc


@<TRIPOS>ATOM
      1 C4          6.0320   -0.1610    0.5450 c         1 AIF      0.720700
      2 C5          4.9130    0.7360    0.2110 cc        1 AIF     -0.138200
      3 C6          3.6000    0.2450    0.1920 cd        1 AIF      0.295200
      4 N1          3.3620   -1.0770    0.6270 n         1 AIF     -0.474100
      5 N3          5.7120   -1.4660    0.9460 n         1 AIF     -0.587500
      6 N5          5.2340    2.0970   -0.0010 nh        1 AIF     -0.752600
      7 O4          7.2440    0.1400    0.4740 o         1 AIF     -0.677500
      8 O1P        -5.7370   -1.5370    2.1650 o         1 AIF     -0.846000
      9 P          -5.2030   -1.0820    0.8660 p5        1 AIF      1.432800
     10 O3P        -5.6230   -1.5810   -0.4620 o         1 AIF     -0.846000
     11 O2P        -5.3640    0.5400    0.7320 oh        1 AIF     -0.786400
     12 C5'        -2.8290   -0.8020   -0.1890 c3        1 AIF      0.166400
     13 C4'        -1.8880    0.3650    0.1450 c3        1 AIF      0.063100
     14 O4'        -1.1810    0.1050    1.3570 oh        1 AIF     -0.660800
     15 C3'        -0.8480    0.5750   -0.9910 c3        1 AIF      0.402800
     16 O3'        -1.3470    0.9570   -2.1380 o         1 AIF     -0.834500
     17 C2'         0.1770    1.7220   -0.4520 c3        1 AIF     -0.023200
     18 O2'         0.4900    2.6380   -1.4660 oh        1 AIF     -0.634800
     19 C1'         1.3580    1.0240    0.1320 c2        1 AIF      0.538200
     20 N1'         2.5660    1.0260   -0.3480 nf        1 AIF     -0.663300
     21 C2          4.3930   -1.9430    0.9900 c         1 AIF      0.801500
     22 HN1         2.4370   -1.4530    0.6080 hn        1 AIF      0.363500
     23 HN3         6.4370   -2.0990    1.1930 hn        1 AIF      0.335500
     24 HN5         6.0970    2.1640   -0.5100 hn        1 AIF      0.368800
     25 HN5A        4.5070    2.5730   -0.5030 hn        1 AIF      0.368800
     26 H5'        -2.2100   -1.6910   -0.4980 h1        1 AIF      0.036200
     27 H5'A       -3.5140   -0.5170   -1.0310 h1        1 AIF      0.036200
     28 H4'        -2.4970    1.3000    0.2890 h1        1 AIF      0.028700
     29 HO4'       -1.8030   -0.3420    1.9460 ho        1 AIF      0.415000
     30 H3'        -0.2250   -0.3770   -1.0440 h1        1 AIF     -0.079300
     31 HO3'       -5.2580    0.8380   -0.1650 ho        1 AIF      0.425000
     32 H2'        -0.3210    2.2960    0.3790 h1        1 AIF      0.059700
     33 HO2'        0.0370    2.3280   -2.2760 ho        1 AIF      0.437000
     34 H1'         1.0580    0.4510    1.0450 h4        1 AIF     -0.004200
     35 O2          4.1620   -3.1220    1.3550 o         1 AIF     -0.683500
     36 O5'        -3.5600   -1.1560    0.9520 os        1 AIF     -0.602200
@<TRIPOS>BOND
     1    1    2 1   
     2    1    5 1   
     3    1    7 2   
     4    2    3 2   
     5    2    6 1   
     6    3    4 1   
     7    3   20 1   
     8    4   21 1   
     9    4   22 1   
    10    5   21 1   
    11    5   23 1   
    12    6   24 1   
    13    6   25 1   
    14    8    9 1   
    15    9   10 1   
    16    9   11 1   
    17    9   36 1   
    18   11   31 1   
    19   12   13 1   
    20   12   26 1   
    21   12   27 1   
    22   12   36 1   
    23   13   14 1   
    24   13   15 1   
    25   13   28 1   
    26   14   29 1   
    27   15   16 1   
    28   15   17 1   
    29   15   30 1   
    30   17   18 1   
    31   17   19 1   
    32   17   32 1   
    33   18   33 1   
    34   19   20 2   
    35   19   34 1   
    36   21   35 2   
@<TRIPOS>SUBSTRUCTURE
     1 AIF         1 TEMP              0 ****  ****    0 ROOT
