@<TRIPOS>MOLECULE
AIF
   37    36     1     0     0
SMALL
bcc


@<TRIPOS>ATOM
      1 C4          0.1110    0.2490   -0.1330 c2        1 AIF      0.399000
      2 C5          1.4860    0.0370    0.2160 c2        1 AIF     -0.543000
      3 C6          1.9320   -0.0900    1.5980 c2        1 AIF      0.211000
      4 N1          0.9100   -0.1530    2.5700 ns        1 AIF     -0.304000
      5 N3         -0.8050    0.3190    0.9240 ns        1 AIF     -0.358000
      6 N5          2.4580   -0.0050   -0.8390 nz        1 AIF      0.084000
      7 O4         -0.2970    0.3680   -1.3190 o         1 AIF     -0.456000
      8 O1P        11.1380    3.8410    3.1160 o         1 AIF     -0.748500
      9 P          10.2010    4.1360    4.1960 p5        1 AIF      1.804000
     10 O3P         9.2910    2.7030    4.6460 os        1 AIF     -0.674000
     11 O2P        10.4020    5.0180    5.3410 o         1 AIF     -0.748500
     12 C5'         8.1490    3.0860    4.0590 c1        1 AIF      0.083000
     13 C4'         7.4920   -0.0620    3.8930 c3        1 AIF     -0.039000
     14 O4'         7.8400    0.0450    5.2550 oh        1 AIF     -0.340000
     15 C3'         6.0190    0.3050    3.6780 c3        1 AIF     -0.009000
     16 O3'         5.7100    1.6150    4.0920 oh        1 AIF     -0.380000
     17 C2'         5.6570    0.1490    2.1820 c3        1 AIF      0.026000
     18 O2'         5.7720    1.3610    1.4570 oh        1 AIF     -0.361000
     19 C1'         4.3100   -0.4790    2.0380 c1        1 AIF     -0.153000
     20 N1'         3.1950    0.0950    1.9240 n2        1 AIF     -0.214000
     21 C2         -0.4260    0.1300    2.2620 c2        1 AIF      0.407000
     22 HN1         1.1460   -0.2150    3.5370 hn        1 AIF      0.267000
     23 HN3        -1.7700    0.4630    0.7310 hn        1 AIF      0.261000
     24 HN5         3.1070    0.7840   -0.7550 hn        1 AIF      0.231333
     25 HN5A        1.9600    0.0470   -1.7360 hn        1 AIF      0.231333
     26 H5'         8.1440    0.5980    3.2600 h1        1 AIF      0.091000
     27 H5'A        6.0610    4.0380    3.0300 ha        1 AIF      0.002000
     28 H4'         5.4090    4.0450    2.8410 ha        1 AIF      0.002000
     29 HO4'        8.0360    0.9800    5.4240 ho        1 AIF      0.237000
     30 H3'         7.6560   -1.1400    3.6260 h1        1 AIF      0.091000
     31 HO3'        6.5340    2.1640    4.0620 ho        1 AIF      0.272000
     32 H2'         5.3670   -0.3720    4.2990 h1        1 AIF      0.110000
     33 HO2'        5.5150    2.0930    2.0400 ho        1 AIF      0.232000
     34 H1'         6.3840   -0.5510    1.6750 h1        1 AIF      0.122000
     35 O2         -1.2870    0.1750    3.1720 o         1 AIF     -0.393000
     36 H53         2.9930   -0.8750   -0.7820 hn        1 AIF      0.231333
     37 O5'         8.5560    4.2610    3.5800 os        1 AIF     -0.674000
@<TRIPOS>BOND
     1    1    2 1   
     2    1    5 1   
     3    1    7 1   
     4    2    3 1   
     5    2    6 1   
     6    3    4 1   
     7    3   20 1   
     8    4   21 1   
     9    4   22 1   
    10    5   21 1   
    11    5   23 1   
    12    6   24 1   
    13    6   25 1   
    14    6   36 1   
    15    8    9 1   
    16    9   10 1   
    17    9   11 1   
    18    9   37 1   
    19   10   12 1   
    20   12   37 1   
    21   13   14 1   
    22   13   15 1   
    23   13   26 1   
    24   13   30 1   
    25   14   29 1   
    26   15   16 1   
    27   15   17 1   
    28   15   32 1   
    29   16   31 1   
    30   17   18 1   
    31   17   19 1   
    32   17   34 1   
    33   18   33 1   
    34   19   20 1   
    35   21   35 1   
    36   27   28 1   
@<TRIPOS>SUBSTRUCTURE
     1 AIF         1 TEMP              0 ****  ****    0 ROOT
