@<TRIPOS>MOLECULE
AIF
   37    37     1     0     0
SMALL
bcc


@<TRIPOS>ATOM
      1 C4          0.9000    1.8040    0.7910 c         1 AIF      0.751700
      2 C5          2.2470    1.3550    1.0080 cc        1 AIF     -0.444200
      3 C6          2.5430    0.0640    1.5890 cd        1 AIF      0.744300
      4 N1          1.4420   -0.7840    1.8270 n         1 AIF     -0.473100
      5 N3         -0.1330    0.9270    1.1730 n         1 AIF     -0.581500
      6 N5          3.3260    2.2420    0.6700 n4        1 AIF     -0.613400
      7 O4          0.5860    2.9090    0.2820 o         1 AIF     -0.713500
      8 O1P         7.9820    4.2950    0.2400 o         1 AIF     -0.832500
      9 P           7.0200    3.7320    1.1820 p5        1 AIF      1.466800
     10 O3P         6.5900    4.7870    2.4420 os        1 AIF     -0.609200
     11 O2P         5.8370    2.9320    0.7980 o         1 AIF     -0.832500
     12 C5'         7.2060    4.0210    3.4580 cy        1 AIF      0.381200
     13 C4'         7.2400   -1.1180    4.6840 c3        1 AIF      0.099400
     14 O4'         7.2800   -0.7830    6.0580 oh        1 AIF     -0.617800
     15 C3'         6.0920   -0.4000    3.9630 c3        1 AIF      0.061100
     16 O3'         6.1740    0.9850    4.2380 oh        1 AIF     -0.620800
     17 C2'         6.1390   -0.7130    2.4540 c3        1 AIF      0.121200
     18 O2'         7.0740    0.1420    1.8200 oh        1 AIF     -0.591800
     19 C1'         4.8430   -0.6910    1.7110 c1        1 AIF      0.185700
     20 N1'         3.7390   -0.2130    2.1040 n1        1 AIF     -1.056500
     21 C2          0.1170   -0.3530    1.6780 c         1 AIF      0.816500
     22 HN1         1.5810   -1.6990    2.1910 hn        1 AIF      0.346500
     23 HN3        -1.0800    1.1940    1.0340 hn        1 AIF      0.343500
     24 HN5         3.7680    2.6320    1.5140 hn        1 AIF      0.456133
     25 HN5A        2.9720    3.0110    0.0980 hn        1 AIF      0.456133
     26 H5'         6.4700    3.6230    4.2020 h2        1 AIF      0.029200
     27 H5'A        8.2180   -0.8450    4.2030 h1        1 AIF      0.045200
     28 H4'         8.0420    4.5710    3.9570 h2        1 AIF      0.029200
     29 HO4'        7.1160    0.1690    6.1190 ho        1 AIF      0.415000
     30 H3'         7.0990   -2.2300    4.6540 h1        1 AIF      0.045200
     31 HO3'        6.9350    1.3420    3.7500 ho        1 AIF      0.440000
     32 H2'         5.1090   -0.7170    4.4080 h1        1 AIF      0.076700
     33 HO2'        6.6430    1.0000    1.6490 ho        1 AIF      0.437000
     34 H1'         6.5640   -1.7520    2.3140 h1        1 AIF      0.077700
     35 O2         -0.8280   -1.1230    1.9760 o         1 AIF     -0.685500
     36 H53         4.0780    1.7550    0.1590 hn        1 AIF      0.456133
     37 O5'         7.6720    3.0130    2.5800 os        1 AIF     -0.609200
@<TRIPOS>BOND
     1    1    2 1   
     2    1    5 1   
     3    1    7 2   
     4    2    3 2   
     5    2    6 1   
     6    3    4 1   
     7    3   20 1   
     8    4   21 1   
     9    4   22 1   
    10    5   21 1   
    11    5   23 1   
    12    6   24 1   
    13    6   25 1   
    14    6   36 1   
    15    8    9 1   
    16    9   10 1   
    17    9   11 1   
    18    9   37 1   
    19   10   12 1   
    20   12   26 1   
    21   12   28 1   
    22   12   37 1   
    23   13   14 1   
    24   13   15 1   
    25   13   27 1   
    26   13   30 1   
    27   14   29 1   
    28   15   16 1   
    29   15   17 1   
    30   15   32 1   
    31   16   31 1   
    32   17   18 1   
    33   17   19 1   
    34   17   34 1   
    35   18   33 1   
    36   19   20 3   
    37   21   35 2   
@<TRIPOS>SUBSTRUCTURE
     1 AIF         1 TEMP              0 ****  ****    0 ROOT
