@<TRIPOS>MOLECULE
AIG
   43    43     1     0     0
SMALL
bcc


@<TRIPOS>ATOM
      1 C1         -0.4480   -0.5600   -0.9170 c3        1 AIG      0.309900
      2 O1         -0.7770    0.0220    0.3240 os        1 AIG     -0.422600
      3 C2         -1.4290    0.0170   -1.9560 c3        1 AIG      0.082100
      4 O2         -2.7200   -0.5290   -1.7540 oh        1 AIG     -0.601800
      5 C3         -0.9650   -0.3970   -3.3760 c3        1 AIG      0.185500
      6 C4          0.4770    0.1460   -3.5530 c3        1 AIG      0.115100
      7 O4          0.3900    1.5620   -3.5160 oh        1 AIG     -0.590800
      8 C5          1.3690   -0.4260   -2.4430 c3        1 AIG      0.071100
      9 O5          0.8860   -0.1130   -1.1360 os        1 AIG     -0.445600
     10 C6          2.7910    0.1450   -2.4930 c3        1 AIG      0.133400
     11 O6          3.6470   -0.5550   -1.6170 oh        1 AIG     -0.592800
     12 N3         -1.8390    0.0050   -4.4530 n3        1 AIG     -0.894800
     13 C1'        -0.0530   -0.5330    1.4290 c3        1 AIG      0.136400
     14 C2'        -0.5660    0.1740    2.6710 c3        1 AIG     -0.085400
     15 C3'         0.1450   -0.3430    3.9010 c3        1 AIG     -0.078400
     16 C4'        -0.3550    0.3510    5.1500 c3        1 AIG     -0.078400
     17 C5'         0.3540   -0.1630    6.3860 c3        1 AIG     -0.080400
     18 C6'        -0.1400    0.5250    7.6320 c3        1 AIG     -0.093100
     19 H1         -0.4820   -1.6850   -0.8820 h2        1 AIG      0.048700
     20 H2         -1.4530    1.1380   -1.8630 h1        1 AIG      0.081700
     21 HO2        -2.9950   -0.2550   -0.8690 ho        1 AIG      0.420000
     22 H3         -0.9100   -1.5260   -3.4050 h1        1 AIG      0.070700
     23 H4          0.8880   -0.1800   -4.5500 h1        1 AIG      0.061700
     24 HO4         1.2850    1.9030   -3.6290 ho        1 AIG      0.407000
     25 H5          1.4090   -1.5470   -2.5540 h1        1 AIG      0.060700
     26 H61         3.2260   -0.0060   -3.5160 h1        1 AIG      0.055700
     27 H62         2.7760    1.2360   -2.2300 h1        1 AIG      0.055700
     28 HO6         3.2750   -0.4660   -0.7300 ho        1 AIG      0.415000
     29 HN31       -2.7790   -0.2770   -4.2440 hn        1 AIG      0.364300
     30 HN32       -1.8100    0.9990   -4.5750 hn        1 AIG      0.364300
     31 H1'1        1.0440   -0.3530    1.2820 h1        1 AIG      0.035700
     32 H1'2       -0.2450   -1.6370    1.4810 h1        1 AIG      0.035700
     33 H2'1       -1.6710    0.0110    2.7640 hc        1 AIG      0.055200
     34 H2'2       -0.4020    1.2780    2.5620 hc        1 AIG      0.055200
     35 H3'1        1.2500   -0.1790    3.7960 hc        1 AIG      0.040700
     36 H3'2       -0.0180   -1.4490    3.9950 hc        1 AIG      0.040700
     37 H4'1       -1.4600    0.1870    5.2560 hc        1 AIG      0.042200
     38 H4'2       -0.1920    1.4570    5.0560 hc        1 AIG      0.042200
     39 H5'1        1.4590    0.0010    6.2780 hc        1 AIG      0.038700
     40 H5'2        0.1920   -1.2690    6.4770 hc        1 AIG      0.038700
     41 H6'1        0.3950    0.1330    8.5300 hc        1 AIG      0.033367
     42 H6'2        0.0360    1.6270    7.5700 hc        1 AIG      0.033367
     43 H6'3       -1.2350    0.3530    7.7700 hc        1 AIG      0.033367
@<TRIPOS>BOND
     1    1    2 1   
     2    1    3 1   
     3    1    9 1   
     4    1   19 1   
     5    2   13 1   
     6    3    4 1   
     7    3    5 1   
     8    3   20 1   
     9    4   21 1   
    10    5    6 1   
    11    5   12 1   
    12    5   22 1   
    13    6    7 1   
    14    6    8 1   
    15    6   23 1   
    16    7   24 1   
    17    8    9 1   
    18    8   10 1   
    19    8   25 1   
    20   10   11 1   
    21   10   26 1   
    22   10   27 1   
    23   11   28 1   
    24   12   29 1   
    25   12   30 1   
    26   13   14 1   
    27   13   31 1   
    28   13   32 1   
    29   14   15 1   
    30   14   33 1   
    31   14   34 1   
    32   15   16 1   
    33   15   35 1   
    34   15   36 1   
    35   16   17 1   
    36   16   37 1   
    37   16   38 1   
    38   17   18 1   
    39   17   39 1   
    40   17   40 1   
    41   18   41 1   
    42   18   42 1   
    43   18   43 1   
@<TRIPOS>SUBSTRUCTURE
     1 AIG         1 TEMP              0 ****  ****    0 ROOT
