@<TRIPOS>MOLECULE
AIG
   43    43     1     0     0
SMALL
bcc


@<TRIPOS>ATOM
      1 C1          0.9790    0.0930    1.0860 c3        1 AIG      0.310900
      2 O1          0.5440    0.2330   -0.2090 os        1 AIG     -0.424600
      3 C2          2.4910    0.0910    1.0920 c3        1 AIG      0.085100
      4 O2          2.9640   -1.1110    0.4210 oh        1 AIG     -0.604800
      5 C3          3.0460    0.1250    2.4610 c3        1 AIG      0.139500
      6 C4          2.4640    1.2380    3.2830 c3        1 AIG      0.119100
      7 O4          2.9430    2.5100    2.7630 oh        1 AIG     -0.589800
      8 C5          0.9510    1.2390    3.2670 c3        1 AIG      0.112100
      9 O5          0.4060    1.2030    1.9140 os        1 AIG     -0.440600
     10 C6          0.4550    2.4980    3.9710 c3        1 AIG      0.141400
     11 O6         -0.8660    2.2640    4.5030 oh        1 AIG     -0.599800
     12 N3          4.5180    0.3110    2.3770 n3        1 AIG     -0.895800
     13 C1'        -0.6040   -0.5220   -0.5130 c3        1 AIG      0.137400
     14 C2'        -0.9610   -0.3380   -2.0110 c3        1 AIG     -0.085400
     15 C3'        -2.2910   -1.1360   -2.3420 c3        1 AIG     -0.078400
     16 C4'        -2.5800   -1.0370   -3.8240 c3        1 AIG     -0.078400
     17 C5'        -3.8610   -1.8090   -4.1540 c3        1 AIG     -0.080400
     18 C6'        -4.0400   -1.8620   -5.6430 c3        1 AIG     -0.093100
     19 H1          0.6600   -0.7570    1.4350 h2        1 AIG      0.047700
     20 H2          2.8040    0.8620    0.6090 h1        1 AIG      0.077700
     21 HO2         3.5690   -0.8870   -0.2050 ho        1 AIG      0.423000
     22 H3          2.8560   -0.7390    2.9090 h1        1 AIG      0.073700
     23 H4          2.7660    1.1410    4.1970 h1        1 AIG      0.058700
     24 HO4         3.4530    2.9020    3.3720 ho        1 AIG      0.409000
     25 H5          0.6330    0.4650    3.7520 h1        1 AIG      0.052700
     26 H61         0.4230    3.2430    3.3280 h1        1 AIG      0.064200
     27 H62         1.0650    2.7250    4.7030 h1        1 AIG      0.064200
     28 HO6        -1.0360    2.8490    5.1140 ho        1 AIG      0.413000
     29 HN31        4.8490    0.4370    3.1950 hn        1 AIG      0.358300
     30 HN32        4.9070   -0.4480    1.9970 hn        1 AIG      0.358300
     31 H1'1       -0.4290   -1.4680   -0.3340 h1        1 AIG      0.037200
     32 H1'2       -1.3560   -0.2150    0.0430 h1        1 AIG      0.037200
     33 H2'1       -1.0970    0.6230   -2.2020 hc        1 AIG      0.054700
     34 H2'2       -0.2230   -0.6820   -2.5700 hc        1 AIG      0.054700
     35 H3'1       -2.1790   -2.0800   -2.0920 hc        1 AIG      0.041200
     36 H3'2       -3.0360   -0.7510   -1.8370 hc        1 AIG      0.041200
     37 H4'1       -2.6960   -0.0920   -4.0710 hc        1 AIG      0.041700
     38 H4'2       -1.8340   -1.4160   -4.3260 hc        1 AIG      0.041700
     39 H5'1       -4.6210   -1.3610   -3.7530 hc        1 AIG      0.039200
     40 H5'2       -3.7950   -2.7210   -3.8000 hc        1 AIG      0.039200
     41 H6'1       -3.9700   -0.9550   -6.0130 hc        1 AIG      0.033367
     42 H6'2       -4.9290   -2.2360   -5.8550 hc        1 AIG      0.033367
     43 H6'3       -3.3430   -2.4300   -6.0370 hc        1 AIG      0.033367
@<TRIPOS>BOND
     1    1    2 1   
     2    1    3 1   
     3    1    9 1   
     4    1   19 1   
     5    2   13 1   
     6    3    4 1   
     7    3    5 1   
     8    3   20 1   
     9    4   21 1   
    10    5    6 1   
    11    5   12 1   
    12    5   22 1   
    13    6    7 1   
    14    6    8 1   
    15    6   23 1   
    16    7   24 1   
    17    8    9 1   
    18    8   10 1   
    19    8   25 1   
    20   10   11 1   
    21   10   26 1   
    22   10   27 1   
    23   11   28 1   
    24   12   29 1   
    25   12   30 1   
    26   13   14 1   
    27   13   31 1   
    28   13   32 1   
    29   14   15 1   
    30   14   33 1   
    31   14   34 1   
    32   15   16 1   
    33   15   35 1   
    34   15   36 1   
    35   16   17 1   
    36   16   37 1   
    37   16   38 1   
    38   17   18 1   
    39   17   39 1   
    40   17   40 1   
    41   18   41 1   
    42   18   42 1   
    43   18   43 1   
@<TRIPOS>SUBSTRUCTURE
     1 AIG         1 TEMP              0 ****  ****    0 ROOT
