@<TRIPOS>MOLECULE
AIH
   65    69     1     0     0
SMALL
bcc


@<TRIPOS>ATOM
      1 C1         -2.7860   -0.0120    1.4750 c3        1 AIH      0.025700
      2 C2         -2.0180   -0.9690    0.5570 c3        1 AIH      0.201400
      3 O3         -2.5860   -1.0300   -0.7640 os        1 AIH     -0.322900
      4 C4         -3.8730   -1.5500   -0.8040 ca        1 AIH      0.058100
      5 C5         -4.2140   -2.2290   -1.9860 ca        1 AIH     -0.096000
      6 C6         -5.4990   -2.7240   -2.1490 ca        1 AIH     -0.143000
      7 C7         -6.4380   -2.5450   -1.1150 ca        1 AIH      0.120100
      8 O8         -7.6930   -3.0670   -1.3360 oh        1 AIH     -0.496100
      9 C9         -6.1000   -1.8730    0.0620 ca        1 AIH     -0.186000
     10 C10        -4.8050   -1.3640    0.2270 ca        1 AIH     -0.013100
     11 S11        -4.4730   -0.5750    1.6850 ss        1 AIH     -0.170000
     12 C12        -2.7470    1.4260    1.1110 ca        1 AIH     -0.109300
     13 C13        -3.0540    1.8750   -0.1790 ca        1 AIH     -0.075500
     14 C14        -3.0360    3.2330   -0.4840 ca        1 AIH     -0.186500
     15 C15        -2.7040    4.1580    0.5150 ca        1 AIH      0.130100
     16 O16        -2.6640    5.5150    0.2900 oh        1 AIH     -0.497100
     17 C17        -2.3890    3.7270    1.8140 ca        1 AIH     -0.186500
     18 C18        -2.4130    2.3670    2.0980 ca        1 AIH     -0.075500
     19 C19        -0.5770   -0.5900    0.4090 ca        1 AIH     -0.125300
     20 C20         0.3240   -0.9770    1.4130 ca        1 AIH     -0.072500
     21 C21         1.6690   -0.6520    1.3170 ca        1 AIH     -0.184000
     22 C22         2.1270    0.0680    0.1960 ca        1 AIH      0.138100
     23 C23         1.2380    0.4540   -0.8140 ca        1 AIH     -0.184000
     24 C24        -0.1120    0.1220   -0.6980 ca        1 AIH     -0.072500
     25 O25         3.4800    0.3370    0.1970 os        1 AIH     -0.336900
     26 C26         3.9720    1.0940   -0.9170 c3        1 AIH      0.125400
     27 C27         5.4690    1.3040   -0.6540 c3        1 AIH      0.162800
     28 N28         6.3140    0.2810   -1.2460 n3        1 AIH     -0.720600
     29 C29         7.7410    0.6020   -1.1730 c3        1 AIH      0.154300
     30 C30         8.4660   -0.4390   -0.2930 c3        1 AIH     -0.083200
     31 C31         9.7480   -0.9110   -0.9290 c3        1 AIH     -0.086100
     32 C32         7.4530   -1.5760   -0.0930 c3        1 AIH     -0.083200
     33 C33         7.3050   -1.9620    1.3580 c3        1 AIH     -0.086100
     34 C34         6.1250   -1.0600   -0.6880 c3        1 AIH      0.154300
     35 H1         -2.3410   -0.1370    2.5050 h1        1 AIH      0.096700
     36 H2         -2.0830   -2.0040    1.0110 h1        1 AIH      0.066700
     37 H5         -3.4550   -2.3540   -2.7720 ha        1 AIH      0.153000
     38 H6         -5.7940   -3.2550   -3.0640 ha        1 AIH      0.155000
     39 HO8        -8.2390   -2.8680   -0.5620 ho        1 AIH      0.420000
     40 H9         -6.8440   -1.7370    0.8610 ha        1 AIH      0.145000
     41 H13        -3.3110    1.1450   -0.9650 ha        1 AIH      0.142500
     42 H14        -3.2810    3.5750   -1.4990 ha        1 AIH      0.143000
     43 H16        -2.9130    5.6710   -0.6320 ho        1 AIH      0.419000
     44 H17        -2.1280    4.4660    2.5840 ha        1 AIH      0.143000
     45 H18        -2.1650    2.0300    3.1170 ha        1 AIH      0.142500
     46 H20        -0.0370   -1.5450    2.2840 ha        1 AIH      0.141000
     47 H21         2.3840   -0.9480    2.0990 ha        1 AIH      0.145000
     48 H23         1.5830    1.0120   -1.6940 ha        1 AIH      0.145000
     49 H24        -0.8210    0.4220   -1.4860 ha        1 AIH      0.141000
     50 H261        3.4540    2.0890   -0.9430 h1        1 AIH      0.051200
     51 H262        3.7770    0.5350   -1.8680 h1        1 AIH      0.051200
     52 H271        5.6180    1.4000    0.4620 h1        1 AIH      0.046700
     53 H272        5.7500    2.2870   -1.1300 h1        1 AIH      0.046700
     54 H291        7.9270    1.6370   -0.7790 h1        1 AIH      0.051950
     55 H292        8.1340    0.5580   -2.2270 h1        1 AIH      0.051950
     56 H30         8.7060    0.0290    0.7010 hc        1 AIH      0.054200
     57 H311       10.4450   -0.0510   -1.0770 hc        1 AIH      0.035700
     58 H312       10.2470   -1.6660   -0.2750 hc        1 AIH      0.035700
     59 H313        9.5510   -1.3800   -1.9240 hc        1 AIH      0.035700
     60 H32         7.7830   -2.4790   -0.6740 hc        1 AIH      0.054200
     61 H331        6.5660   -2.7920    1.4640 hc        1 AIH      0.035700
     62 H332        8.2860   -2.3040    1.7680 hc        1 AIH      0.035700
     63 H333        6.9500   -1.0950    1.9670 hc        1 AIH      0.035700
     64 H341        5.3080   -1.0800    0.0850 h1        1 AIH      0.051950
     65 H342        5.8100   -1.7230   -1.5400 h1        1 AIH      0.051950
@<TRIPOS>BOND
     1    1    2 1   
     2    1   11 1   
     3    1   12 1   
     4    1   35 1   
     5    2    3 1   
     6    2   19 1   
     7    2   36 1   
     8    3    4 1   
     9    4    5 ar  
    10    4   10 ar  
    11    5    6 ar  
    12    5   37 1   
    13    6    7 ar  
    14    6   38 1   
    15    7    8 1   
    16    7    9 ar  
    17    8   39 1   
    18    9   10 ar  
    19    9   40 1   
    20   10   11 1   
    21   12   13 ar  
    22   12   18 ar  
    23   13   14 ar  
    24   13   41 1   
    25   14   15 ar  
    26   14   42 1   
    27   15   16 1   
    28   15   17 ar  
    29   16   43 1   
    30   17   18 ar  
    31   17   44 1   
    32   18   45 1   
    33   19   20 ar  
    34   19   24 ar  
    35   20   21 ar  
    36   20   46 1   
    37   21   22 ar  
    38   21   47 1   
    39   22   23 ar  
    40   22   25 1   
    41   23   24 ar  
    42   23   48 1   
    43   24   49 1   
    44   25   26 1   
    45   26   27 1   
    46   26   50 1   
    47   26   51 1   
    48   27   28 1   
    49   27   52 1   
    50   27   53 1   
    51   28   29 1   
    52   28   34 1   
    53   29   30 1   
    54   29   54 1   
    55   29   55 1   
    56   30   31 1   
    57   30   32 1   
    58   30   56 1   
    59   31   57 1   
    60   31   58 1   
    61   31   59 1   
    62   32   33 1   
    63   32   34 1   
    64   32   60 1   
    65   33   61 1   
    66   33   62 1   
    67   33   63 1   
    68   34   64 1   
    69   34   65 1   
@<TRIPOS>SUBSTRUCTURE
     1 AIH         1 TEMP              0 ****  ****    0 ROOT
