@<TRIPOS>MOLECULE
AIH
   65    69     1     0     0
SMALL
bcc


@<TRIPOS>ATOM
      1 C1          0.0110    0.1480    0.2500 c3        1 AIH      0.025700
      2 C2          1.5410    0.0770    0.2440 c3        1 AIH      0.201400
      3 O3          2.0980    0.2100    1.5650 os        1 AIH     -0.322900
      4 C4          1.8610    1.4430    2.1580 ca        1 AIH      0.058100
      5 C5          2.8470    1.8810    3.0580 ca        1 AIH     -0.096000
      6 C6          2.6680    3.0670    3.7520 ca        1 AIH     -0.143000
      7 C7          1.4990    3.8200    3.5310 ca        1 AIH      0.120100
      8 O8          1.3860    4.9920    4.2450 oh        1 AIH     -0.496100
      9 C9          0.5190    3.3900    2.6330 ca        1 AIH     -0.186000
     10 C10         0.6930    2.1860    1.9360 ca        1 AIH     -0.013100
     11 S11        -0.5330    1.7420    0.8590 ss        1 AIH     -0.170000
     12 C12        -0.7000   -0.9560    0.9420 ca        1 AIH     -0.109300
     13 C13        -0.3740   -1.3470    2.2470 ca        1 AIH     -0.075500
     14 C14        -1.0760   -2.3690    2.8800 ca        1 AIH     -0.186500
     15 C15        -2.1190   -3.0110    2.2000 ca        1 AIH      0.130100
     16 O16        -2.8580   -4.0280    2.7590 oh        1 AIH     -0.497100
     17 C17        -2.4580   -2.6360    0.8890 ca        1 AIH     -0.186500
     18 C18        -1.7450   -1.6140    0.2740 ca        1 AIH     -0.075500
     19 C19         2.0540   -1.2070   -0.3310 ca        1 AIH     -0.125300
     20 C20         2.1360   -1.3300   -1.7260 ca        1 AIH     -0.072500
     21 C21         2.6090   -2.4990   -2.3060 ca        1 AIH     -0.184000
     22 C22         3.0130   -3.5650   -1.4770 ca        1 AIH      0.138100
     23 C23         2.9410   -3.4500   -0.0840 ca        1 AIH     -0.184000
     24 C24         2.4590   -2.2690    0.4790 ca        1 AIH     -0.072500
     25 O25         3.4690   -4.6780   -2.1520 os        1 AIH     -0.336900
     26 C26         3.8600   -5.7910   -1.3370 c3        1 AIH      0.125400
     27 C27         4.2660   -6.9040   -2.3120 c3        1 AIH      0.162800
     28 N28         5.6840   -6.9100   -2.6310 n3        1 AIH     -0.720600
     29 C29         6.0970   -8.0940   -3.3880 c3        1 AIH      0.154300
     30 C30         6.6000   -7.6710   -4.7850 c3        1 AIH     -0.083200
     31 C31         7.8860   -8.3680   -5.1490 c3        1 AIH     -0.086100
     32 C32         6.7570   -6.1440   -4.7150 c3        1 AIH     -0.083200
     33 C33         6.0850   -5.4460   -5.8700 c3        1 AIH     -0.086100
     34 C34         6.1480   -5.7260   -3.3580 c3        1 AIH      0.154300
     35 H1         -0.3080    0.1620   -0.8320 h1        1 AIH      0.096700
     36 H2          1.9220    0.9400   -0.3810 h1        1 AIH      0.066700
     37 H5          3.7500    1.2690    3.2060 ha        1 AIH      0.153000
     38 H6          3.4200    3.4310    4.4660 ha        1 AIH      0.155000
     39 HO8         0.5410    5.4040    4.0100 ho        1 AIH      0.420000
     40 H9         -0.3910    3.9860    2.4710 ha        1 AIH      0.145000
     41 H13         0.4500   -0.8440    2.7780 ha        1 AIH      0.142500
     42 H14        -0.8150   -2.6660    3.9050 ha        1 AIH      0.143000
     43 H16        -2.5310   -4.1730    3.6590 ho        1 AIH      0.419000
     44 H17        -3.2770   -3.1520    0.3700 ha        1 AIH      0.143000
     45 H18        -2.0100   -1.3210   -0.7530 ha        1 AIH      0.142500
     46 H20         1.8250   -0.4930   -2.3690 ha        1 AIH      0.141000
     47 H21         2.6750   -2.6080   -3.3970 ha        1 AIH      0.145000
     48 H23         3.2570   -4.2720    0.5720 ha        1 AIH      0.145000
     49 H24         2.3970   -2.1690    1.5750 ha        1 AIH      0.141000
     50 H261        2.9800   -6.1300   -0.7300 h1        1 AIH      0.051200
     51 H262        4.6980   -5.4860   -0.6590 h1        1 AIH      0.051200
     52 H271        4.0330   -7.8840   -1.8060 h1        1 AIH      0.046700
     53 H272        3.6140   -6.8200   -3.2310 h1        1 AIH      0.046700
     54 H291        6.9320   -8.5730   -2.8050 h1        1 AIH      0.051950
     55 H292        5.2710   -8.8470   -3.4880 h1        1 AIH      0.051950
     56 H30         5.8180   -7.9330   -5.5480 hc        1 AIH      0.054200
     57 H311        8.2300   -8.0390   -6.1590 hc        1 AIH      0.035700
     58 H312        7.7340   -9.4750   -5.1670 hc        1 AIH      0.035700
     59 H313        8.6900   -8.1350   -4.4090 hc        1 AIH      0.035700
     60 H32         7.8480   -5.8780   -4.7180 hc        1 AIH      0.054200
     61 H331        6.5260   -5.7880   -6.8370 hc        1 AIH      0.035700
     62 H332        6.2230   -4.3410   -5.7870 hc        1 AIH      0.035700
     63 H333        4.9890   -5.6630   -5.8850 hc        1 AIH      0.035700
     64 H341        5.3230   -4.9760   -3.5070 h1        1 AIH      0.051950
     65 H342        6.9400   -5.2450   -2.7210 h1        1 AIH      0.051950
@<TRIPOS>BOND
     1    1    2 1   
     2    1   11 1   
     3    1   12 1   
     4    1   35 1   
     5    2    3 1   
     6    2   19 1   
     7    2   36 1   
     8    3    4 1   
     9    4    5 ar  
    10    4   10 ar  
    11    5    6 ar  
    12    5   37 1   
    13    6    7 ar  
    14    6   38 1   
    15    7    8 1   
    16    7    9 ar  
    17    8   39 1   
    18    9   10 ar  
    19    9   40 1   
    20   10   11 1   
    21   12   13 ar  
    22   12   18 ar  
    23   13   14 ar  
    24   13   41 1   
    25   14   15 ar  
    26   14   42 1   
    27   15   16 1   
    28   15   17 ar  
    29   16   43 1   
    30   17   18 ar  
    31   17   44 1   
    32   18   45 1   
    33   19   20 ar  
    34   19   24 ar  
    35   20   21 ar  
    36   20   46 1   
    37   21   22 ar  
    38   21   47 1   
    39   22   23 ar  
    40   22   25 1   
    41   23   24 ar  
    42   23   48 1   
    43   24   49 1   
    44   25   26 1   
    45   26   27 1   
    46   26   50 1   
    47   26   51 1   
    48   27   28 1   
    49   27   52 1   
    50   27   53 1   
    51   28   29 1   
    52   28   34 1   
    53   29   30 1   
    54   29   54 1   
    55   29   55 1   
    56   30   31 1   
    57   30   32 1   
    58   30   56 1   
    59   31   57 1   
    60   31   58 1   
    61   31   59 1   
    62   32   33 1   
    63   32   34 1   
    64   32   60 1   
    65   33   61 1   
    66   33   62 1   
    67   33   63 1   
    68   34   64 1   
    69   34   65 1   
@<TRIPOS>SUBSTRUCTURE
     1 AIH         1 TEMP              0 ****  ****    0 ROOT
