@<TRIPOS>MOLECULE
AIH
   65    69     1     0     0
SMALL
bcc


@<TRIPOS>ATOM
      1 C1         -0.0040    0.1800    0.2150 c3        1 AIH      0.025700
      2 C2          1.5250    0.0950    0.2310 c3        1 AIH      0.201400
      3 O3          2.0640    0.2180    1.5610 os        1 AIH     -0.322900
      4 C4          1.8300    1.4510    2.1550 ca        1 AIH      0.058100
      5 C5          2.8070    1.8760    3.0710 ca        1 AIH     -0.096000
      6 C6          2.6270    3.0610    3.7680 ca        1 AIH     -0.143000
      7 C7          1.4690    3.8250    3.5320 ca        1 AIH      0.120100
      8 O8          1.3560    4.9950    4.2490 oh        1 AIH     -0.496100
      9 C9          0.4990    3.4070    2.6180 ca        1 AIH     -0.186000
     10 C10         0.6710    2.2050    1.9190 ca        1 AIH     -0.013100
     11 S11        -0.5420    1.7760    0.8230 ss        1 AIH     -0.170000
     12 C12        -0.7340   -0.9200    0.8920 ca        1 AIH     -0.109300
     13 C13        -0.4320   -1.3190    2.2010 ca        1 AIH     -0.075500
     14 C14        -1.1520   -2.3360    2.8200 ca        1 AIH     -0.186500
     15 C15        -2.1900   -2.9670    2.1220 ca        1 AIH      0.130100
     16 O16        -2.9460   -3.9790    2.6670 oh        1 AIH     -0.497100
     17 C17        -2.5060   -2.5850    0.8080 ca        1 AIH     -0.186500
     18 C18        -1.7750   -1.5670    0.2070 ca        1 AIH     -0.075500
     19 C19         2.0350   -1.1910   -0.3420 ca        1 AIH     -0.125300
     20 C20         2.1410   -1.3080   -1.7360 ca        1 AIH     -0.072500
     21 C21         2.6110   -2.4780   -2.3130 ca        1 AIH     -0.184000
     22 C22         2.9900   -3.5530   -1.4830 ca        1 AIH      0.138100
     23 C23         2.8940   -3.4440   -0.0910 ca        1 AIH     -0.184000
     24 C24         2.4150   -2.2610    0.4700 ca        1 AIH     -0.072500
     25 O25         3.4460   -4.6670   -2.1560 os        1 AIH     -0.336900
     26 C26         3.8100   -5.7890   -1.3400 c3        1 AIH      0.125400
     27 C27         4.2220   -6.9010   -2.3140 c3        1 AIH      0.162800
     28 N28         5.6460   -6.9220   -2.6050 n3        1 AIH     -0.720600
     29 C29         6.0590   -8.1050   -3.3630 c3        1 AIH      0.154300
     30 C30         6.5970   -7.6780   -4.7450 c3        1 AIH     -0.083200
     31 C31         7.8810   -8.3890   -5.0870 c3        1 AIH     -0.086100
     32 C32         6.7730   -6.1540   -4.6590 c3        1 AIH     -0.083200
     33 C33         6.1370   -5.4380   -5.8240 c3        1 AIH     -0.086100
     34 C34         6.1380   -5.7380   -3.3130 c3        1 AIH      0.154300
     35 H1         -0.3080    0.2010   -0.8720 h1        1 AIH      0.096700
     36 H2          1.9230    0.9570   -0.3850 h1        1 AIH      0.066700
     37 H5          3.7010    1.2560    3.2290 ha        1 AIH      0.153000
     38 H6          3.3730    3.4150    4.4940 ha        1 AIH      0.155000
     39 HO8         0.5190    5.4160    4.0040 ho        1 AIH      0.420000
     40 H9         -0.4040    4.0130    2.4460 ha        1 AIH      0.145000
     41 H13         0.3890   -0.8230    2.7460 ha        1 AIH      0.142500
     42 H14        -0.9090   -2.6390    3.8480 ha        1 AIH      0.143000
     43 H16        -2.6340   -4.1300    3.5710 ho        1 AIH      0.419000
     44 H17        -3.3210   -3.0930    0.2750 ha        1 AIH      0.143000
     45 H18        -2.0220   -1.2680   -0.8240 ha        1 AIH      0.142500
     46 H20         1.8500   -0.4640   -2.3800 ha        1 AIH      0.141000
     47 H21         2.6960   -2.5820   -3.4040 ha        1 AIH      0.145000
     48 H23         3.1900   -4.2730    0.5670 ha        1 AIH      0.145000
     49 H24         2.3330   -2.1660    1.5650 ha        1 AIH      0.141000
     50 H261        2.9140   -6.1210   -0.7510 h1        1 AIH      0.051200
     51 H262        4.6390   -5.4970   -0.6450 h1        1 AIH      0.051200
     52 H271        3.9670   -7.8810   -1.8190 h1        1 AIH      0.046700
     53 H272        3.5890   -6.8030   -3.2440 h1        1 AIH      0.046700
     54 H291        6.8750   -8.6000   -2.7660 h1        1 AIH      0.051450
     55 H292        5.2250   -8.8470   -3.4860 h1        1 AIH      0.051450
     56 H30         5.8280   -7.9230   -5.5270 hc        1 AIH      0.054200
     57 H311        8.6720   -8.1730   -4.3290 hc        1 AIH      0.035700
     58 H312        7.7150   -9.4930   -5.1180 hc        1 AIH      0.035700
     59 H313        8.2510   -8.0570   -6.0870 hc        1 AIH      0.035700
     60 H32         7.8670   -5.9030   -4.6350 hc        1 AIH      0.054200
     61 H331        5.0390   -5.6400   -5.8660 hc        1 AIH      0.035700
     62 H332        6.2880   -4.3350   -5.7290 hc        1 AIH      0.035700
     63 H333        6.5960   -5.7780   -6.7830 hc        1 AIH      0.035700
     64 H341        6.9210   -5.2700   -2.6550 h1        1 AIH      0.051450
     65 H342        5.3240   -4.9790   -3.4750 h1        1 AIH      0.051450
@<TRIPOS>BOND
     1    1    2 1   
     2    1   11 1   
     3    1   12 1   
     4    1   35 1   
     5    2    3 1   
     6    2   19 1   
     7    2   36 1   
     8    3    4 1   
     9    4    5 ar  
    10    4   10 ar  
    11    5    6 ar  
    12    5   37 1   
    13    6    7 ar  
    14    6   38 1   
    15    7    8 1   
    16    7    9 ar  
    17    8   39 1   
    18    9   10 ar  
    19    9   40 1   
    20   10   11 1   
    21   12   13 ar  
    22   12   18 ar  
    23   13   14 ar  
    24   13   41 1   
    25   14   15 ar  
    26   14   42 1   
    27   15   16 1   
    28   15   17 ar  
    29   16   43 1   
    30   17   18 ar  
    31   17   44 1   
    32   18   45 1   
    33   19   20 ar  
    34   19   24 ar  
    35   20   21 ar  
    36   20   46 1   
    37   21   22 ar  
    38   21   47 1   
    39   22   23 ar  
    40   22   25 1   
    41   23   24 ar  
    42   23   48 1   
    43   24   49 1   
    44   25   26 1   
    45   26   27 1   
    46   26   50 1   
    47   26   51 1   
    48   27   28 1   
    49   27   52 1   
    50   27   53 1   
    51   28   29 1   
    52   28   34 1   
    53   29   30 1   
    54   29   54 1   
    55   29   55 1   
    56   30   31 1   
    57   30   32 1   
    58   30   56 1   
    59   31   57 1   
    60   31   58 1   
    61   31   59 1   
    62   32   33 1   
    63   32   34 1   
    64   32   60 1   
    65   33   61 1   
    66   33   62 1   
    67   33   63 1   
    68   34   64 1   
    69   34   65 1   
@<TRIPOS>SUBSTRUCTURE
     1 AIH         1 TEMP              0 ****  ****    0 ROOT
