@<TRIPOS>MOLECULE
AIH
   65    63     1     0     0
SMALL
bcc


@<TRIPOS>ATOM
      1 C1         -1.6710    3.9970    1.2360 c3        1 AIH     -0.206000
      2 C2         -0.2660    3.7050    1.6770 c3        1 AIH      0.083000
      3 O3         -0.0580    3.4550    3.0970 os        1 AIH     -0.207000
      4 C4         -0.9360    4.3630    4.1710 c2        1 AIH      0.012000
      5 C5         -0.5360    4.5060    5.4950 c1        1 AIH     -0.090000
      6 C6         -1.1500    5.4750    6.3160 c1        1 AIH     -0.200000
      7 C7         -2.1930    6.3190    5.7830 c1        1 AIH      0.073000
      8 O8         -2.8380    7.2430    6.6170 o         1 AIH     -0.250000
      9 C9         -2.6070    6.1750    4.4190 c2        1 AIH     -0.129000
     10 C10        -2.0170    5.2380    3.6200 c2        1 AIH     -0.244000
     11 S11        -2.3820    5.0780    1.9710 ss        1 AIH      0.248000
     12 C12        -2.6120    2.5140    1.4180 c2        1 AIH     -0.101000
     13 C13        -2.8400    1.9870    2.6880 c2        1 AIH     -0.068000
     14 C14        -3.6780    0.8970    2.8450 c1        1 AIH     -0.214000
     15 C15        -4.2970    0.3250    1.7300 c1        1 AIH      0.084000
     16 O16        -5.1330   -0.7620    1.8870 oh        1 AIH     -0.251000
     17 C17        -4.0720    0.8490    0.4630 c1        1 AIH     -0.158000
     18 C18        -3.2330    1.9400    0.3040 c1        1 AIH     -0.083000
     19 C19         0.2260    2.4530    0.8980 c2        1 AIH     -0.117000
     20 C20         0.4500    2.5390   -0.4900 c2        1 AIH     -0.091000
     21 C21         1.1040    1.5030   -1.1580 c1        1 AIH     -0.160000
     22 C22         1.5380    0.3780   -0.4510 c1        1 AIH      0.094000
     23 C23         1.3170    0.2920    0.9220 c1        1 AIH     -0.207000
     24 C24         0.6570    1.3370    1.5980 c1        1 AIH     -0.055000
     25 O25         2.3730   -0.6070   -1.1090 os        1 AIH     -0.218000
     26 C26         1.6410   -1.6460   -1.7320 c3        1 AIH     -0.023000
     27 C27         2.5680   -2.3980   -2.7760 c3        1 AIH     -0.075000
     28 N28         2.1030   -3.7450   -2.9430 n3        1 AIH     -0.251000
     29 C29         1.5400   -3.8740   -4.1280 c3        1 AIH     -0.077000
     30 C30         1.8840   -5.3220   -4.5900 c3        1 AIH     -0.119000
     31 C31         0.7200   -6.1570   -4.5240 c3        1 AIH     -0.205000
     32 C32         2.9650   -5.8300   -3.6020 c3        1 AIH     -0.119000
     33 C33         4.1850   -6.4490   -4.3920 c3        1 AIH     -0.205000
     34 C34         3.3500   -4.7500   -2.9300 c3        1 AIH     -0.077000
     35 H1         -1.6510    4.2360    0.2800 h1        1 AIH      0.136000
     36 H2          0.3010    4.4750    1.4150 h1        1 AIH      0.106000
     37 H5          0.1840    3.9240    5.8650 ha        1 AIH      0.152000
     38 H6         -0.9230    5.5230    7.2760 ha        1 AIH      0.138000
     39 HO8        -2.3190    7.9940    6.6980 ho        1 AIH      0.218000
     40 H9         -3.3250    6.7550    4.0550 ha        1 AIH      0.162000
     41 H13        -2.4040    2.3890    3.4740 ha        1 AIH      0.152000
     42 H14        -3.8410    0.5200    3.7510 ha        1 AIH      0.135000
     43 H16        -5.9390   -0.4830    2.0700 ho        1 AIH      0.218000
     44 H17        -4.5170    0.4380   -0.3370 ha        1 AIH      0.151000
     45 H18        -3.0740    2.3080   -0.5880 ha        1 AIH      0.133000
     46 H20         0.1370    3.3500   -1.0020 ha        1 AIH      0.132000
     47 H21         1.2630    1.5660   -2.1530 ha        1 AIH      0.150000
     48 H23         1.6140   -0.4810    1.4080 ha        1 AIH      0.142000
     49 H24         0.4990    1.2740    2.5840 ha        1 AIH      0.149000
     50 H261        1.3210   -2.3070   -1.0240 h1        1 AIH      0.087500
     51 H262        0.8560   -1.2610   -2.2040 h1        1 AIH      0.087500
     52 H271        3.4690   -2.4100   -2.4550 h1        1 AIH      0.086500
     53 H272        2.5360   -1.9550   -3.5950 h1        1 AIH      0.086500
     54 H291        1.9060   -3.2340   -4.7440 h1        1 AIH      0.084500
     55 H292        0.5960   -3.7650   -4.0590 h1        1 AIH      0.084500
     56 H30         2.2400   -5.3080   -5.5030 hc        1 AIH      0.095000
     57 H311        0.4320   -6.2530   -3.5690 hc        1 AIH      0.076167
     58 H312        0.0010   -5.7540   -5.0410 hc        1 AIH      0.076167
     59 H313        0.9290   -7.0310   -4.8890 hc        1 AIH      0.076167
     60 H32         2.5730   -6.5070   -2.9770 hc        1 AIH      0.095000
     61 H331        4.9860   -6.3070   -3.8990 hc        1 AIH      0.076167
     62 H332        4.0460   -7.3910   -4.5100 hc        1 AIH      0.076167
     63 H333        4.2580   -6.0330   -5.2370 hc        1 AIH      0.076167
     64 H341        4.1650   -4.3130   -3.3970 h1        1 AIH      0.084500
     65 H342        3.5760   -4.9880   -2.0170 h1        1 AIH      0.084500
@<TRIPOS>BOND
     1    1    2 1   
     2    1   11 1   
     3    1   12 1   
     4    1   35 1   
     5    2    3 1   
     6    2   19 1   
     7    2   36 1   
     8    3    4 1   
     9    4    5 1   
    10    4   10 1   
    11    5   37 1   
    12    6    7 1   
    13    6   38 1   
    14    7    9 1   
    15    8   39 1   
    16    9   10 1   
    17    9   40 1   
    18   10   11 1   
    19   12   13 1   
    20   12   18 1   
    21   13   14 1   
    22   13   41 1   
    23   14   42 1   
    24   15   16 1   
    25   15   17 1   
    26   16   43 1   
    27   17   44 1   
    28   18   45 1   
    29   19   20 1   
    30   19   24 1   
    31   20   21 1   
    32   20   46 1   
    33   21   47 1   
    34   22   23 1   
    35   22   25 1   
    36   23   48 1   
    37   24   49 1   
    38   25   26 1   
    39   26   27 1   
    40   26   50 1   
    41   26   51 1   
    42   27   28 1   
    43   27   52 1   
    44   27   53 1   
    45   28   29 1   
    46   28   34 1   
    47   29   30 1   
    48   29   54 1   
    49   29   55 1   
    50   30   31 1   
    51   30   32 1   
    52   30   56 1   
    53   31   57 1   
    54   31   58 1   
    55   31   59 1   
    56   32   33 1   
    57   32   34 1   
    58   32   60 1   
    59   33   61 1   
    60   33   62 1   
    61   33   63 1   
    62   34   64 1   
    63   34   65 1   
@<TRIPOS>SUBSTRUCTURE
     1 AIH         1 TEMP              0 ****  ****    0 ROOT
