@<TRIPOS>MOLECULE
AIH
   65    69     1     0     0
SMALL
bcc


@<TRIPOS>ATOM
      1 C1          0.0030    0.1480    0.2300 c3        1 AIH      0.025700
      2 C2          1.5330    0.0770    0.2360 c3        1 AIH      0.201400
      3 O3          2.0800    0.2080    1.5620 os        1 AIH     -0.322900
      4 C4          1.8390    1.4410    2.1540 ca        1 AIH      0.058100
      5 C5          2.8180    1.8770    3.0630 ca        1 AIH     -0.096000
      6 C6          2.6330    3.0620    3.7570 ca        1 AIH     -0.143000
      7 C7          1.4670    3.8160    3.5270 ca        1 AIH      0.120100
      8 O8          1.3480    4.9870    4.2420 oh        1 AIH     -0.496100
      9 C9          0.4940    3.3870    2.6210 ca        1 AIH     -0.186000
     10 C10         0.6720    2.1850    1.9230 ca        1 AIH     -0.013100
     11 S11        -0.5450    1.7420    0.8370 ss        1 AIH     -0.170000
     12 C12        -0.7130   -0.9560    0.9150 ca        1 AIH     -0.109300
     13 C13        -0.3980   -1.3490    2.2220 ca        1 AIH     -0.075500
     14 C14        -1.1050   -2.3700    2.8490 ca        1 AIH     -0.186500
     15 C15        -2.1430   -3.0120    2.1600 ca        1 AIH      0.130100
     16 O16        -2.8870   -4.0290    2.7120 oh        1 AIH     -0.497100
     17 C17        -2.4710   -2.6350    0.8470 ca        1 AIH     -0.186500
     18 C18        -1.7540   -1.6130    0.2390 ca        1 AIH     -0.075500
     19 C19         2.0500   -1.2070   -0.3370 ca        1 AIH     -0.125300
     20 C20         2.1460   -1.3270   -1.7320 ca        1 AIH     -0.072500
     21 C21         2.6220   -2.4950   -2.3080 ca        1 AIH     -0.184000
     22 C22         3.0180   -3.5630   -1.4780 ca        1 AIH      0.138100
     23 C23         2.9320   -3.4510   -0.0860 ca        1 AIH     -0.184000
     24 C24         2.4460   -2.2700    0.4750 ca        1 AIH     -0.072500
     25 O25         3.4780   -4.6760   -2.1510 os        1 AIH     -0.336900
     26 C26         3.8590   -5.7920   -1.3340 c3        1 AIH      0.125400
     27 C27         4.2720   -6.9030   -2.3080 c3        1 AIH      0.162800
     28 N28         5.6940   -6.9120   -2.6100 n3        1 AIH     -0.720600
     29 C29         6.1120   -8.0950   -3.3670 c3        1 AIH      0.154300
     30 C30         6.6330   -7.6690   -4.7560 c3        1 AIH     -0.083200
     31 C31         7.9210   -8.3690   -5.1060 c3        1 AIH     -0.086100
     32 C32         6.7940   -6.1430   -4.6790 c3        1 AIH     -0.083200
     33 C33         6.1380   -5.4390   -5.8400 c3        1 AIH     -0.086100
     34 C34         6.1690   -5.7270   -3.3290 c3        1 AIH      0.154300
     35 H1         -0.3080    0.1640   -0.8550 h1        1 AIH      0.096700
     36 H2          1.9190    0.9400   -0.3860 h1        1 AIH      0.066700
     37 H5          3.7190    1.2650    3.2160 ha        1 AIH      0.153000
     38 H6          3.3800    3.4250    4.4770 ha        1 AIH      0.155000
     39 HO8         0.5060    5.4000    4.0010 ho        1 AIH      0.420000
     40 H9         -0.4150    3.9840    2.4530 ha        1 AIH      0.145000
     41 H13         0.4220   -0.8450    2.7610 ha        1 AIH      0.142500
     42 H14        -0.8520   -2.6690    3.8760 ha        1 AIH      0.143000
     43 H16        -2.5670   -4.1750    3.6140 ho        1 AIH      0.419000
     44 H17        -3.2860   -3.1510    0.3210 ha        1 AIH      0.143000
     45 H18        -2.0100   -1.3190   -0.7910 ha        1 AIH      0.142500
     46 H20         1.8420   -0.4880   -2.3760 ha        1 AIH      0.141000
     47 H21         2.6990   -2.6020   -3.3990 ha        1 AIH      0.145000
     48 H23         3.2400   -4.2750    0.5720 ha        1 AIH      0.145000
     49 H24         2.3730   -2.1720    1.5710 ha        1 AIH      0.141000
     50 H261        4.6900   -5.4900   -0.6470 h1        1 AIH      0.051200
     51 H262        2.9710   -6.1300   -0.7370 h1        1 AIH      0.051200
     52 H271        4.0310   -7.8830   -1.8070 h1        1 AIH      0.046700
     53 H272        3.6310   -6.8140   -3.2330 h1        1 AIH      0.046700
     54 H291        5.2840   -8.8450   -3.4780 h1        1 AIH      0.051700
     55 H292        6.9380   -8.5780   -2.7750 h1        1 AIH      0.051700
     56 H30         5.8590   -7.9260   -5.5290 hc        1 AIH      0.054200
     57 H311        8.2780   -8.0380   -6.1120 hc        1 AIH      0.035700
     58 H312        8.7170   -8.1410   -4.3570 hc        1 AIH      0.035700
     59 H313        7.7660   -9.4750   -5.1300 hc        1 AIH      0.035700
     60 H32         7.8860   -5.8800   -4.6680 hc        1 AIH      0.054200
     61 H331        6.5900   -5.7800   -6.8030 hc        1 AIH      0.035700
     62 H332        5.0420   -5.6530   -5.8690 hc        1 AIH      0.035700
     63 H333        6.2780   -4.3350   -5.7520 hc        1 AIH      0.035700
     64 H341        5.3470   -4.9750   -3.4850 h1        1 AIH      0.051700
     65 H342        6.9550   -5.2500   -2.6800 h1        1 AIH      0.051700
@<TRIPOS>BOND
     1    1    2 1   
     2    1   11 1   
     3    1   12 1   
     4    1   35 1   
     5    2    3 1   
     6    2   19 1   
     7    2   36 1   
     8    3    4 1   
     9    4    5 ar  
    10    4   10 ar  
    11    5    6 ar  
    12    5   37 1   
    13    6    7 ar  
    14    6   38 1   
    15    7    8 1   
    16    7    9 ar  
    17    8   39 1   
    18    9   10 ar  
    19    9   40 1   
    20   10   11 1   
    21   12   13 ar  
    22   12   18 ar  
    23   13   14 ar  
    24   13   41 1   
    25   14   15 ar  
    26   14   42 1   
    27   15   16 1   
    28   15   17 ar  
    29   16   43 1   
    30   17   18 ar  
    31   17   44 1   
    32   18   45 1   
    33   19   20 ar  
    34   19   24 ar  
    35   20   21 ar  
    36   20   46 1   
    37   21   22 ar  
    38   21   47 1   
    39   22   23 ar  
    40   22   25 1   
    41   23   24 ar  
    42   23   48 1   
    43   24   49 1   
    44   25   26 1   
    45   26   27 1   
    46   26   50 1   
    47   26   51 1   
    48   27   28 1   
    49   27   52 1   
    50   27   53 1   
    51   28   29 1   
    52   28   34 1   
    53   29   30 1   
    54   29   54 1   
    55   29   55 1   
    56   30   31 1   
    57   30   32 1   
    58   30   56 1   
    59   31   57 1   
    60   31   58 1   
    61   31   59 1   
    62   32   33 1   
    63   32   34 1   
    64   32   60 1   
    65   33   61 1   
    66   33   62 1   
    67   33   63 1   
    68   34   64 1   
    69   34   65 1   
@<TRIPOS>SUBSTRUCTURE
     1 AIH         1 TEMP              0 ****  ****    0 ROOT
