@<TRIPOS>MOLECULE
AIJ
   62    66     1     0     0
SMALL
bcc


@<TRIPOS>ATOM
      1 C1         -2.2470   -0.0290   -1.4980 c3        1 AIJ      0.022700
      2 C2         -1.8670    1.1250   -0.5670 c3        1 AIJ      0.201400
      3 O3         -2.5510    1.0500    0.6990 os        1 AIJ     -0.323900
      4 C4         -3.9290    1.1910    0.6050 ca        1 AIJ      0.057100
      5 C5         -4.5540    1.7760    1.7160 ca        1 AIJ     -0.091000
      6 C6         -5.9380    1.8940    1.7420 ca        1 AIJ     -0.200000
      7 C7         -6.6880    1.4350    0.6460 ca        1 AIJ      0.118100
      8 O8         -8.0610    1.5270    0.5990 oh        1 AIJ     -0.496100
      9 C9         -6.0660    0.8550   -0.4660 ca        1 AIJ     -0.129000
     10 C10        -4.6730    0.7260   -0.4930 ca        1 AIJ     -0.017100
     11 S11        -3.9960    0.0280   -1.8760 ss        1 AIJ     -0.161000
     12 C12        -1.8410   -1.3890   -1.0630 ca        1 AIJ     -0.108300
     13 C13        -2.1460   -1.8830    0.2120 ca        1 AIJ     -0.075500
     14 C14        -1.7760   -3.1720    0.5830 ca        1 AIJ     -0.186000
     15 C15        -1.0890   -3.9820   -0.3320 ca        1 AIJ      0.129100
     16 O16        -0.6910   -5.2650   -0.0380 oh        1 AIJ     -0.497100
     17 C17        -0.7700   -3.5020   -1.6130 ca        1 AIJ     -0.186000
     18 C18        -1.1490   -2.2130   -1.9650 ca        1 AIJ     -0.075500
     19 C19        -0.3980    1.1730   -0.2800 ca        1 AIJ     -0.126300
     20 C20         0.4460    1.8030   -1.2070 ca        1 AIJ     -0.073500
     21 C21         1.8130    1.8720   -0.9840 ca        1 AIJ     -0.184500
     22 C22         2.3490    1.3090    0.1920 ca        1 AIJ      0.137100
     23 C23         1.5150    0.6860    1.1270 ca        1 AIJ     -0.184500
     24 C24         0.1440    0.6210    0.8820 ca        1 AIJ     -0.073500
     25 O25         3.7150    1.4530    0.3260 os        1 AIJ     -0.310900
     26 C26         4.3080    0.7480    1.4200 c3        1 AIJ      0.127400
     27 C27         5.8390    0.9220    1.3160 c3        1 AIJ      0.193500
     28 C28         6.1510    2.4180    1.2630 c3        1 AIJ     -0.091100
     29 N29         6.4110    0.1870    0.1910 n3        1 AIJ     -0.720600
     30 C30         7.8500    0.3880    0.0130 c3        1 AIJ      0.161800
     31 C31         8.4830   -0.9400   -0.4300 c3        1 AIJ     -0.088900
     32 C32         7.3960   -1.9960   -0.2780 c3        1 AIJ     -0.088900
     33 C33         6.1440   -1.2520    0.2110 c3        1 AIJ      0.161800
     34 H1         -1.7600    0.1930   -2.4910 h1        1 AIJ      0.097700
     35 H2         -2.1770    2.0890   -1.0720 h1        1 AIJ      0.066700
     36 H5         -3.9400    2.1280    2.5580 ha        1 AIJ      0.151000
     37 H6         -6.4410    2.3450    2.6080 ha        1 AIJ      0.138000
     38 HO8        -8.3590    1.9440    1.4200 ho        1 AIJ      0.419000
     39 H9         -6.6780    0.5010   -1.3100 ha        1 AIJ      0.162000
     40 H13        -2.6830   -1.2420    0.9310 ha        1 AIJ      0.142500
     41 H14        -2.0240   -3.5520    1.5840 ha        1 AIJ      0.142500
     42 H16        -0.9920   -5.4720    0.8590 ho        1 AIJ      0.419000
     43 H17        -0.2290   -4.1500   -2.3170 ha        1 AIJ      0.142500
     44 H18        -0.8970   -1.8370   -2.9690 ha        1 AIJ      0.142500
     45 H20         0.0210    2.2460   -2.1210 ha        1 AIJ      0.140000
     46 H21         2.4860    2.3570   -1.7050 ha        1 AIJ      0.145000
     47 H23         1.9200    0.2480    2.0490 ha        1 AIJ      0.145000
     48 H24        -0.5220    0.1290    1.6100 ha        1 AIJ      0.140000
     49 H261        4.0110   -0.3330    1.3830 h1        1 AIJ      0.041200
     50 H262        3.9570    1.2050    2.3840 h1        1 AIJ      0.041200
     51 H27         6.2450    0.5180    2.3000 h1        1 AIJ      0.018700
     52 H281        5.7560    2.8650    0.3190 hc        1 AIJ      0.045367
     53 H282        5.6570    2.9200    2.1290 hc        1 AIJ      0.045367
     54 H283        7.2490    2.6040    1.3200 hc        1 AIJ      0.045367
     55 H301        7.9810    1.1790   -0.7730 h1        1 AIJ      0.039200
     56 H302        8.3540    0.7500    0.9530 h1        1 AIJ      0.039200
     57 H311        8.8260   -0.8710   -1.4910 hc        1 AIJ      0.047450
     58 H312        9.3720   -1.1780    0.2020 hc        1 AIJ      0.047450
     59 H321        7.1910   -2.5020   -1.2530 hc        1 AIJ      0.047450
     60 H322        7.6950   -2.7810    0.4580 hc        1 AIJ      0.047450
     61 H331        5.8600   -1.6230    1.2360 h1        1 AIJ      0.039200
     62 H332        5.2750   -1.4400   -0.4750 h1        1 AIJ      0.039200
@<TRIPOS>BOND
     1    1    2 1   
     2    1   11 1   
     3    1   12 1   
     4    1   34 1   
     5    2    3 1   
     6    2   19 1   
     7    2   35 1   
     8    3    4 1   
     9    4    5 ar  
    10    4   10 ar  
    11    5    6 ar  
    12    5   36 1   
    13    6    7 ar  
    14    6   37 1   
    15    7    8 1   
    16    7    9 ar  
    17    8   38 1   
    18    9   10 ar  
    19    9   39 1   
    20   10   11 1   
    21   12   13 ar  
    22   12   18 ar  
    23   13   14 ar  
    24   13   40 1   
    25   14   15 ar  
    26   14   41 1   
    27   15   16 1   
    28   15   17 ar  
    29   16   42 1   
    30   17   18 ar  
    31   17   43 1   
    32   18   44 1   
    33   19   20 ar  
    34   19   24 ar  
    35   20   21 ar  
    36   20   45 1   
    37   21   22 ar  
    38   21   46 1   
    39   22   23 ar  
    40   22   25 1   
    41   23   24 ar  
    42   23   47 1   
    43   24   48 1   
    44   25   26 1   
    45   26   27 1   
    46   26   49 1   
    47   26   50 1   
    48   27   28 1   
    49   27   29 1   
    50   27   51 1   
    51   28   52 1   
    52   28   53 1   
    53   28   54 1   
    54   29   30 1   
    55   29   33 1   
    56   30   31 1   
    57   30   55 1   
    58   30   56 1   
    59   31   32 1   
    60   31   57 1   
    61   31   58 1   
    62   32   33 1   
    63   32   59 1   
    64   32   60 1   
    65   33   61 1   
    66   33   62 1   
@<TRIPOS>SUBSTRUCTURE
     1 AIJ         1 TEMP              0 ****  ****    0 ROOT
