@<TRIPOS>MOLECULE
AIJ
   62    66     1     0     0
SMALL
bcc


@<TRIPOS>ATOM
      1 C1         -0.0110    0.0960    0.1720 c3        1 AIJ      0.022700
      2 C2          1.5190    0.0260    0.1840 c3        1 AIJ      0.201400
      3 O3          2.0590    0.1560    1.5140 os        1 AIJ     -0.323900
      4 C4          1.8180    1.3900    2.1030 ca        1 AIJ      0.057100
      5 C5          2.7930    1.8280    3.0100 ca        1 AIJ     -0.091000
      6 C6          2.6030    3.0190    3.7000 ca        1 AIJ     -0.200000
      7 C7          1.4410    3.7710    3.4660 ca        1 AIJ      0.118100
      8 O8          1.1900    4.9640    4.1070 oh        1 AIJ     -0.496100
      9 C9          0.4680    3.3390    2.5570 ca        1 AIJ     -0.129000
     10 C10         0.6500    2.1360    1.8670 ca        1 AIJ     -0.017100
     11 S11        -0.5630    1.6880    0.7770 ss        1 AIJ     -0.161000
     12 C12        -0.7270   -1.0100    0.8540 ca        1 AIJ     -0.108300
     13 C13        -0.4280   -1.3910    2.1680 ca        1 AIJ     -0.075500
     14 C14        -1.1350   -2.4140    2.7920 ca        1 AIJ     -0.186000
     15 C15        -2.1570   -3.0700    2.0920 ca        1 AIJ      0.129100
     16 O16        -2.8990   -4.0900    2.6410 oh        1 AIJ     -0.497100
     17 C17        -2.4690   -2.7060    0.7720 ca        1 AIJ     -0.186000
     18 C18        -1.7520   -1.6810    0.1670 ca        1 AIJ     -0.075500
     19 C19         2.0410   -1.2570   -0.3870 ca        1 AIJ     -0.126300
     20 C20         2.1680   -1.3670   -1.7790 ca        1 AIJ     -0.073500
     21 C21         2.6460   -2.5360   -2.3540 ca        1 AIJ     -0.184500
     22 C22         3.0140   -3.6130   -1.5230 ca        1 AIJ      0.137100
     23 C23         2.8980   -3.5100   -0.1320 ca        1 AIJ     -0.184500
     24 C24         2.4080   -2.3290    0.4270 ca        1 AIJ     -0.073500
     25 O25         3.4980   -4.7170   -2.1940 os        1 AIJ     -0.310900
     26 C26         3.7170   -5.8820   -1.3930 c3        1 AIJ      0.127400
     27 C27         4.1200   -7.0340   -2.3410 c3        1 AIJ      0.193500
     28 C28         5.3230   -6.5780   -3.1670 c3        1 AIJ     -0.091100
     29 N29         3.0080   -7.4910   -3.1700 n3        1 AIJ     -0.720600
     30 C30         3.3700   -8.5300   -4.1350 c3        1 AIJ      0.161800
     31 C31         2.2090   -9.5310   -4.2410 c3        1 AIJ     -0.088900
     32 C32         1.2400   -9.1730   -3.1220 c3        1 AIJ     -0.088900
     33 C33         1.8400   -7.9470   -2.4160 c3        1 AIJ      0.161800
     34 H1         -0.3170    0.1110   -0.9140 h1        1 AIJ      0.097700
     35 H2          1.9070    0.8900   -0.4340 h1        1 AIJ      0.066700
     36 H5          3.6950    1.2180    3.1690 ha        1 AIJ      0.151000
     37 H6          3.3580    3.3700    4.4170 ha        1 AIJ      0.138000
     38 HO8         1.9350    5.1440    4.6990 ho        1 AIJ      0.419000
     39 H9         -0.4360    3.9460    2.3960 ha        1 AIJ      0.162000
     40 H13         0.3790   -0.8760    2.7150 ha        1 AIJ      0.142500
     41 H14        -0.8960   -2.7020    3.8250 ha        1 AIJ      0.142500
     42 H16        -2.5970   -4.2210    3.5520 ho        1 AIJ      0.419000
     43 H17        -3.2710   -3.2330    0.2370 ha        1 AIJ      0.142500
     44 H18        -1.9960   -1.3970   -0.8690 ha        1 AIJ      0.142500
     45 H20         1.8850   -0.5210   -2.4240 ha        1 AIJ      0.140000
     46 H21         2.7450   -2.6380   -3.4440 ha        1 AIJ      0.145000
     47 H23         3.1850   -4.3410    0.5270 ha        1 AIJ      0.145000
     48 H24         2.3100   -2.2390    1.5210 ha        1 AIJ      0.140000
     49 H261        4.5640   -5.6840   -0.6840 h1        1 AIJ      0.041200
     50 H262        2.7880   -6.1280   -0.8150 h1        1 AIJ      0.041200
     51 H27         4.4690   -7.8680   -1.6510 h1        1 AIJ      0.018700
     52 H281        5.7370   -7.4170   -3.7740 hc        1 AIJ      0.045367
     53 H282        6.1180   -6.2110   -2.4740 hc        1 AIJ      0.045367
     54 H283        5.0330   -5.7440   -3.8510 hc        1 AIJ      0.045367
     55 H301        4.3120   -9.0770   -3.8480 h1        1 AIJ      0.039200
     56 H302        3.5540   -8.0220   -5.1200 h1        1 AIJ      0.039200
     57 H311        1.7130   -9.4470   -5.2390 hc        1 AIJ      0.047450
     58 H312        2.5840  -10.5780   -4.1330 hc        1 AIJ      0.047450
     59 H321        1.1230  -10.0180   -2.4010 hc        1 AIJ      0.047450
     60 H322        0.2290   -8.9290   -3.5300 hc        1 AIJ      0.047450
     61 H331        2.0910   -8.2100   -1.3490 h1        1 AIJ      0.039200
     62 H332        1.1040   -7.0980   -2.3960 h1        1 AIJ      0.039200
@<TRIPOS>BOND
     1    1    2 1   
     2    1   11 1   
     3    1   12 1   
     4    1   34 1   
     5    2    3 1   
     6    2   19 1   
     7    2   35 1   
     8    3    4 1   
     9    4    5 ar  
    10    4   10 ar  
    11    5    6 ar  
    12    5   36 1   
    13    6    7 ar  
    14    6   37 1   
    15    7    8 1   
    16    7    9 ar  
    17    8   38 1   
    18    9   10 ar  
    19    9   39 1   
    20   10   11 1   
    21   12   13 ar  
    22   12   18 ar  
    23   13   14 ar  
    24   13   40 1   
    25   14   15 ar  
    26   14   41 1   
    27   15   16 1   
    28   15   17 ar  
    29   16   42 1   
    30   17   18 ar  
    31   17   43 1   
    32   18   44 1   
    33   19   20 ar  
    34   19   24 ar  
    35   20   21 ar  
    36   20   45 1   
    37   21   22 ar  
    38   21   46 1   
    39   22   23 ar  
    40   22   25 1   
    41   23   24 ar  
    42   23   47 1   
    43   24   48 1   
    44   25   26 1   
    45   26   27 1   
    46   26   49 1   
    47   26   50 1   
    48   27   28 1   
    49   27   29 1   
    50   27   51 1   
    51   28   52 1   
    52   28   53 1   
    53   28   54 1   
    54   29   30 1   
    55   29   33 1   
    56   30   31 1   
    57   30   55 1   
    58   30   56 1   
    59   31   32 1   
    60   31   57 1   
    61   31   58 1   
    62   32   33 1   
    63   32   59 1   
    64   32   60 1   
    65   33   61 1   
    66   33   62 1   
@<TRIPOS>SUBSTRUCTURE
     1 AIJ         1 TEMP              0 ****  ****    0 ROOT
