@<TRIPOS>MOLECULE
AIJ
   62    66     1     0     0
SMALL
bcc


@<TRIPOS>ATOM
      1 C1          0.0010    0.1060    0.1460 c3        1 AIJ      0.022700
      2 C2          1.5290    0.0250    0.1900 c3        1 AIJ      0.201400
      3 O3          2.0420    0.1490    1.5300 os        1 AIJ     -0.323900
      4 C4          1.7970    1.3830    2.1170 ca        1 AIJ      0.057100
      5 C5          2.7560    1.8130    3.0450 ca        1 AIJ     -0.091000
      6 C6          2.5600    3.0030    3.7330 ca        1 AIJ     -0.200000
      7 C7          1.4070    3.7640    3.4780 ca        1 AIJ      0.118100
      8 O8          1.1500    4.9560    4.1170 oh        1 AIJ     -0.496100
      9 C9          0.4500    3.3390    2.5480 ca        1 AIJ     -0.129000
     10 C10         0.6380    2.1370    1.8590 ca        1 AIJ     -0.017100
     11 S11        -0.5540    1.6990    0.7440 ss        1 AIJ     -0.161000
     12 C12        -0.7370   -0.9980    0.8100 ca        1 AIJ     -0.108300
     13 C13        -0.4680   -1.3830    2.1290 ca        1 AIJ     -0.075500
     14 C14        -1.1940   -2.4040    2.7360 ca        1 AIJ     -0.186000
     15 C15        -2.2050   -3.0520    2.0130 ca        1 AIJ      0.129100
     16 O16        -2.9640   -4.0690    2.5440 oh        1 AIJ     -0.497100
     17 C17        -2.4870   -2.6830    0.6870 ca        1 AIJ     -0.186000
     18 C18        -1.7510   -1.6610    0.1000 ca        1 AIJ     -0.075500
     19 C19         2.0540   -1.2590   -0.3740 ca        1 AIJ     -0.126300
     20 C20         2.2120   -1.3670   -1.7640 ca        1 AIJ     -0.073500
     21 C21         2.6950   -2.5370   -2.3310 ca        1 AIJ     -0.184500
     22 C22         3.0360   -3.6190   -1.4950 ca        1 AIJ      0.137100
     23 C23         2.8900   -3.5190   -0.1070 ca        1 AIJ     -0.184500
     24 C24         2.3960   -2.3370    0.4450 ca        1 AIJ     -0.073500
     25 O25         3.5270   -4.7240   -2.1580 os        1 AIJ     -0.310900
     26 C26         3.7200   -5.8930   -1.3570 c3        1 AIJ      0.127400
     27 C27         4.1360   -7.0450   -2.2990 c3        1 AIJ      0.193500
     28 C28         5.3600   -6.5960   -3.0960 c3        1 AIJ     -0.091100
     29 N29         3.0390   -7.4920   -3.1540 n3        1 AIJ     -0.720600
     30 C30         3.4140   -8.5310   -4.1140 c3        1 AIJ      0.161800
     31 C31         2.2490   -9.5230   -4.2490 c3        1 AIJ     -0.088900
     32 C32         1.2580   -9.1610   -3.1500 c3        1 AIJ     -0.088900
     33 C33         1.8510   -7.9410   -2.4270 c3        1 AIJ      0.161800
     34 H1         -0.2840    0.1250   -0.9460 h1        1 AIJ      0.097700
     35 H2          1.9350    0.8890   -0.4190 h1        1 AIJ      0.066700
     36 H5          3.6500    1.1970    3.2210 ha        1 AIJ      0.151000
     37 H6          3.3010    3.3480    4.4670 ha        1 AIJ      0.138000
     38 HO8         1.8840    5.1310    4.7240 ho        1 AIJ      0.419000
     39 H9         -0.4470    3.9530    2.3700 ha        1 AIJ      0.162000
     40 H13         0.3310   -0.8740    2.6940 ha        1 AIJ      0.142500
     41 H14        -0.9780   -2.6960    3.7730 ha        1 AIJ      0.142500
     42 H16        -2.6820   -4.2030    3.4600 ho        1 AIJ      0.419000
     43 H17        -3.2810   -3.2040    0.1350 ha        1 AIJ      0.142500
     44 H18        -1.9710   -1.3730   -0.9400 ha        1 AIJ      0.142500
     45 H20         1.9500   -0.5160   -2.4120 ha        1 AIJ      0.140000
     46 H21         2.8180   -2.6360   -3.4190 ha        1 AIJ      0.145000
     47 H23         3.1560   -4.3540    0.5560 ha        1 AIJ      0.145000
     48 H24         2.2740   -2.2480    1.5360 ha        1 AIJ      0.140000
     49 H261        2.7770   -6.1340   -0.8000 h1        1 AIJ      0.041200
     50 H262        4.5530   -5.7040   -0.6280 h1        1 AIJ      0.041200
     51 H27         4.4630   -7.8840   -1.6030 h1        1 AIJ      0.018700
     52 H281        5.7820   -7.4360   -3.6960 hc        1 AIJ      0.045367
     53 H282        6.1420   -6.2370   -2.3850 hc        1 AIJ      0.045367
     54 H283        5.0910   -5.7580   -3.7840 hc        1 AIJ      0.045367
     55 H301        4.3460   -9.0850   -3.8080 h1        1 AIJ      0.039200
     56 H302        3.6240   -8.0210   -5.0930 h1        1 AIJ      0.039200
     57 H311        1.7760   -9.4320   -5.2570 hc        1 AIJ      0.047450
     58 H312        2.6140  -10.5720   -4.1360 hc        1 AIJ      0.047450
     59 H321        0.2580   -8.9090   -3.5800 hc        1 AIJ      0.047450
     60 H322        1.1190  -10.0080   -2.4350 hc        1 AIJ      0.047450
     61 H331        1.1210   -7.0870   -2.4210 h1        1 AIJ      0.039200
     62 H332        2.0760   -8.2100   -1.3560 h1        1 AIJ      0.039200
@<TRIPOS>BOND
     1    1    2 1   
     2    1   11 1   
     3    1   12 1   
     4    1   34 1   
     5    2    3 1   
     6    2   19 1   
     7    2   35 1   
     8    3    4 1   
     9    4    5 ar  
    10    4   10 ar  
    11    5    6 ar  
    12    5   36 1   
    13    6    7 ar  
    14    6   37 1   
    15    7    8 1   
    16    7    9 ar  
    17    8   38 1   
    18    9   10 ar  
    19    9   39 1   
    20   10   11 1   
    21   12   13 ar  
    22   12   18 ar  
    23   13   14 ar  
    24   13   40 1   
    25   14   15 ar  
    26   14   41 1   
    27   15   16 1   
    28   15   17 ar  
    29   16   42 1   
    30   17   18 ar  
    31   17   43 1   
    32   18   44 1   
    33   19   20 ar  
    34   19   24 ar  
    35   20   21 ar  
    36   20   45 1   
    37   21   22 ar  
    38   21   46 1   
    39   22   23 ar  
    40   22   25 1   
    41   23   24 ar  
    42   23   47 1   
    43   24   48 1   
    44   25   26 1   
    45   26   27 1   
    46   26   49 1   
    47   26   50 1   
    48   27   28 1   
    49   27   29 1   
    50   27   51 1   
    51   28   52 1   
    52   28   53 1   
    53   28   54 1   
    54   29   30 1   
    55   29   33 1   
    56   30   31 1   
    57   30   55 1   
    58   30   56 1   
    59   31   32 1   
    60   31   57 1   
    61   31   58 1   
    62   32   33 1   
    63   32   59 1   
    64   32   60 1   
    65   33   61 1   
    66   33   62 1   
@<TRIPOS>SUBSTRUCTURE
     1 AIJ         1 TEMP              0 ****  ****    0 ROOT
