@<TRIPOS>MOLECULE
AIJ
   62    60     1     0     0
SMALL
bcc


@<TRIPOS>ATOM
      1 C1         -1.0950    1.6890    3.4420 c3        1 AIJ     -0.206000
      2 C2         -2.2330    1.1840    2.5270 c3        1 AIJ      0.079000
      3 O3         -2.7680    2.1230    1.5770 os        1 AIJ     -0.206000
      4 C4         -2.9520    3.6810    2.0720 c2        1 AIJ      0.011000
      5 C5         -3.6610    4.6140    1.3410 c1        1 AIJ     -0.089000
      6 C6         -3.8170    5.9420    1.8390 c1        1 AIJ     -0.199000
      7 C7         -3.2330    6.3110    3.1100 c1        1 AIJ      0.074000
      8 O8         -3.4820    7.6220    3.6640 o         1 AIJ     -0.249000
      9 C9         -2.5050    5.3560    3.8610 c2        1 AIJ     -0.129000
     10 C10        -2.3510    4.0660    3.3820 c2        1 AIJ     -0.244000
     11 S11        -1.3540    2.9100    4.1620 ss        1 AIJ      0.248000
     12 C12         0.3250    1.9500    2.4440 c2        1 AIJ     -0.102000
     13 C13         0.2860    2.8580    1.4070 c2        1 AIJ     -0.074000
     14 C14         1.4240    3.0740    0.6280 c1        1 AIJ     -0.157000
     15 C15         2.5960    2.3720    0.8970 c1        1 AIJ      0.085000
     16 O16         3.7560    2.6210    0.1430 oh        1 AIJ     -0.250000
     17 C17         2.6320    1.4660    1.9320 c1        1 AIJ     -0.215000
     18 C18         1.4970    1.2500    2.7110 c1        1 AIJ     -0.078000
     19 C19        -1.7140   -0.0250    1.7490 c2        1 AIJ     -0.096000
     20 C20        -1.4740    0.0820    0.3800 c2        1 AIJ     -0.072000
     21 C21        -0.9940   -1.0200   -0.3380 c1        1 AIJ     -0.171000
     22 C22        -0.7590   -2.2130    0.3050 c1        1 AIJ      0.067000
     23 C23        -1.0010   -2.3260    1.6890 c1        1 AIJ     -0.145000
     24 C24        -1.4780   -1.2280    2.4030 c1        1 AIJ     -0.108000
     25 O25        -0.1940   -3.3550   -0.4450 os        1 AIJ     -0.237000
     26 C26         1.1130   -3.1010   -1.0010 c3        1 AIJ     -0.022000
     27 C27         1.2950   -3.9180   -2.2480 c3        1 AIJ     -0.020000
     28 C28         2.0060   -5.2190   -1.9080 c3        1 AIJ     -0.210000
     29 N29         2.0850   -3.1660   -3.2050 n3        1 AIJ     -0.253000
     30 C30         2.8500   -4.1430   -4.1320 c3        1 AIJ     -0.079500
     31 C31         2.0930   -4.0980   -5.5160 c3        1 AIJ     -0.169000
     32 C32         0.9840   -3.4730   -5.2720 c3        1 AIJ     -0.169000
     33 C33         1.2830   -2.4980   -4.0070 c3        1 AIJ     -0.079500
     34 H1         -0.8850    0.9700    4.1090 h1        1 AIJ      0.135000
     35 H2         -2.9820    0.8800    3.1100 h1        1 AIJ      0.108000
     36 H5         -4.0450    4.3720    0.5080 ha        1 AIJ      0.152000
     37 H6         -4.2580    6.6280    1.2840 ha        1 AIJ      0.138000
     38 HO8        -4.3260    7.6660    3.9580 ho        1 AIJ      0.218000
     39 H9         -2.1110    5.6090    4.7220 ha        1 AIJ      0.163000
     40 H13        -0.5300    3.3460    1.2210 ha        1 AIJ      0.153000
     41 H14         1.3980    3.7150   -0.1040 ha        1 AIJ      0.152000
     42 H16         4.3640    2.9790    0.6560 ho        1 AIJ      0.218000
     43 H17         3.4570    0.9730    2.1210 ha        1 AIJ      0.134000
     44 H18         1.5250    0.6080    3.4430 ha        1 AIJ      0.131000
     45 H20        -1.6380    0.9140   -0.0710 ha        1 AIJ      0.152000
     46 H21        -0.8230   -0.9390   -1.3180 ha        1 AIJ      0.146000
     47 H23        -0.8390   -3.1490    2.1350 ha        1 AIJ      0.148000
     48 H24        -1.6460   -1.3040    3.3570 ha        1 AIJ      0.132000
     49 H261        1.8020   -3.3460   -0.3450 h1        1 AIJ      0.090000
     50 H262        1.1940   -2.1640   -1.2170 h1        1 AIJ      0.090000
     51 H27         0.4210   -4.1190   -2.6350 h1        1 AIJ      0.082000
     52 H281        1.7370   -5.5150   -1.0010 hc        1 AIJ      0.080667
     53 H282        2.9610   -5.0800   -1.9320 hc        1 AIJ      0.080667
     54 H283        1.7590   -5.9110   -2.5670 hc        1 AIJ      0.080667
     55 H301        3.7620   -3.8530   -4.2410 h1        1 AIJ      0.084250
     56 H302        2.8250   -5.0310   -3.7710 h1        1 AIJ      0.084250
     57 H311        2.6360   -3.5910   -6.1950 hc        1 AIJ      0.086000
     58 H312        1.9070   -5.0290   -5.8440 hc        1 AIJ      0.086000
     59 H321        0.2750   -4.1210   -5.0400 hc        1 AIJ      0.086000
     60 H322        0.7140   -2.9370   -6.0600 hc        1 AIJ      0.086000
     61 H331        0.4630   -2.2880   -3.5530 h1        1 AIJ      0.084250
     62 H332        1.7260   -1.6670   -4.3140 h1        1 AIJ      0.084250
@<TRIPOS>BOND
     1    1    2 1   
     2    1   11 1   
     3    1   12 1   
     4    1   34 1   
     5    2    3 1   
     6    2   19 1   
     7    2   35 1   
     8    3    4 1   
     9    4    5 1   
    10    4   10 1   
    11    5   36 1   
    12    6    7 1   
    13    6   37 1   
    14    7    9 1   
    15    8   38 1   
    16    9   10 1   
    17    9   39 1   
    18   10   11 1   
    19   12   13 1   
    20   12   18 1   
    21   13   14 1   
    22   13   40 1   
    23   14   41 1   
    24   15   16 1   
    25   15   17 1   
    26   16   42 1   
    27   17   43 1   
    28   18   44 1   
    29   19   20 1   
    30   19   24 1   
    31   20   21 1   
    32   20   45 1   
    33   21   46 1   
    34   22   23 1   
    35   22   25 1   
    36   23   47 1   
    37   24   48 1   
    38   25   26 1   
    39   26   27 1   
    40   26   49 1   
    41   26   50 1   
    42   27   28 1   
    43   27   29 1   
    44   27   51 1   
    45   28   52 1   
    46   28   53 1   
    47   28   54 1   
    48   29   30 1   
    49   29   33 1   
    50   30   31 1   
    51   30   55 1   
    52   30   56 1   
    53   31   32 1   
    54   31   57 1   
    55   31   58 1   
    56   32   33 1   
    57   32   59 1   
    58   32   60 1   
    59   33   61 1   
    60   33   62 1   
@<TRIPOS>SUBSTRUCTURE
     1 AIJ         1 TEMP              0 ****  ****    0 ROOT
