@<TRIPOS>MOLECULE
AIJ
   62    66     1     0     0
SMALL
bcc


@<TRIPOS>ATOM
      1 C1         -0.0040    0.1100    0.1450 c3        1 AIJ      0.022700
      2 C2          1.5260    0.0460    0.1330 c3        1 AIJ      0.201400
      3 O3          2.0870    0.1930    1.4520 os        1 AIJ     -0.323900
      4 C4          1.8490    1.4320    2.0320 ca        1 AIJ      0.057100
      5 C5          2.8370    1.8840    2.9180 ca        1 AIJ     -0.091000
      6 C6          2.6530    3.0810    3.5980 ca        1 AIJ     -0.200000
      7 C7          1.4840    3.8260    3.3750 ca        1 AIJ      0.118100
      8 O8          1.2370    5.0240    4.0080 oh        1 AIJ     -0.496100
      9 C9          0.4970    3.3790    2.4880 ca        1 AIJ     -0.129000
     10 C10         0.6740    2.1700    1.8070 ca        1 AIJ     -0.017100
     11 S11        -0.5540    1.7050    0.7420 ss        1 AIJ     -0.161000
     12 C12        -0.7040   -0.9930    0.8500 ca        1 AIJ     -0.108300
     13 C13        -0.3820   -1.3580    2.1630 ca        1 AIJ     -0.075500
     14 C14        -1.0740   -2.3780    2.8080 ca        1 AIJ     -0.186000
     15 C15        -2.1040   -3.0460    2.1320 ca        1 AIJ      0.129100
     16 O16        -2.8330   -4.0640    2.7040 oh        1 AIJ     -0.497100
     17 C17        -2.4390   -2.6970    0.8140 ca        1 AIJ     -0.186000
     18 C18        -1.7370   -1.6750    0.1860 ca        1 AIJ     -0.075500
     19 C19         2.0440   -1.2400   -0.4330 ca        1 AIJ     -0.126300
     20 C20         2.1490   -1.3650   -1.8260 ca        1 AIJ     -0.073500
     21 C21         2.6230   -2.5380   -2.3960 ca        1 AIJ     -0.184500
     22 C22         3.0100   -3.6040   -1.5600 ca        1 AIJ      0.137100
     23 C23         2.9170   -3.4860   -0.1680 ca        1 AIJ     -0.184500
     24 C24         2.4310   -2.3020    0.3860 ca        1 AIJ     -0.073500
     25 O25         3.4880   -4.7130   -2.2270 os        1 AIJ     -0.310900
     26 C26         3.7270   -5.8680   -1.4170 c3        1 AIJ      0.127400
     27 C27         4.1200   -7.0280   -2.3590 c3        1 AIJ      0.193500
     28 C28         5.3060   -6.5750   -3.2110 c3        1 AIJ     -0.091100
     29 N29         2.9960   -7.5000   -3.1640 n3        1 AIJ     -0.720600
     30 C30         3.3460   -8.5480   -4.1240 c3        1 AIJ      0.161800
     31 C31         2.1890   -9.5560   -4.1980 c3        1 AIJ     -0.088900
     32 C32         1.2380   -9.1910   -3.0660 c3        1 AIJ     -0.088900
     33 C33         1.8440   -7.9540   -2.3840 c3        1 AIJ      0.161800
     34 H1         -0.3280    0.1120   -0.9360 h1        1 AIJ      0.097700
     35 H2          1.9000    0.9060   -0.5000 h1        1 AIJ      0.066700
     36 H5          3.7440    1.2800    3.0690 ha        1 AIJ      0.151000
     37 H6          3.4170    3.4440    4.3000 ha        1 AIJ      0.138000
     38 HO8         1.9910    5.2150    4.5860 ho        1 AIJ      0.419000
     39 H9         -0.4110    3.9810    2.3350 ha        1 AIJ      0.162000
     40 H13         0.4320   -0.8340    2.6910 ha        1 AIJ      0.142500
     41 H14        -0.8170   -2.6550    3.8400 ha        1 AIJ      0.142500
     42 H16        -2.5150   -4.1830    3.6100 ho        1 AIJ      0.419000
     43 H17        -3.2480   -3.2330    0.2980 ha        1 AIJ      0.142500
     44 H18        -1.9990   -1.4030   -0.8480 ha        1 AIJ      0.142500
     45 H20         1.8510   -0.5270   -2.4750 ha        1 AIJ      0.140000
     46 H21         2.7040   -2.6510   -3.4860 ha        1 AIJ      0.145000
     47 H23         3.2190   -4.3080    0.4940 ha        1 AIJ      0.145000
     48 H24         2.3510   -2.2000    1.4800 ha        1 AIJ      0.140000
     49 H261        4.5850   -5.6580   -0.7250 h1        1 AIJ      0.041200
     50 H262        2.8100   -6.1120   -0.8200 h1        1 AIJ      0.041200
     51 H27         4.4860   -7.8530   -1.6660 h1        1 AIJ      0.018700
     52 H281        6.1110   -6.1960   -2.5370 hc        1 AIJ      0.045367
     53 H282        5.7140   -7.4180   -3.8160 hc        1 AIJ      0.045367
     54 H283        4.9990   -5.7500   -3.8990 hc        1 AIJ      0.045367
     55 H301        3.5100   -8.0500   -5.1170 h1        1 AIJ      0.039200
     56 H302        4.2960   -9.0860   -3.8470 h1        1 AIJ      0.039200
     57 H311        1.6760   -9.4860   -5.1880 hc        1 AIJ      0.047450
     58 H312        2.5730  -10.5990   -4.0860 hc        1 AIJ      0.047450
     59 H321        0.2190   -8.9580   -3.4590 hc        1 AIJ      0.047450
     60 H322        1.1390  -10.0290   -2.3340 hc        1 AIJ      0.047450
     61 H331        2.1150   -8.2040   -1.3190 h1        1 AIJ      0.039200
     62 H332        1.1040   -7.1090   -2.3610 h1        1 AIJ      0.039200
@<TRIPOS>BOND
     1    1    2 1   
     2    1   11 1   
     3    1   12 1   
     4    1   34 1   
     5    2    3 1   
     6    2   19 1   
     7    2   35 1   
     8    3    4 1   
     9    4    5 ar  
    10    4   10 ar  
    11    5    6 ar  
    12    5   36 1   
    13    6    7 ar  
    14    6   37 1   
    15    7    8 1   
    16    7    9 ar  
    17    8   38 1   
    18    9   10 ar  
    19    9   39 1   
    20   10   11 1   
    21   12   13 ar  
    22   12   18 ar  
    23   13   14 ar  
    24   13   40 1   
    25   14   15 ar  
    26   14   41 1   
    27   15   16 1   
    28   15   17 ar  
    29   16   42 1   
    30   17   18 ar  
    31   17   43 1   
    32   18   44 1   
    33   19   20 ar  
    34   19   24 ar  
    35   20   21 ar  
    36   20   45 1   
    37   21   22 ar  
    38   21   46 1   
    39   22   23 ar  
    40   22   25 1   
    41   23   24 ar  
    42   23   47 1   
    43   24   48 1   
    44   25   26 1   
    45   26   27 1   
    46   26   49 1   
    47   26   50 1   
    48   27   28 1   
    49   27   29 1   
    50   27   51 1   
    51   28   52 1   
    52   28   53 1   
    53   28   54 1   
    54   29   30 1   
    55   29   33 1   
    56   30   31 1   
    57   30   55 1   
    58   30   56 1   
    59   31   32 1   
    60   31   57 1   
    61   31   58 1   
    62   32   33 1   
    63   32   59 1   
    64   32   60 1   
    65   33   61 1   
    66   33   62 1   
@<TRIPOS>SUBSTRUCTURE
     1 AIJ         1 TEMP              0 ****  ****    0 ROOT
