@<TRIPOS>MOLECULE
AIK
   74    76     1     0     0
SMALL
bcc


@<TRIPOS>ATOM
      1 C14         0.0880   -0.1970   -0.1090 cc        1 AIK     -0.132000
      2 C10         1.4950   -0.0910   -0.3540 cc        1 AIK      0.007600
      3 N9          2.1590   -0.1050   -1.5680 n         1 AIK     -0.444100
      4 C8          1.5350   -0.2250   -2.8080 c         1 AIK      0.726700
      5 C6          2.4290   -0.2220   -3.9760 cc        1 AIK     -0.206900
      6 C7          3.8370   -0.1250   -4.0040 cd        1 AIK     -0.141000
      7 C3          4.2340   -0.1680   -5.3820 cd        1 AIK     -0.022400
      8 N2          5.5250   -0.1040   -5.8940 n         1 AIK     -0.460100
      9 C1          6.6720    0.0160   -5.1340 c         1 AIK      0.670900
     10 O1          6.6810    0.0820   -3.8950 o         1 AIK     -0.598100
     11 C4          3.0440   -0.2900   -6.1540 cc        1 AIK     -0.168300
     12 N5          1.9620   -0.3220   -5.2940 na        1 AIK     -0.003100
     13 C5          0.5920   -0.4380   -5.6880 c3        1 AIK      0.018600
     14 O8          0.2930   -0.3280   -2.9030 o         1 AIK     -0.636100
     15 C11         2.1280    0.0370    0.9210 cd        1 AIK     -0.150300
     16 N12         1.1600    0.0110    1.9030 na        1 AIK      0.000900
     17 C12         1.4010    0.1130    3.3090 c3        1 AIK      0.017600
     18 C13        -0.0980   -0.1310    1.2940 cd        1 AIK     -0.238900
     19 C15        -1.3440   -0.1950    2.0540 c         1 AIK      0.737700
     20 O15        -1.4110   -0.1490    3.2950 o         1 AIK     -0.594100
     21 N16        -2.5140   -0.3190    1.2620 n         1 AIK     -0.530400
     22 C17        -3.8030   -0.4010    1.7290 cc        1 AIK      0.592300
     23 N21        -4.2040   -0.3660    3.0100 nd        1 AIK     -0.715000
     24 C20        -5.5990   -0.4830    3.0690 cd        1 AIK      0.195800
     25 C25        -6.2670   -0.4860    4.3500 c         1 AIK      0.513600
     26 O25        -7.4510   -0.5740    4.6400 o         1 AIK     -0.450100
     27 N26        -5.3050   -0.3600    5.5540 n4        1 AIK     -0.672800
     28 C27        -6.0060   -0.3770    6.8590 c3        1 AIK      0.104800
     29 C28        -5.0600   -0.2500    8.0530 c3        1 AIK     -0.131400
     30 C29        -5.9020   -0.2940    9.3280 c3        1 AIK      0.104800
     31 N30        -5.1070   -0.1030   10.5850 n4        1 AIK     -0.678400
     32 C32        -6.0070    0.2800   11.7110 c3        1 AIK      0.079100
     33 C31        -4.3300   -1.3230   10.9370 c3        1 AIK      0.079100
     34 C19        -6.2590   -0.6020    1.8330 cc        1 AIK     -0.048700
     35 C22        -7.7200   -0.7290    1.6190 c3        1 AIK     -0.026400
     36 C23        -8.3930    0.6340    1.6900 c3        1 AIK     -0.099600
     37 C24        -8.0250   -1.4000    0.2930 c3        1 AIK     -0.099600
     38 S18        -5.1520   -0.5820    0.5920 ss        1 AIK      0.033700
     39 H14        -0.6670   -0.3070   -0.8860 ha        1 AIK      0.184000
     40 H9          3.1520   -0.0230   -1.5360 hn        1 AIK      0.339500
     41 H7          4.5220   -0.0350   -3.1620 ha        1 AIK      0.183000
     42 H2          5.6060   -0.1500   -6.8840 hn        1 AIK      0.324500
     43 H1          7.6000    0.0490   -5.7520 h5        1 AIK      0.044200
     44 H4          2.9210   -0.3540   -7.2350 h4        1 AIK      0.180000
     45 H51         0.0140    0.4520   -5.3150 h1        1 AIK      0.065367
     46 H52         0.1440   -1.3620   -5.2310 h1        1 AIK      0.065367
     47 H53         0.5240   -0.4950   -6.8060 h1        1 AIK      0.065367
     48 H11         3.1890    0.1420    1.1570 h4        1 AIK      0.191000
     49 H121        2.5010    0.2260    3.4960 h1        1 AIK      0.066033
     50 H122        1.0200   -0.8090    3.8260 h1        1 AIK      0.066033
     51 H123        0.8520    1.0020    3.7230 h1        1 AIK      0.066033
     52 H16        -2.4000   -0.3470    0.2690 hn        1 AIK      0.356500
     53 H26        -4.7760    0.5140    5.4400 hn        1 AIK      0.473300
     54 H271       -6.5900   -1.3420    6.9240 hx        1 AIK      0.120700
     55 H272       -6.7530    0.4720    6.8590 hx        1 AIK      0.120700
     56 H281       -4.3140   -1.0900    8.0470 hc        1 AIK      0.086200
     57 H282       -4.4900    0.7170    7.9930 hc        1 AIK      0.086200
     58 H291       -6.6810    0.5240    9.2880 hx        1 AIK      0.117200
     59 H292       -6.4350   -1.2860    9.4050 hx        1 AIK      0.117200
     60 H321       -6.7780   -0.5220   11.8670 hx        1 AIK      0.115033
     61 H322       -6.5140    1.2540   11.4730 hx        1 AIK      0.115033
     62 H323       -5.3940    0.3970   12.6470 hx        1 AIK      0.115033
     63 H311       -5.0350   -2.1730   11.1490 hx        1 AIK      0.115033
     64 H312       -3.6510   -1.5960   10.0870 hx        1 AIK      0.115033
     65 H313       -3.7150   -1.1160   11.8560 hx        1 AIK      0.115033
     66 H22        -8.1420   -1.3690    2.4520 hc        1 AIK      0.085700
     67 H231       -8.0170    1.3080    0.8840 hc        1 AIK      0.057533
     68 H232       -9.4960    0.5080    1.5610 hc        1 AIK      0.057533
     69 H233       -8.2020    1.1090    2.6820 hc        1 AIK      0.057533
     70 H241       -7.5810   -0.8240   -0.5560 hc        1 AIK      0.057533
     71 H242       -7.6230   -2.4420    0.2740 hc        1 AIK      0.057533
     72 H243       -9.1310   -1.4470    0.1410 hc        1 AIK      0.057533
     73 H262       -4.6300   -1.1340    5.4980 hn        1 AIK      0.473300
     74 H301       -4.4400    0.6680   10.4320 hn        1 AIK      0.455800
@<TRIPOS>BOND
     1    1    2 1   
     2    1   18 2   
     3    1   39 1   
     4    2    3 1   
     5    2   15 2   
     6    3    4 1   
     7    3   40 1   
     8    4    5 1   
     9    4   14 2   
    10    5    6 2   
    11    5   12 1   
    12    6    7 1   
    13    6   41 1   
    14    7    8 1   
    15    7   11 2   
    16    8    9 1   
    17    8   42 1   
    18    9   10 2   
    19    9   43 1   
    20   11   12 1   
    21   11   44 1   
    22   12   13 1   
    23   13   45 1   
    24   13   46 1   
    25   13   47 1   
    26   15   16 1   
    27   15   48 1   
    28   16   17 1   
    29   16   18 1   
    30   17   49 1   
    31   17   50 1   
    32   17   51 1   
    33   18   19 1   
    34   19   20 2   
    35   19   21 1   
    36   21   22 1   
    37   21   52 1   
    38   22   23 2   
    39   22   38 1   
    40   23   24 1   
    41   24   25 1   
    42   24   34 2   
    43   25   26 2   
    44   25   27 1   
    45   27   28 1   
    46   27   53 1   
    47   27   73 1   
    48   28   29 1   
    49   28   54 1   
    50   28   55 1   
    51   29   30 1   
    52   29   56 1   
    53   29   57 1   
    54   30   31 1   
    55   30   58 1   
    56   30   59 1   
    57   31   32 1   
    58   31   33 1   
    59   31   74 1   
    60   32   60 1   
    61   32   61 1   
    62   32   62 1   
    63   33   63 1   
    64   33   64 1   
    65   33   65 1   
    66   34   35 1   
    67   34   38 1   
    68   35   36 1   
    69   35   37 1   
    70   35   66 1   
    71   36   67 1   
    72   36   68 1   
    73   36   69 1   
    74   37   70 1   
    75   37   71 1   
    76   37   72 1   
@<TRIPOS>SUBSTRUCTURE
     1 AIK         1 TEMP              0 ****  ****    0 ROOT
