@<TRIPOS>MOLECULE
AIK
   72    74     1     0     0
SMALL
bcc


@<TRIPOS>ATOM
      1 C14         0.6600   -1.1690   -2.2120 cc        1 AIK     -0.136000
      2 C10         0.7360   -1.3570   -3.6330 cc        1 AIK     -0.017400
      3 N9         -0.0020   -0.7290   -4.6280 n         1 AIK     -0.436100
      4 C8         -0.9820    0.2240   -4.3990 c         1 AIK      0.713700
      5 C6         -1.6480    0.7660   -5.6020 cc        1 AIK     -0.185900
      6 C7         -1.4300    0.4390   -6.9560 cd        1 AIK     -0.150000
      7 C3         -2.3300    1.2450   -7.7320 cd        1 AIK     -0.031400
      8 N2         -2.4750    1.2680   -9.1150 n         1 AIK     -0.457100
      9 C1         -1.7560    0.4970  -10.0040 c         1 AIK      0.666900
     10 O1         -0.8820   -0.3210   -9.6780 o         1 AIK     -0.595100
     11 C4         -3.0720    2.0420   -6.8160 cc        1 AIK     -0.185300
     12 N5         -2.6500    1.7420   -5.5320 na        1 AIK     -0.004100
     13 C5         -3.1570    2.3350   -4.3330 c3        1 AIK      0.017600
     14 O8         -1.2860    0.6030   -3.2480 o         1 AIK     -0.622100
     15 C11         1.7400   -2.3400   -3.8710 cd        1 AIK     -0.176300
     16 N12         2.2610   -2.7410   -2.6540 na        1 AIK     -0.004100
     17 C12         3.2910   -3.7150   -2.4710 c3        1 AIK      0.016600
     18 C13         1.6120   -2.0350   -1.6320 cd        1 AIK     -0.195900
     19 C15         1.9330   -2.2290   -0.2110 c         1 AIK      0.708700
     20 O15         2.7960   -3.0430    0.1880 o         1 AIK     -0.617100
     21 N16         1.2210   -1.4560    0.6990 n         1 AIK     -0.517400
     22 C17         1.4300   -1.5380    2.0760 cc        1 AIK      0.485300
     23 N21         0.7420   -0.7870    2.9680 nd        1 AIK     -0.684000
     24 C20         1.1800   -1.0910    4.2490 cd        1 AIK      0.298800
     25 C25         0.6040   -0.3670    5.4230 c         1 AIK      0.595600
     26 O25         1.3190   -0.0120    6.3810 o         1 AIK     -0.608100
     27 N26        -0.7660   -0.1710    5.4260 n         1 AIK     -0.543900
     28 C27        -1.4070    0.6520    6.4160 c3        1 AIK      0.080000
     29 C28        -1.7990    2.0480    5.9270 c3        1 AIK     -0.110400
     30 C29        -2.4570    2.8050    7.0780 c3        1 AIK      0.172800
     31 N30        -3.0900    4.0560    6.6820 n3        1 AIK     -0.737600
     32 C32        -3.8550    4.6390    7.7620 c3        1 AIK      0.155600
     33 C31        -2.1790    4.9970    6.0710 c3        1 AIK      0.155600
     34 C19         2.1780   -2.0640    4.3280 cc        1 AIK     -0.173700
     35 C22         2.8070   -2.5790    5.5660 c3        1 AIK     -0.011400
     36 C23         2.1440   -3.8700    6.0140 c3        1 AIK     -0.090100
     37 C24         4.2980   -2.7900    5.3770 c3        1 AIK     -0.090100
     38 S18         2.5910   -2.6050    2.7940 ss        1 AIK      0.038700
     39 H14        -0.0150   -0.4810   -1.7050 ha        1 AIK      0.187000
     40 H9          0.2020   -0.9950   -5.5650 hn        1 AIK      0.329500
     41 H7         -0.7240   -0.2800   -7.3680 ha        1 AIK      0.181000
     42 H2         -3.1570    1.8970   -9.4710 hn        1 AIK      0.318500
     43 H1         -2.0430    0.6840  -11.0660 h5        1 AIK      0.031200
     44 H4         -3.8500    2.7800   -7.0070 h4        1 AIK      0.172000
     45 H51        -3.5860    1.5360   -3.6690 h1        1 AIK      0.066367
     46 H52        -2.3180    2.8350   -3.7750 h1        1 AIK      0.066367
     47 H53        -3.9480    3.0860   -4.5890 h1        1 AIK      0.066367
     48 H11         2.0940   -2.7560   -4.8140 h4        1 AIK      0.177000
     49 H121        4.1620   -3.2490   -1.9340 h1        1 AIK      0.066700
     50 H122        2.9050   -4.5600   -1.8380 h1        1 AIK      0.066700
     51 H123        3.6220   -4.1060   -3.4680 h1        1 AIK      0.066700
     52 H16         0.5420   -0.8040    0.3680 hn        1 AIK      0.349500
     53 H26        -1.2640   -0.3030    4.5760 hn        1 AIK      0.318500
     54 H271       -0.7210    0.7520    7.3060 h1        1 AIK      0.061700
     55 H272       -2.3390    0.1100    6.7500 h1        1 AIK      0.061700
     56 H281       -2.5040    1.9710    5.0590 hc        1 AIK      0.054700
     57 H282       -0.8870    2.5980    5.5780 hc        1 AIK      0.054700
     58 H291       -1.6800    2.9720    7.8830 h1        1 AIK      0.031200
     59 H292       -3.2640    2.1520    7.5200 h1        1 AIK      0.031200
     60 H321       -4.3880    5.5480    7.3790 h1        1 AIK      0.031200
     61 H322       -4.6200    3.8970    8.1110 h1        1 AIK      0.031200
     62 H323       -3.2240    4.9410    8.6430 h1        1 AIK      0.031200
     63 H311       -2.7370    5.9340    5.8090 h1        1 AIK      0.031200
     64 H312       -1.3130    5.2720    6.7350 h1        1 AIK      0.031200
     65 H313       -1.7750    4.5470    5.1260 h1        1 AIK      0.031200
     66 H22         2.6630   -1.8070    6.3820 hc        1 AIK      0.101700
     67 H231        2.5890   -4.2040    6.9820 hc        1 AIK      0.038367
     68 H232        1.0490   -3.7170    6.1590 hc        1 AIK      0.038367
     69 H233        2.2950   -4.6770    5.2570 hc        1 AIK      0.038367
     70 H241        4.4950   -3.5100    4.5450 hc        1 AIK      0.038367
     71 H242        4.8020   -1.8230    5.1410 hc        1 AIK      0.038367
     72 H243        4.7430   -3.2030    6.3150 hc        1 AIK      0.038367
@<TRIPOS>BOND
     1    1    2 1   
     2    1   18 2   
     3    1   39 1   
     4    2    3 1   
     5    2   15 2   
     6    3    4 1   
     7    3   40 1   
     8    4    5 1   
     9    4   14 2   
    10    5    6 2   
    11    5   12 1   
    12    6    7 1   
    13    6   41 1   
    14    7    8 1   
    15    7   11 2   
    16    8    9 1   
    17    8   42 1   
    18    9   10 2   
    19    9   43 1   
    20   11   12 1   
    21   11   44 1   
    22   12   13 1   
    23   13   45 1   
    24   13   46 1   
    25   13   47 1   
    26   15   16 1   
    27   15   48 1   
    28   16   17 1   
    29   16   18 1   
    30   17   49 1   
    31   17   50 1   
    32   17   51 1   
    33   18   19 1   
    34   19   20 2   
    35   19   21 1   
    36   21   22 1   
    37   21   52 1   
    38   22   23 2   
    39   22   38 1   
    40   23   24 1   
    41   24   25 1   
    42   24   34 2   
    43   25   26 2   
    44   25   27 1   
    45   27   28 1   
    46   27   53 1   
    47   28   29 1   
    48   28   54 1   
    49   28   55 1   
    50   29   30 1   
    51   29   56 1   
    52   29   57 1   
    53   30   31 1   
    54   30   58 1   
    55   30   59 1   
    56   31   32 1   
    57   31   33 1   
    58   32   60 1   
    59   32   61 1   
    60   32   62 1   
    61   33   63 1   
    62   33   64 1   
    63   33   65 1   
    64   34   35 1   
    65   34   38 1   
    66   35   36 1   
    67   35   37 1   
    68   35   66 1   
    69   36   67 1   
    70   36   68 1   
    71   36   69 1   
    72   37   70 1   
    73   37   71 1   
    74   37   72 1   
@<TRIPOS>SUBSTRUCTURE
     1 AIK         1 TEMP              0 ****  ****    0 ROOT
