@<TRIPOS>MOLECULE
AIK
   77    79     1     0     0
SMALL
bcc


@<TRIPOS>ATOM
      1 C14        -0.3150   -0.0350   -0.8290 cc        1 AIK     -0.039000
      2 C10         0.8580    0.3700   -1.5350 cc        1 AIK     -0.147400
      3 N9          1.2850   -0.0380   -2.8490 n4        1 AIK     -0.505200
      4 C8          2.2760   -1.2160   -2.8590 c         1 AIK      0.595700
      5 C6          3.1360   -1.3000   -4.0180 cc        1 AIK     -0.265900
      6 C7          3.1970   -0.4990   -5.1890 cd        1 AIK     -0.033000
      7 C3          4.2330   -1.0400   -6.0030 cd        1 AIK     -0.149400
      8 N2          4.6760   -0.5800   -7.2920 n4        1 AIK     -0.542200
      9 C1          4.9470    0.9250   -7.3870 c         1 AIK      0.582900
     10 O1          4.3580    1.6570   -6.6250 o         1 AIK     -0.386100
     11 C4          4.7830   -2.1700   -5.3030 cc        1 AIK      0.000700
     12 N5          4.1200   -2.3180   -4.1220 na        1 AIK      0.051900
     13 C5          4.3720   -3.3460   -3.1430 c3        1 AIK     -0.023400
     14 O8          2.2200   -1.9640   -1.8940 o         1 AIK     -0.407100
     15 C11         1.5650    1.2970   -0.6950 cd        1 AIK     -0.003300
     16 N12         0.8640    1.4620    0.4610 na        1 AIK      0.053900
     17 C12         1.2510    2.3180    1.5570 c3        1 AIK     -0.025400
     18 C13        -0.3050    0.6570    0.4110 cd        1 AIK     -0.246900
     19 C15        -1.2300    0.6500    1.5300 c         1 AIK      0.590700
     20 O15        -1.1330    1.2600    2.5840 o         1 AIK     -0.387100
     21 N16        -2.4740   -0.2360    1.3950 n4        1 AIK     -0.614500
     22 C17        -3.6320    0.2980    2.1060 cc        1 AIK      0.322300
     23 N21        -3.9010   -0.0160    3.4010 nd        1 AIK     -0.561000
     24 C20        -5.0350    0.6620    3.7910 cd        1 AIK      0.216800
     25 C25        -5.5720    0.6410    5.1570 c         1 AIK      0.495600
     26 O25        -6.3050    1.4780    5.6550 o         1 AIK     -0.366100
     27 N26        -5.1970   -0.5370    6.0470 n4        1 AIK     -0.665800
     28 C27        -5.9340   -0.4910    7.3530 c3        1 AIK      0.102800
     29 C28        -5.6510   -1.6700    8.2840 c3        1 AIK     -0.127400
     30 C29        -6.4780   -1.4580    9.5580 c3        1 AIK      0.102800
     31 N30        -6.2910   -2.5100   10.6070 n4        1 AIK     -0.677400
     32 C32        -6.7430   -1.9960   11.9380 c3        1 AIK      0.077100
     33 C31        -7.0190   -3.7660   10.2730 c3        1 AIK      0.077100
     34 C19        -5.6260    1.4760    2.7830 cc        1 AIK     -0.043700
     35 C22        -6.8430    2.3180    2.8730 c3        1 AIK     -0.047400
     36 C23        -6.9070    3.2630    1.6850 c3        1 AIK     -0.109600
     37 C24        -8.1000    1.4650    2.9430 c3        1 AIK     -0.109600
     38 S18        -4.7530    1.3910    1.3900 ss        1 AIK      0.278700
     39 H14        -1.0630   -0.7450   -1.1800 ha        1 AIK      0.180000
     40 H9          1.7210    0.7690   -3.3170 hn        1 AIK      0.474800
     41 H7          2.5880    0.3740   -5.4310 ha        1 AIK      0.187000
     42 H2          5.5410   -1.0840   -7.5440 hn        1 AIK      0.484800
     43 H1          5.6790    1.1610   -8.2000 hx        1 AIK      0.180200
     44 H4          5.5980   -2.8470   -5.6090 h4        1 AIK      0.242000
     45 H51         4.6440   -2.8700   -2.1610 h1        1 AIK      0.109700
     46 H52         3.4460   -3.9710   -3.0090 h1        1 AIK      0.109700
     47 H53         5.2190   -4.0010   -3.4900 h1        1 AIK      0.109700
     48 H11         2.5110    1.8270   -0.8850 h4        1 AIK      0.236000
     49 H121        1.3850    1.6980    2.4870 h1        1 AIK      0.112700
     50 H122        2.2180    2.8370    1.3100 h1        1 AIK      0.112700
     51 H123        0.4480    3.0860    1.7360 h1        1 AIK      0.112700
     52 H16        -2.7280   -0.3500    0.4060 hn        1 AIK      0.479800
     53 H26        -4.1830   -0.5110    6.2180 hn        1 AIK      0.471300
     54 H271       -7.0400   -0.4500    7.1130 hx        1 AIK      0.133200
     55 H272       -5.6540    0.4800    7.8620 hx        1 AIK      0.133200
     56 H281       -5.9370   -2.6380    7.7910 hc        1 AIK      0.088200
     57 H282       -4.5570   -1.7170    8.5350 hc        1 AIK      0.088200
     58 H291       -6.1960   -0.4640   10.0190 hx        1 AIK      0.121700
     59 H292       -7.5780   -1.4270    9.3010 hx        1 AIK      0.121700
     60 H321       -7.8270   -1.7030   11.8830 hx        1 AIK      0.121200
     61 H322       -6.1200   -1.1080   12.2320 hx        1 AIK      0.121200
     62 H323       -6.6170   -2.8110   12.7050 hx        1 AIK      0.121200
     63 H311       -8.1270   -3.5720   10.2590 hx        1 AIK      0.121200
     64 H312       -6.7960   -4.5410   11.0610 hx        1 AIK      0.121200
     65 H313       -6.6830   -4.1430    9.2730 hx        1 AIK      0.121200
     66 H22        -6.7800    2.9340    3.8240 hc        1 AIK      0.127700
     67 H231       -7.8850    3.8130    1.6930 hc        1 AIK      0.071533
     68 H232       -6.0900    4.0240    1.7300 hc        1 AIK      0.071533
     69 H233       -6.8460    2.7000    0.7180 hc        1 AIK      0.071533
     70 H241       -8.0480    0.7620    3.8080 hc        1 AIK      0.071533
     71 H242       -8.2490    0.8850    2.0020 hc        1 AIK      0.071533
     72 H243       -8.9880    2.1350    3.0840 hc        1 AIK      0.071533
     73 H92         0.4560   -0.3220   -3.3900 hn        1 AIK      0.474800
     74 H221        3.9550   -0.8210   -7.9950 hn        1 AIK      0.484800
     75 H162       -2.2320   -1.1660    1.7790 hn        1 AIK      0.479800
     76 H262       -5.4160   -1.4100    5.5520 hn        1 AIK      0.471300
     77 H301       -5.2870   -2.7290   10.6780 hn        1 AIK      0.454800
@<TRIPOS>BOND
     1    1    2 1   
     2    1   18 2   
     3    1   39 1   
     4    2    3 1   
     5    2   15 2   
     6    3    4 1   
     7    3   40 1   
     8    3   73 1   
     9    4    5 1   
    10    4   14 2   
    11    5    6 2   
    12    5   12 1   
    13    6    7 1   
    14    6   41 1   
    15    7    8 1   
    16    7   11 2   
    17    8    9 1   
    18    8   42 1   
    19    8   74 1   
    20    9   10 2   
    21    9   43 1   
    22   11   12 1   
    23   11   44 1   
    24   12   13 1   
    25   13   45 1   
    26   13   46 1   
    27   13   47 1   
    28   15   16 1   
    29   15   48 1   
    30   16   17 1   
    31   16   18 1   
    32   17   49 1   
    33   17   50 1   
    34   17   51 1   
    35   18   19 1   
    36   19   20 2   
    37   19   21 1   
    38   21   22 1   
    39   21   52 1   
    40   21   75 1   
    41   22   23 2   
    42   22   38 1   
    43   23   24 1   
    44   24   25 1   
    45   24   34 2   
    46   25   26 2   
    47   25   27 1   
    48   27   28 1   
    49   27   53 1   
    50   27   76 1   
    51   28   29 1   
    52   28   54 1   
    53   28   55 1   
    54   29   30 1   
    55   29   56 1   
    56   29   57 1   
    57   30   31 1   
    58   30   58 1   
    59   30   59 1   
    60   31   32 1   
    61   31   33 1   
    62   31   77 1   
    63   32   60 1   
    64   32   61 1   
    65   32   62 1   
    66   33   63 1   
    67   33   64 1   
    68   33   65 1   
    69   34   35 1   
    70   34   38 1   
    71   35   36 1   
    72   35   37 1   
    73   35   66 1   
    74   36   67 1   
    75   36   68 1   
    76   36   69 1   
    77   37   70 1   
    78   37   71 1   
    79   37   72 1   
@<TRIPOS>SUBSTRUCTURE
     1 AIK         1 TEMP              0 ****  ****    0 ROOT
