@<TRIPOS>MOLECULE
AIK
   74    76     1     0     0
SMALL
bcc


@<TRIPOS>ATOM
      1 C14         0.0900   -0.1790   -0.1070 cc        1 AIK     -0.132000
      2 C10         1.4960   -0.0650   -0.3510 cc        1 AIK      0.006600
      3 N9          2.1620   -0.0820   -1.5650 ns        1 AIK     -0.444100
      4 C8          1.5400   -0.2140   -2.8050 c         1 AIK      0.726700
      5 C6          2.4340   -0.2090   -3.9720 cc        1 AIK     -0.206900
      6 C7          3.8410   -0.0920   -4.0000 cd        1 AIK     -0.141000
      7 C3          4.2400   -0.1420   -5.3770 cd        1 AIK     -0.022400
      8 N2          5.5300   -0.0640   -5.8890 ns        1 AIK     -0.460100
      9 C1          6.6740    0.0790   -5.1290 c         1 AIK      0.670900
     10 O1          6.6820    0.1540   -3.8910 o         1 AIK     -0.598100
     11 C4          3.0520   -0.2890   -6.1490 cc        1 AIK     -0.168300
     12 N5          1.9700   -0.3280   -5.2890 na        1 AIK     -0.003100
     13 C5          0.6020   -0.4680   -5.6830 c3        1 AIK      0.018600
     14 O8          0.2980   -0.3290   -2.9000 o         1 AIK     -0.636100
     15 C11         2.1270    0.0750    0.9230 cd        1 AIK     -0.150300
     16 N12         1.1580    0.0490    1.9050 na        1 AIK     -0.000100
     17 C12         1.3970    0.1610    3.3100 c3        1 AIK      0.016600
     18 C13        -0.0980   -0.1060    1.2950 cd        1 AIK     -0.239900
     19 C15        -1.3440   -0.1740    2.0540 c         1 AIK      0.737700
     20 O15        -1.4130   -0.1240    3.2950 o         1 AIK     -0.593100
     21 N16        -2.5130   -0.3030    1.2620 ns        1 AIK     -0.531400
     22 C17        -3.8020   -0.3920    1.7270 cc        1 AIK      0.591300
     23 N21        -4.2040   -0.3600    3.0080 nd        1 AIK     -0.714000
     24 C20        -5.5990   -0.4820    3.0650 cd        1 AIK      0.194800
     25 C25        -6.2680   -0.4890    4.3460 c         1 AIK      0.513600
     26 O25        -7.4520   -0.5810    4.6360 o         1 AIK     -0.450100
     27 N26        -5.3070   -0.3620    5.5510 ny        1 AIK     -0.672800
     28 C27        -6.0090   -0.3810    6.8550 c3        1 AIK      0.104800
     29 C28        -5.0640   -0.2550    8.0500 c3        1 AIK     -0.131400
     30 C29        -5.9070   -0.3000    9.3240 c3        1 AIK      0.104800
     31 N30        -5.1130   -0.1120   10.5820 nx        1 AIK     -0.678400
     32 C32        -6.0130    0.2720   11.7080 c3        1 AIK      0.079100
     33 C31        -4.3400   -1.3350   10.9340 c3        1 AIK      0.079100
     34 C19        -6.2570   -0.6010    1.8300 cc        1 AIK     -0.049700
     35 C22        -7.7180   -0.7320    1.6140 c3        1 AIK     -0.026400
     36 C23        -8.3950    0.6280    1.6870 c3        1 AIK     -0.099600
     37 C24        -8.0200   -1.4020    0.2860 c3        1 AIK     -0.099600
     38 S18        -5.1490   -0.5750    0.5890 ss        1 AIK      0.035700
     39 H14        -0.6630   -0.3010   -0.8840 ha        1 AIK      0.184000
     40 H9          3.1540    0.0080   -1.5320 hn        1 AIK      0.338500
     41 H7          4.5240    0.0160   -3.1590 ha        1 AIK      0.183000
     42 H2          5.6130   -0.1170   -6.8780 hn        1 AIK      0.324500
     43 H1          7.6030    0.1200   -5.7470 h5        1 AIK      0.044200
     44 H4          2.9310   -0.3650   -7.2300 h4        1 AIK      0.180000
     45 H51         0.1660   -1.3920   -5.2140 h1        1 AIK      0.065367
     46 H52         0.0120    0.4180   -5.3220 h1        1 AIK      0.065367
     47 H53         0.5360   -0.5400   -6.8000 h1        1 AIK      0.065367
     48 H11         3.1870    0.1890    1.1600 h4        1 AIK      0.191000
     49 H121        0.8410    1.0480    3.7180 h1        1 AIK      0.066033
     50 H122        1.0230   -0.7620    3.8320 h1        1 AIK      0.066033
     51 H123        2.4960    0.2830    3.4970 h1        1 AIK      0.066033
     52 H16        -2.3980   -0.3320    0.2680 hn        1 AIK      0.357500
     53 H26        -4.6310   -1.1350    5.4950 hn        1 AIK      0.473300
     54 H271       -6.5920   -1.3470    6.9190 hx        1 AIK      0.120700
     55 H272       -6.7560    0.4680    6.8560 hx        1 AIK      0.120700
     56 H281       -4.4940    0.7120    7.9920 hc        1 AIK      0.086200
     57 H282       -4.3180   -1.0950    8.0440 hc        1 AIK      0.086200
     58 H291       -6.6840    0.5200    9.2860 hx        1 AIK      0.117200
     59 H292       -6.4420   -1.2910    9.4000 hx        1 AIK      0.117200
     60 H321       -6.7860   -0.5280   11.8620 hx        1 AIK      0.115033
     61 H322       -6.5170    1.2480   11.4710 hx        1 AIK      0.115033
     62 H323       -5.4000    0.3860   12.6450 hx        1 AIK      0.115033
     63 H311       -3.7240   -1.1300   11.8540 hx        1 AIK      0.115033
     64 H312       -5.0460   -2.1830   11.1440 hx        1 AIK      0.115033
     65 H313       -3.6600   -1.6080   10.0840 hx        1 AIK      0.115033
     66 H22        -8.1390   -1.3750    2.4460 hc        1 AIK      0.085700
     67 H231       -8.2060    1.1030    2.6790 hc        1 AIK      0.057533
     68 H232       -9.4980    0.4990    1.5570 hc        1 AIK      0.057533
     69 H233       -8.0210    1.3050    0.8820 hc        1 AIK      0.057533
     70 H241       -9.1260   -1.4520    0.1340 hc        1 AIK      0.057533
     71 H242       -7.6150   -2.4430    0.2660 hc        1 AIK      0.057533
     72 H243       -7.5770   -0.8230   -0.5620 hc        1 AIK      0.057533
     73 H262       -4.7790    0.5140    5.4390 hn        1 AIK      0.473300
     74 H301       -4.4440    0.6570   10.4310 hn        1 AIK      0.455800
@<TRIPOS>BOND
     1    1    2 1   
     2    1   18 2   
     3    1   39 1   
     4    2    3 1   
     5    2   15 2   
     6    3    4 1   
     7    3   40 1   
     8    4    5 1   
     9    4   14 2   
    10    5    6 2   
    11    5   12 1   
    12    6    7 1   
    13    6   41 1   
    14    7    8 1   
    15    7   11 2   
    16    8    9 1   
    17    8   42 1   
    18    9   10 2   
    19    9   43 1   
    20   11   12 1   
    21   11   44 1   
    22   12   13 1   
    23   13   45 1   
    24   13   46 1   
    25   13   47 1   
    26   15   16 1   
    27   15   48 1   
    28   16   17 1   
    29   16   18 1   
    30   17   49 1   
    31   17   50 1   
    32   17   51 1   
    33   18   19 1   
    34   19   20 2   
    35   19   21 1   
    36   21   22 1   
    37   21   52 1   
    38   22   23 2   
    39   22   38 1   
    40   23   24 1   
    41   24   25 1   
    42   24   34 2   
    43   25   26 2   
    44   25   27 1   
    45   27   28 1   
    46   27   53 1   
    47   27   73 1   
    48   28   29 1   
    49   28   54 1   
    50   28   55 1   
    51   29   30 1   
    52   29   56 1   
    53   29   57 1   
    54   30   31 1   
    55   30   58 1   
    56   30   59 1   
    57   31   32 1   
    58   31   33 1   
    59   31   74 1   
    60   32   60 1   
    61   32   61 1   
    62   32   62 1   
    63   33   63 1   
    64   33   64 1   
    65   33   65 1   
    66   34   35 1   
    67   34   38 1   
    68   35   36 1   
    69   35   37 1   
    70   35   66 1   
    71   36   67 1   
    72   36   68 1   
    73   36   69 1   
    74   37   70 1   
    75   37   71 1   
    76   37   72 1   
@<TRIPOS>SUBSTRUCTURE
     1 AIK         1 TEMP              0 ****  ****    0 ROOT
