@<TRIPOS>MOLECULE
AIK
   72    63     1     0     0
SMALL
bcc


@<TRIPOS>ATOM
      1 C14         2.3870   -1.0000   -2.2510 c1        1 AIK     -0.098000
      2 C10         3.6380   -1.3590   -2.6580 c1        1 AIK     -0.098000
      3 N9          4.7400   -0.4450   -2.9450 n2        1 AIK     -0.289000
      4 C8          5.9190   -0.4790   -2.1430 c2        1 AIK      0.384000
      5 C6          7.0690    0.4980   -2.4230 c2        1 AIK     -0.139000
      6 C7          7.1080    1.4490   -3.4370 c1        1 AIK     -0.184000
      7 C3          8.3040    2.1150   -3.3440 c1        1 AIK     -0.035000
      8 N2          8.7170    3.1840   -4.1530 n2        1 AIK     -0.309000
      9 C1          9.7990    3.0130   -5.0560 c2        1 AIK      0.264000
     10 O1         10.3700    1.9340   -5.1290 o         1 AIK     -0.359000
     11 C4          9.0090    1.5810   -2.2740 c1        1 AIK     -0.112000
     12 N5          8.2400    0.5840   -1.7110 n2        1 AIK     -0.074000
     13 C5          8.6410   -0.2840   -0.6610 c2        1 AIK     -0.082000
     14 O8          6.0050   -1.2830   -1.2060 o         1 AIK     -0.386000
     15 C11         3.6420   -2.7270   -2.8700 c1        1 AIK     -0.125000
     16 N12         2.3880   -3.2030   -2.5910 n2        1 AIK     -0.074000
     17 C12         2.0270   -4.5420   -2.5210 c2        1 AIK     -0.082000
     18 C13         1.6080   -2.1440   -2.2090 c1        1 AIK     -0.125000
     19 C15         0.1240   -2.2320   -1.7230 c1        1 AIK      0.382000
     20 O15        -0.4720   -3.3310   -1.7360 o         1 AIK     -0.374000
     21 N16        -0.5580   -1.0470   -1.2560 n3        1 AIK     -0.286000
     22 C17        -1.9150   -1.1360   -0.8080 c2        1 AIK     -0.176000
     23 N21        -2.3780   -0.9090    0.5330 n2        1 AIK     -0.160000
     24 C20        -3.9310   -0.9780    0.5390 c1        1 AIK     -0.121000
     25 C25        -4.8310   -0.8390    1.7820 c1        1 AIK      0.377000
     26 O25        -6.0380   -0.9090    1.6690 o         1 AIK     -0.370000
     27 N26        -4.2350   -0.6880    3.0860 n3        1 AIK     -0.354000
     28 C27        -5.0460   -0.2890    4.2120 c3        1 AIK     -0.036000
     29 C28        -4.3140    0.7960    5.0130 c3        1 AIK     -0.189000
     30 C29        -5.3290    1.7540    5.6130 c3        1 AIK     -0.064000
     31 N30        -4.6880    2.9870    5.9390 n3        1 AIK     -0.264000
     32 C32        -5.2210    4.0190    5.1440 c3        1 AIK     -0.120500
     33 C31        -4.9090    3.2840    7.3220 c3        1 AIK     -0.120500
     34 C19        -4.3740   -1.2440   -0.7970 c1        1 AIK     -0.369000
     35 C22        -5.8430   -1.2720   -1.2790 c2        1 AIK     -0.045000
     36 C23        -6.1570    0.0170   -2.0180 c3        1 AIK     -0.210500
     37 C24        -6.0530   -2.4840   -2.2390 c3        1 AIK     -0.210500
     38 S18        -3.1310   -1.3530   -1.6900 ss        1 AIK      0.631000
     39 H14         2.0870   -0.0790   -2.0250 DU        1 AIK      0.179250
     40 H9          4.6830    0.1210   -3.6350 hn        1 AIK      0.239000
     41 H7          6.3950    1.6220   -4.1000 DU        1 AIK      0.179250
     42 H2          8.2490    3.9740   -4.1420 hn        1 AIK      0.234000
     43 H1         10.0940    3.7580   -5.6080 h5        1 AIK      0.126000
     44 H4          9.8880    1.8590   -1.9740 DU        1 AIK      0.179250
     45 H51         8.6690   -1.2100   -0.9950 ha        1 AIK      0.106833
     46 H52         9.5250   -0.0250   -0.3460 ha        1 AIK      0.106833
     47 H53         8.0010   -0.2220    0.0750 ha        1 AIK      0.106833
     48 H11         4.4210   -3.2710   -3.1730 DU        1 AIK      0.179250
     49 H121        2.7730   -5.0850   -2.7630 ha        1 AIK      0.106833
     50 H122        1.7510   -4.7560   -1.6130 ha        1 AIK      0.106833
     51 H123        1.2970   -4.7090   -3.1270 ha        1 AIK      0.106833
     52 H16        -0.1060   -0.2810   -1.1570 hn        1 AIK      0.256000
     53 H26        -3.3340   -0.8250    3.1960 hn        1 AIK      0.232000
     54 H271       -5.9090    0.0660    3.8880 h1        1 AIK      0.101500
     55 H272       -5.2090   -1.0690    4.7910 h1        1 AIK      0.101500
     56 H281       -3.7150    1.2850    4.4250 hc        1 AIK      0.093000
     57 H282       -3.7860    0.3690    5.7450 hc        1 AIK      0.093000
     58 H291       -6.0370    1.9170    4.9710 h1        1 AIK      0.071000
     59 H292       -5.6970    1.3720    6.4020 h1        1 AIK      0.071000
     60 H321       -5.0850    3.8090    4.2130 h1        1 AIK      0.070500
     61 H322       -6.1790    4.1080    5.3200 h1        1 AIK      0.070500
     62 H323       -4.7740    4.8560    5.3570 h1        1 AIK      0.070500
     63 H311       -5.8620    3.0770    7.5580 h1        1 AIK      0.070500
     64 H312       -4.3100    2.7380    7.8740 h1        1 AIK      0.070500
     65 H313       -4.7270    4.2500    7.4910 h1        1 AIK      0.070500
     66 H22        -6.4470   -1.3610   -0.4960 ha        1 AIK      0.124000
     67 H231       -5.7440   -0.0130   -2.9270 hc        1 AIK      0.080333
     68 H232       -7.1220    0.1150   -2.1030 hc        1 AIK      0.080333
     69 H233       -5.7950    0.7770   -1.5200 hc        1 AIK      0.080333
     70 H241       -5.7220   -3.2870   -1.8200 hc        1 AIK      0.080333
     71 H242       -7.0150   -2.5870   -2.4320 hc        1 AIK      0.080333
     72 H243       -5.5690   -2.3290   -3.0740 hc        1 AIK      0.080333
@<TRIPOS>BOND
     1    1    2 1   
     2    1   18 1   
     3    2   15 1   
     4    3    4 1   
     5    3   40 1   
     6    4    5 1   
     7    4   14 1   
     8    5    6 1   
     9    5   12 1   
    10    6    7 1   
    11    7   11 1   
    12    8    9 1   
    13    8   42 1   
    14    9   10 1   
    15    9   43 1   
    16   11   12 1   
    17   13   45 1   
    18   13   46 1   
    19   13   47 1   
    20   15   16 1   
    21   16   18 1   
    22   17   49 1   
    23   17   50 1   
    24   17   51 1   
    25   19   20 1   
    26   19   21 1   
    27   21   22 1   
    28   21   52 1   
    29   22   23 1   
    30   22   38 1   
    31   23   24 1   
    32   24   34 1   
    33   25   26 1   
    34   25   27 1   
    35   27   28 1   
    36   27   53 1   
    37   28   29 1   
    38   28   54 1   
    39   28   55 1   
    40   29   30 1   
    41   29   56 1   
    42   29   57 1   
    43   30   31 1   
    44   30   58 1   
    45   30   59 1   
    46   31   32 1   
    47   31   33 1   
    48   32   60 1   
    49   32   61 1   
    50   32   62 1   
    51   33   63 1   
    52   33   64 1   
    53   33   65 1   
    54   34   38 1   
    55   35   36 1   
    56   35   37 1   
    57   35   66 1   
    58   36   67 1   
    59   36   68 1   
    60   36   69 1   
    61   37   70 1   
    62   37   71 1   
    63   37   72 1   
@<TRIPOS>SUBSTRUCTURE
     1 AIK         1 TEMP              0 ****  ****    0 ROOT
