@<TRIPOS>MOLECULE
AIL
   39    41     1     0     0
SMALL
bcc


@<TRIPOS>ATOM
      1 C1          3.0540    3.0660   -0.2960 c3        1 AIL      0.151800
      2 N2          1.8870    2.4290    0.3040 n3        1 AIL     -0.790200
      3 C3          1.3170    1.4880   -0.6620 c3        1 AIL      0.102500
      4 C4          2.2320    1.4160   -1.9070 c3        1 AIL     -0.094400
      5 C5          3.3100    2.4790   -1.7010 c3        1 AIL     -0.109700
      6 C6          4.7330    1.9170   -1.7910 c3        1 AIL      0.088000
      7 C7          1.1190    0.0730   -0.0950 c         1 AIL      0.652100
      8 O8          1.8200   -0.3570    0.8430 o         1 AIL     -0.605100
      9 N9          0.1240   -0.7260   -0.6330 n         1 AIL     -0.477800
     10 C10        -0.0580   -2.0910   -0.1730 c3        1 AIL      0.091000
     11 C11        -0.7370   -2.9420   -1.2420 c3        1 AIL     -0.016300
     12 S12        -1.3670   -1.8490   -2.4950 ss        1 AIL     -0.310200
     13 C13        -0.6530   -0.3590   -1.7820 c3        1 AIL      0.177100
     14 N14         5.0970    1.4060   -3.0830 n         1 AIL     -0.548900
     15 C15         5.8670    2.1350   -3.9650 c         1 AIL      0.592600
     16 O16         6.4080    3.2120   -3.6350 o         1 AIL     -0.611100
     17 N17         5.3850    0.4980   -5.8530 nc        1 AIL     -0.618000
     18 C18         5.8120    0.2570   -7.0850 cd        1 AIL      0.362300
     19 S19         7.0530    1.2980   -7.6410 ss        1 AIL     -0.054300
     20 C20         7.0410    2.1240   -6.1950 cd        1 AIL     -0.188400
     21 C21         6.0930    1.5790   -5.3290 cc        1 AIL      0.272800
     22 H11         3.9650    2.9600    0.3550 h1        1 AIL      0.053200
     23 H12         2.8220    4.1640   -0.3830 h1        1 AIL      0.053200
     24 HN2         2.1350    1.9560    1.1570 hn        1 AIL      0.380800
     25 H3          0.3110    1.9150   -0.9490 h1        1 AIL      0.080700
     26 H41         2.6790    0.3960   -2.0070 hc        1 AIL      0.055200
     27 H42         1.6410    1.6260   -2.8320 hc        1 AIL      0.055200
     28 H5          3.1890    3.2930   -2.4640 hc        1 AIL      0.071700
     29 H61         4.8390    1.0750   -1.0470 h1        1 AIL      0.069700
     30 H62         5.4570    2.7360   -1.5090 h1        1 AIL      0.069700
     31 H101       -0.6900   -2.0720    0.7600 h1        1 AIL      0.071700
     32 H102        0.9460   -2.5240    0.1030 h1        1 AIL      0.071700
     33 H111       -0.0160   -3.6570   -1.7040 h1        1 AIL      0.081700
     34 H112       -1.5800   -3.5260   -0.8040 h1        1 AIL      0.081700
     35 H131       -1.4910    0.3310   -1.4920 h2        1 AIL      0.071200
     36 H132       -0.0230    0.1470   -2.5610 h2        1 AIL      0.071200
     37 HN14        4.5890    0.6200   -3.4150 hn        1 AIL      0.324500
     38 H20         7.6740    2.9770   -5.9420 h4        1 AIL      0.207000
     39 H18         5.3930   -0.5530   -7.6890 h5        1 AIL      0.060100
@<TRIPOS>BOND
     1    1    2 1   
     2    1    5 1   
     3    1   22 1   
     4    1   23 1   
     5    2    3 1   
     6    2   24 1   
     7    3    4 1   
     8    3    7 1   
     9    3   25 1   
    10    4    5 1   
    11    4   26 1   
    12    4   27 1   
    13    5    6 1   
    14    5   28 1   
    15    6   14 1   
    16    6   29 1   
    17    6   30 1   
    18    7    8 2   
    19    7    9 1   
    20    9   10 1   
    21    9   13 1   
    22   10   11 1   
    23   10   31 1   
    24   10   32 1   
    25   11   12 1   
    26   11   33 1   
    27   11   34 1   
    28   12   13 1   
    29   13   35 1   
    30   13   36 1   
    31   14   15 1   
    32   14   37 1   
    33   15   16 2   
    34   15   21 1   
    35   17   18 2   
    36   17   21 1   
    37   18   19 1   
    38   18   39 1   
    39   19   20 1   
    40   20   21 2   
    41   20   38 1   
@<TRIPOS>SUBSTRUCTURE
     1 AIL         1 TEMP              0 ****  ****    0 ROOT
