@<TRIPOS>MOLECULE
AIL
   39    39     1     0     0
SMALL
bcc


@<TRIPOS>ATOM
      1 C1         -0.0810    1.2870   -1.6620 c3        1 AIL     -0.090000
      2 N2          1.0220    1.9040   -1.4040 n3        1 AIL     -0.264000
      3 C3          1.3640    1.6270    0.1500 c3        1 AIL     -0.054000
      4 C4          0.1400    1.6370    0.7370 c3        1 AIL     -0.180000
      5 C5         -0.8420    1.2250   -0.3420 c3        1 AIL     -0.155000
      6 C6         -1.3260   -0.1570   -0.0930 c3        1 AIL     -0.025000
      7 C7          2.0870    0.3400    0.2720 c2        1 AIL      0.299000
      8 O8          1.5240   -0.7040   -0.0060 o         1 AIL     -0.360000
      9 N9          3.4400    0.3200    0.7630 n         1 AIL     -0.326000
     10 C10         4.4250   -1.0780    1.0210 c3        1 AIL     -0.031000
     11 C11         5.7330   -0.7250    0.6380 c3        1 AIL     -0.279000
     12 S12         5.8150    0.9190    0.8650 ss        1 AIL      0.051000
     13 C13         4.1990    1.4070    1.1150 c3        1 AIL     -0.126000
     14 N14        -2.7730   -0.1480    0.0250 n         1 AIL     -0.356000
     15 C15        -3.5660   -0.9390   -0.8600 c2        1 AIL      0.376000
     16 O16        -3.1160   -1.2850   -1.9320 o         1 AIL     -0.375000
     17 N17        -5.0810   -2.8850    0.0910 n2        1 AIL     -0.090000
     18 C18        -6.4590   -3.2540    0.0520 c1        1 AIL     -0.351000
     19 S19        -7.2560   -2.0520   -0.4830 ss        1 AIL      0.527000
     20 C20        -6.2610   -0.9320   -0.7650 c1        1 AIL     -0.393000
     21 C21        -4.9480   -1.4120   -0.4260 c2        1 AIL     -0.144000
     22 H11        -0.6010    1.7870   -2.3300 h1        1 AIL      0.096000
     23 H12         0.1050    0.3880   -1.9850 h1        1 AIL      0.096000
     24 HN2         1.6890    1.5650   -1.9270 hn        1 AIL      0.154000
     25 H3          1.9790    2.2360    0.6020 h1        1 AIL      0.117000
     26 H41        -0.0720    2.5410    1.0610 hc        1 AIL      0.106500
     27 H42         0.1160    0.9980    1.4770 hc        1 AIL      0.106500
     28 H5         -1.6000    1.8480   -0.3620 hc        1 AIL      0.110000
     29 H61        -1.0630   -0.7310   -0.8330 h1        1 AIL      0.107000
     30 H62        -0.9340   -0.4940    0.7360 h1        1 AIL      0.107000
     31 H101        4.4090   -1.3300    1.9710 h1        1 AIL      0.111500
     32 H102        4.1050   -1.8170    0.4740 h1        1 AIL      0.111500
     33 H111        5.8820   -0.9440   -0.2940 h1        1 AIL      0.120000
     34 H112        6.3930   -1.1840    1.2100 h1        1 AIL      0.120000
     35 H131        4.0530    1.6320    2.0580 h2        1 AIL      0.119000
     36 H132        3.9830    2.1710    0.5450 h2        1 AIL      0.119000
     37 HN14       -3.1800    0.4080    0.6290 hn        1 AIL      0.241000
     38 H18        -6.8300   -4.1170    0.3180 DU        1 AIL      0.202000
     39 H20        -6.4750   -0.0500   -1.1110 DU        1 AIL      0.202000
@<TRIPOS>BOND
     1    1    2 1   
     2    1    5 1   
     3    1   22 1   
     4    1   23 1   
     5    2    3 1   
     6    2   24 1   
     7    3    4 1   
     8    3    7 1   
     9    3   25 1   
    10    4    5 1   
    11    4   26 1   
    12    4   27 1   
    13    5    6 1   
    14    5   28 1   
    15    6   14 1   
    16    6   29 1   
    17    6   30 1   
    18    7    8 1   
    19    7    9 1   
    20    9   10 1   
    21    9   13 1   
    22   10   11 1   
    23   10   31 1   
    24   10   32 1   
    25   11   12 1   
    26   11   33 1   
    27   11   34 1   
    28   12   13 1   
    29   13   35 1   
    30   13   36 1   
    31   14   15 1   
    32   14   37 1   
    33   15   16 1   
    34   15   21 1   
    35   17   18 1   
    36   17   21 1   
    37   18   19 1   
    38   19   20 1   
    39   20   21 1   
@<TRIPOS>SUBSTRUCTURE
     1 AIL         1 TEMP              0 ****  ****    0 ROOT
