@<TRIPOS>MOLECULE
AIL
   40    42     1     0     0
SMALL
bcc


@<TRIPOS>ATOM
      1 C1          0.6730    0.5940   -0.2590 c3        1 AIL      0.155800
      2 N2          1.8490   -0.0090    0.3680 n7        1 AIL     -0.811200
      3 C3          2.1120    0.6850    1.6330 c3        1 AIL      0.097500
      4 C4          1.1410    1.8870    1.7170 c3        1 AIL     -0.100400
      5 C5         -0.0190    1.4980    0.7980 c3        1 AIL     -0.096700
      6 C6         -1.1180    0.6610    1.4540 c3        1 AIL      0.120800
      7 C7          1.8490   -0.2660    2.8220 c         1 AIL      0.692100
      8 O8          0.8110   -0.1320    3.5210 o         1 AIL     -0.709100
      9 N9          2.7580   -1.2430    3.1150 n         1 AIL     -0.437800
     10 C10         2.5490   -2.1350    4.2490 c3        1 AIL      0.091000
     11 C11         3.7750   -3.0050    4.4950 c3        1 AIL     -0.026300
     12 S12         4.9180   -2.7550    3.1590 ss        1 AIL     -0.251200
     13 C13         3.9480   -1.4880    2.3420 c3        1 AIL      0.154100
     14 N14        -1.6080    1.1440    2.7750 ny        1 AIL     -0.654800
     15 C15        -2.3880    2.4290    2.7300 c         1 AIL      0.488600
     16 O16        -2.5280    2.9780    1.6420 o         1 AIL     -0.441100
     17 N17        -2.7420    2.1810    5.1990 nc        1 AIL     -0.616000
     18 C18        -3.3300    2.8510    6.1810 cd        1 AIL      0.365300
     19 S19        -4.0830    4.3150    5.7120 ss        1 AIL      0.127700
     20 C20        -3.6340    4.0900    4.1440 cd        1 AIL     -0.176400
     21 C21        -2.9120    2.8930    4.0090 cc        1 AIL      0.192800
     22 H11        -0.0000   -0.2380   -0.6020 h1        1 AIL      0.067200
     23 H12         0.9380    1.2170   -1.1570 h1        1 AIL      0.067200
     24 HN2         2.6460    0.0230   -0.2370 hn        1 AIL      0.387800
     25 H3          3.1770    1.0480    1.7010 h1        1 AIL      0.083700
     26 H41         0.8620    2.1120    2.7710 hc        1 AIL      0.072200
     27 H42         1.6460    2.7990    1.3050 hc        1 AIL      0.072200
     28 H5         -0.4740    2.4030    0.3190 hc        1 AIL      0.097700
     29 H61        -0.7200   -0.3830    1.6450 hx        1 AIL      0.111700
     30 H62        -2.0000    0.6120    0.7540 hx        1 AIL      0.111700
     31 H101        2.3150   -1.5090    5.1570 h1        1 AIL      0.072200
     32 H102        1.6480   -2.7790    4.0370 h1        1 AIL      0.072200
     33 H111        3.4910   -4.0840    4.5390 h1        1 AIL      0.092700
     34 H112        4.2680   -2.7350    5.4590 h1        1 AIL      0.092700
     35 H131        4.5700   -0.5570    2.2580 h2        1 AIL      0.077700
     36 H132        3.6900   -1.8440    1.3090 h2        1 AIL      0.077700
     37 HN14       -0.7950    1.2510    3.4130 hn        1 AIL      0.486800
     38 H18        -3.3220    2.4730    7.2120 h5        1 AIL      0.088100
     39 H142       -2.2090    0.4160    3.1850 hn        1 AIL      0.486800
     40 H20        -3.8580    4.7640    3.3100 h4        1 AIL      0.219000
@<TRIPOS>BOND
     1    1    2 1   
     2    1    5 1   
     3    1   22 1   
     4    1   23 1   
     5    2    3 1   
     6    2   24 1   
     7    3    4 1   
     8    3    7 1   
     9    3   25 1   
    10    4    5 1   
    11    4   26 1   
    12    4   27 1   
    13    5    6 1   
    14    5   28 1   
    15    6   14 1   
    16    6   29 1   
    17    6   30 1   
    18    7    8 2   
    19    7    9 1   
    20    9   10 1   
    21    9   13 1   
    22   10   11 1   
    23   10   31 1   
    24   10   32 1   
    25   11   12 1   
    26   11   33 1   
    27   11   34 1   
    28   12   13 1   
    29   13   35 1   
    30   13   36 1   
    31   14   15 1   
    32   14   37 1   
    33   14   39 1   
    34   15   16 2   
    35   15   21 1   
    36   17   18 2   
    37   17   21 1   
    38   18   19 1   
    39   18   38 1   
    40   19   20 1   
    41   20   21 2   
    42   20   40 1   
@<TRIPOS>SUBSTRUCTURE
     1 AIL         1 TEMP              0 ****  ****    0 ROOT
