@<TRIPOS>MOLECULE
AIL
   40    42     1     0     0
SMALL
bcc


@<TRIPOS>ATOM
      1 C1          0.6710    0.5720   -0.2600 c3        1 AIL      0.155800
      2 N2          1.8440   -0.0320    0.3710 n3        1 AIL     -0.811200
      3 C3          2.1110    0.6710    1.6300 c3        1 AIL      0.097500
      4 C4          1.1460    1.8770    1.7070 c3        1 AIL     -0.100400
      5 C5         -0.0170    1.4860    0.7910 c3        1 AIL     -0.096700
      6 C6         -1.1180    0.6580    1.4550 c3        1 AIL      0.120800
      7 C7          1.8460   -0.2700    2.8270 c         1 AIL      0.692100
      8 O8          0.8090   -0.1280    3.5250 o         1 AIL     -0.709100
      9 N9          2.7510   -1.2490    3.1260 n         1 AIL     -0.437800
     10 C10         2.5400   -2.1320    4.2660 c3        1 AIL      0.091000
     11 C11         3.7620   -3.0060    4.5170 c3        1 AIL     -0.026300
     12 S12         4.9050   -2.7690    3.1790 ss        1 AIL     -0.250200
     13 C13         3.9400   -1.5040    2.3540 c3        1 AIL      0.154100
     14 N14        -1.6060    1.1530    2.7730 n4        1 AIL     -0.654800
     15 C15        -2.3800    2.4410    2.7190 c         1 AIL      0.488600
     16 O16        -2.5190    2.9820    1.6270 o         1 AIL     -0.441100
     17 N17        -2.7330    2.2110    5.1900 nc        1 AIL     -0.616000
     18 C18        -3.3180    2.8910    6.1670 cd        1 AIL      0.365300
     19 S19        -4.0660    4.3540    5.6880 ss        1 AIL      0.127700
     20 C20        -3.6180    4.1160    4.1220 cd        1 AIL     -0.176400
     21 C21        -2.9010    2.9160    3.9950 cc        1 AIL      0.192800
     22 H11         0.9360    1.1880   -1.1630 h1        1 AIL      0.067200
     23 H12        -0.0070   -0.2600   -0.5950 h1        1 AIL      0.067200
     24 HN2         2.6410   -0.0070   -0.2350 hn        1 AIL      0.387800
     25 H3          3.1780    1.0300    1.6950 h1        1 AIL      0.083700
     26 H41         1.6530    2.7840    1.2880 hc        1 AIL      0.072200
     27 H42         0.8680    2.1110    2.7590 hc        1 AIL      0.072200
     28 H5         -0.4690    2.3900    0.3070 hc        1 AIL      0.097700
     29 H61        -2.0020    0.6080    0.7560 hx        1 AIL      0.111700
     30 H62        -0.7250   -0.3860    1.6530 hx        1 AIL      0.111700
     31 H101        1.6350   -2.7730    4.0590 h1        1 AIL      0.072200
     32 H102        2.3100   -1.4990    5.1700 h1        1 AIL      0.072200
     33 H111        4.2580   -2.7310    5.4790 h1        1 AIL      0.092700
     34 H112        3.4740   -4.0830    4.5690 h1        1 AIL      0.092700
     35 H131        3.6800   -1.8660    1.3230 h2        1 AIL      0.077700
     36 H132        4.5650   -0.5760    2.2640 h2        1 AIL      0.077700
     37 HN14       -2.2090    0.4300    3.1880 hn        1 AIL      0.486800
     38 H18        -3.3110    2.5200    7.2010 h5        1 AIL      0.088100
     39 H142       -0.7910    1.2610    3.4100 hn        1 AIL      0.486800
     40 H20        -3.8400    4.7850    3.2840 h4        1 AIL      0.219000
@<TRIPOS>BOND
     1    1    2 1   
     2    1    5 1   
     3    1   22 1   
     4    1   23 1   
     5    2    3 1   
     6    2   24 1   
     7    3    4 1   
     8    3    7 1   
     9    3   25 1   
    10    4    5 1   
    11    4   26 1   
    12    4   27 1   
    13    5    6 1   
    14    5   28 1   
    15    6   14 1   
    16    6   29 1   
    17    6   30 1   
    18    7    8 2   
    19    7    9 1   
    20    9   10 1   
    21    9   13 1   
    22   10   11 1   
    23   10   31 1   
    24   10   32 1   
    25   11   12 1   
    26   11   33 1   
    27   11   34 1   
    28   12   13 1   
    29   13   35 1   
    30   13   36 1   
    31   14   15 1   
    32   14   37 1   
    33   14   39 1   
    34   15   16 2   
    35   15   21 1   
    36   17   18 2   
    37   17   21 1   
    38   18   19 1   
    39   18   38 1   
    40   19   20 1   
    41   20   21 2   
    42   20   40 1   
@<TRIPOS>SUBSTRUCTURE
     1 AIL         1 TEMP              0 ****  ****    0 ROOT
