@<TRIPOS>MOLECULE
AIL
   40    42     1     0     0
SMALL
bcc


@<TRIPOS>ATOM
      1 C1          0.6040    0.4960   -0.2600 c3        1 AIL      0.155800
      2 N2          1.7840   -0.1070    0.3580 n3        1 AIL     -0.811200
      3 C3          2.0880    0.6220    1.5940 c3        1 AIL      0.097500
      4 C4          1.1390    1.8410    1.6630 c3        1 AIL     -0.100400
      5 C5         -0.0480    1.4430    0.7840 c3        1 AIL     -0.096700
      6 C6         -1.1440    0.6440    1.4920 c3        1 AIL      0.120800
      7 C7          1.8390   -0.2870    2.8180 c         1 AIL      0.692100
      8 O8          0.8210   -0.1160    3.5370 o         1 AIL     -0.709100
      9 N9          2.7400   -1.2700    3.1200 n         1 AIL     -0.437800
     10 C10         2.5440   -2.1230    4.2860 c3        1 AIL      0.091000
     11 C11         3.7620   -3.0040    4.5300 c3        1 AIL     -0.026300
     12 S12         4.8760   -2.8140    3.1610 ss        1 AIL     -0.251200
     13 C13         3.9070   -1.5580    2.3280 c3        1 AIL      0.154100
     14 N14        -1.5950    1.1760    2.8080 n4        1 AIL     -0.654800
     15 C15        -2.3560    2.4710    2.7410 c         1 AIL      0.488600
     16 O16        -2.5130    2.9880    1.6410 o         1 AIL     -0.441100
     17 N17        -2.6550    2.3050    5.2250 nc        1 AIL     -0.616000
     18 C18        -3.2090    3.0150    6.1980 cd        1 AIL      0.365300
     19 S19        -3.9500    4.4750    5.7020 ss        1 AIL      0.127700
     20 C20        -3.5420    4.1950    4.1310 cd        1 AIL     -0.176400
     21 C21        -2.8420    2.9830    4.0170 cc        1 AIL      0.192800
     22 H11         0.8560    1.0870   -1.1830 h1        1 AIL      0.067200
     23 H12        -0.0900   -0.3350   -0.5600 h1        1 AIL      0.067200
     24 HN2         2.5670   -0.1060   -0.2660 hn        1 AIL      0.387800
     25 H3          3.1610    0.9690    1.6260 h1        1 AIL      0.083700
     26 H41         1.6480    2.7320    1.2120 hc        1 AIL      0.072200
     27 H42         0.8890    2.1030    2.7160 hc        1 AIL      0.072200
     28 H5         -0.5010    2.3400    0.2880 hc        1 AIL      0.097700
     29 H61        -0.7580   -0.3990    1.7060 hx        1 AIL      0.111700
     30 H62        -2.0440    0.5890    0.8150 hx        1 AIL      0.111700
     31 H101        1.6290   -2.7590    4.1150 h1        1 AIL      0.072200
     32 H102        2.3410   -1.4660    5.1790 h1        1 AIL      0.072200
     33 H111        4.2830   -2.7120    5.4740 h1        1 AIL      0.092700
     34 H112        3.4640   -4.0770    4.6150 h1        1 AIL      0.092700
     35 H131        4.5410   -0.6400    2.1990 h2        1 AIL      0.077700
     36 H132        3.6180   -1.9420    1.3120 h2        1 AIL      0.077700
     37 HN14       -0.7650    1.2900    3.4240 hn        1 AIL      0.486800
     38 H18        -3.1820    2.6690    7.2410 h5        1 AIL      0.088100
     39 H142       -2.1970    0.4710    3.2550 hn        1 AIL      0.486800
     40 H20        -3.7760    4.8460    3.2830 h4        1 AIL      0.219000
@<TRIPOS>BOND
     1    1    2 1   
     2    1    5 1   
     3    1   22 1   
     4    1   23 1   
     5    2    3 1   
     6    2   24 1   
     7    3    4 1   
     8    3    7 1   
     9    3   25 1   
    10    4    5 1   
    11    4   26 1   
    12    4   27 1   
    13    5    6 1   
    14    5   28 1   
    15    6   14 1   
    16    6   29 1   
    17    6   30 1   
    18    7    8 2   
    19    7    9 1   
    20    9   10 1   
    21    9   13 1   
    22   10   11 1   
    23   10   31 1   
    24   10   32 1   
    25   11   12 1   
    26   11   33 1   
    27   11   34 1   
    28   12   13 1   
    29   13   35 1   
    30   13   36 1   
    31   14   15 1   
    32   14   37 1   
    33   14   39 1   
    34   15   16 2   
    35   15   21 1   
    36   17   18 2   
    37   17   21 1   
    38   18   19 1   
    39   18   38 1   
    40   19   20 1   
    41   20   21 2   
    42   20   40 1   
@<TRIPOS>SUBSTRUCTURE
     1 AIL         1 TEMP              0 ****  ****    0 ROOT
