@<TRIPOS>MOLECULE
AIM
   29    30     1     0     0
SMALL
bcc


@<TRIPOS>ATOM
      1 C01         0.0450    0.0020   -0.0710 c3        1 AIM     -0.102900
      2 C02         1.5770   -0.0240   -0.0580 c3        1 AIM      0.113500
      3 C03         2.0660    0.1490    1.3830 c3        1 AIM     -0.102900
      4 C04         1.5500   -0.9800    2.2540 c3        1 AIM     -0.082200
      5 C05         0.0860   -1.2200    2.1330 c2        1 AIM      0.117600
      6 C06        -0.5020   -1.1370    0.7680 c3        1 AIM     -0.082200
      7 N20         2.1520    1.0300   -0.9640 n4        1 AIM     -0.839600
      8 C22        -0.6730   -1.6030    3.1960 cc        1 AIM      0.086000
      9 N23        -0.2040   -1.7800    4.5410 nc        1 AIM     -0.587000
     10 C24        -1.2950   -2.1820    5.2120 cd        1 AIM      0.631900
     11 N25        -2.5220   -2.2970    4.4230 nd        1 AIM     -0.629000
     12 C26        -2.1410   -1.9450    3.2100 cc        1 AIM      0.392900
     13 N27        -1.3310   -2.5050    6.6390 n4        1 AIM     -0.795300
     14 HC11       -0.3470   -0.1100   -1.1180 hc        1 AIM      0.087950
     15 HC12       -0.3280    0.9820    0.3330 hc        1 AIM      0.087950
     16 HC21        1.9410   -1.0180   -0.4640 hx        1 AIM      0.120700
     17 HC31        3.1890    0.1410    1.4260 hc        1 AIM      0.087950
     18 HC32        1.7130    1.1330    1.7940 hc        1 AIM      0.087950
     19 HC41        2.0690   -1.9450    1.9800 hc        1 AIM      0.109700
     20 HC42        1.8450   -0.7500    3.3170 hc        1 AIM      0.109700
     21 HC61       -1.6210   -1.0220    0.8110 hc        1 AIM      0.109700
     22 HC62       -0.2960   -2.1210    0.2530 hc        1 AIM      0.109700
     23 HN11        3.1770    0.9800   -0.9480 hn        1 AIM      0.469467
     24 HN12        1.8610    1.9640   -0.6540 hn        1 AIM      0.469467
     25 H261       -2.8220   -1.9190    2.3500 h4        1 AIM      0.087100
     26 HN21       -2.0180   -1.8900    7.1010 hn        1 AIM      0.491133
     27 HN22       -0.4040   -2.3750    7.0660 hn        1 AIM      0.491133
     28 H203        1.8210    0.8820   -1.9240 hn        1 AIM      0.469467
     29 H273       -1.6310   -3.4860    6.7490 hn        1 AIM      0.491133
@<TRIPOS>BOND
     1    1    2 1   
     2    1    6 1   
     3    1   14 1   
     4    1   15 1   
     5    2    3 1   
     6    2    7 1   
     7    2   16 1   
     8    3    4 1   
     9    3   17 1   
    10    3   18 1   
    11    4    5 1   
    12    4   19 1   
    13    4   20 1   
    14    5    6 1   
    15    5    8 2   
    16    6   21 1   
    17    6   22 1   
    18    7   23 1   
    19    7   24 1   
    20    7   28 1   
    21    8    9 1   
    22    8   12 1   
    23    9   10 2   
    24   10   11 1   
    25   10   13 1   
    26   11   12 2   
    27   12   25 1   
    28   13   26 1   
    29   13   27 1   
    30   13   29 1   
@<TRIPOS>SUBSTRUCTURE
     1 AIM         1 TEMP              0 ****  ****    0 ROOT
