@<TRIPOS>MOLECULE
AIM
   27    28     1     0     0
SMALL
bcc


@<TRIPOS>ATOM
      1 C01         1.1550    0.3040    2.4270 c3        1 AIM     -0.093900
      2 C02        -0.1300   -0.0740    3.1840 c3        1 AIM      0.161500
      3 C03        -1.3270    0.1720    2.2550 c3        1 AIM     -0.093900
      4 C04        -1.2040   -0.6420    0.9820 c3        1 AIM     -0.052200
      5 C05         0.0940   -0.4100    0.2890 c2        1 AIM      0.000600
      6 C06         1.2990   -0.5130    1.1590 c3        1 AIM     -0.052200
      7 N20        -0.2940    0.5840    4.4660 n3        1 AIM     -0.901800
      8 C22         0.1810   -0.1720   -1.0390 cc        1 AIM      0.141000
      9 N23        -0.9050   -0.0880   -1.9680 nc        1 AIM     -0.744000
     10 C24        -0.3230    0.1760   -3.1620 cd        1 AIM      0.799900
     11 N25         1.1610    0.2580   -3.1040 nd        1 AIM     -0.686000
     12 C26         1.4420    0.0530   -1.8410 cc        1 AIM      0.341900
     13 N27        -0.9920    0.4430   -4.3480 nh        1 AIM     -0.908500
     14 HC11        1.1360    1.3950    2.1720 hc        1 AIM      0.049700
     15 HC12        2.0500    0.1220    3.0770 hc        1 AIM      0.049700
     16 HC21       -0.0830   -1.1840    3.4060 h1        1 AIM      0.059700
     17 HC31       -2.2780   -0.1120    2.7770 hc        1 AIM      0.049700
     18 HC32       -1.3920    1.2620    2.0000 hc        1 AIM      0.049700
     19 HC41       -1.2690   -1.7390    1.2290 hc        1 AIM      0.062200
     20 HC42       -2.0740   -0.4000    0.3160 hc        1 AIM      0.062200
     21 HC61        1.4390   -1.5970    1.4270 hc        1 AIM      0.062200
     22 HC62        2.2250   -0.1820    0.6190 hc        1 AIM      0.062200
     23 HN11        0.5380    0.4840    5.0140 hn        1 AIM      0.347300
     24 HN12       -0.4880    1.5590    4.3450 hn        1 AIM      0.347300
     25 H261        2.4570    0.0450   -1.4360 h4        1 AIM      0.043100
     26 HN21       -0.4570    0.3290   -5.1780 hn        1 AIM      0.421800
     27 HN22       -1.9330    0.1250   -4.3920 hn        1 AIM      0.421800
@<TRIPOS>BOND
     1    1    2 1   
     2    1    6 1   
     3    1   14 1   
     4    1   15 1   
     5    2    3 1   
     6    2    7 1   
     7    2   16 1   
     8    3    4 1   
     9    3   17 1   
    10    3   18 1   
    11    4    5 1   
    12    4   19 1   
    13    4   20 1   
    14    5    6 1   
    15    5    8 2   
    16    6   21 1   
    17    6   22 1   
    18    7   23 1   
    19    7   24 1   
    20    8    9 1   
    21    8   12 1   
    22    9   10 2   
    23   10   11 1   
    24   10   13 1   
    25   11   12 2   
    26   12   25 1   
    27   13   26 1   
    28   13   27 1   
@<TRIPOS>SUBSTRUCTURE
     1 AIM         1 TEMP              0 ****  ****    0 ROOT
