@<TRIPOS>MOLECULE
AIM
   27    26     1     0     0
SMALL
bcc


@<TRIPOS>ATOM
      1 C01        -0.2430    1.0690   -2.1240 c3        1 AIM     -0.152500
      2 C02         1.2470    1.0330   -2.1050 c3        1 AIM     -0.027000
      3 C03         1.8240    0.9850   -0.7250 c3        1 AIM     -0.152500
      4 C04         1.2660   -0.1300    0.1410 c3        1 AIM     -0.137500
      5 C05        -0.2870   -0.0600    0.1100 c2        1 AIM      0.012000
      6 C06        -0.8990   -0.0430   -1.3230 c3        1 AIM     -0.137500
      7 N20         1.7530    2.2360   -2.7840 n3        1 AIM     -0.345000
      8 C22        -1.0090   -0.5600    1.1520 c1        1 AIM     -0.123000
      9 N23        -0.9190   -1.9340    1.6830 n1        1 AIM     -0.219000
     10 C24        -1.2150   -1.9380    3.0810 c1        1 AIM      0.081000
     11 N25        -1.5010   -0.6670    3.5000 n1        1 AIM     -0.160000
     12 C26        -1.4050    0.2110    2.4320 c2        1 AIM     -0.057000
     13 N27        -1.8800   -3.0400    3.6610 n3        1 AIM     -0.307000
     14 HC11       -0.5380    1.9270   -1.7630 hc        1 AIM      0.093250
     15 HC12       -0.5450    1.0010   -3.0600 hc        1 AIM      0.093250
     16 HC21        1.5480    0.2440   -2.5980 h1        1 AIM      0.045000
     17 HC31        1.6450    1.8440   -0.2810 hc        1 AIM      0.093250
     18 HC32        2.7940    0.8680   -0.7970 hc        1 AIM      0.093250
     19 HC41        1.7150   -0.9850   -0.0160 hc        1 AIM      0.100250
     20 HC42        1.5150    0.0250    1.0840 hc        1 AIM      0.100250
     21 HC61       -0.9620   -0.9650   -1.6540 hc        1 AIM      0.100250
     22 HC62       -1.8520    0.2040   -1.3100 hc        1 AIM      0.100250
     23 HN11        1.4310    2.2610   -3.6410 hn        1 AIM      0.146500
     24 HN12        2.6800    2.2130   -2.8030 hn        1 AIM      0.146500
     25 H261       -1.9990    0.9650    2.3750 h4        1 AIM      0.180000
     26 HN21       -1.4010   -3.7750    3.9250 hn        1 AIM      0.216500
     27 HN22       -2.7630   -2.9900    3.8400 hn        1 AIM      0.216500
@<TRIPOS>BOND
     1    1    2 1   
     2    1    6 1   
     3    1   14 1   
     4    1   15 1   
     5    2    3 1   
     6    2    7 1   
     7    2   16 1   
     8    3    4 1   
     9    3   17 1   
    10    3   18 1   
    11    4    5 1   
    12    4   19 1   
    13    4   20 1   
    14    5    6 1   
    15    5    8 1   
    16    6   21 1   
    17    6   22 1   
    18    7   23 1   
    19    7   24 1   
    20    8   12 1   
    21    9   10 1   
    22   10   13 1   
    23   11   12 1   
    24   12   25 1   
    25   13   26 1   
    26   13   27 1   
@<TRIPOS>SUBSTRUCTURE
     1 AIM         1 TEMP              0 ****  ****    0 ROOT
