@<TRIPOS>MOLECULE
AIM
   29    30     1     0     0
SMALL
bcc


@<TRIPOS>ATOM
      1 C01         0.0300    0.0870   -0.0360 c3        1 AIM     -0.102900
      2 C02         1.5560   -0.0300   -0.0750 c3        1 AIM      0.113500
      3 C03         2.1000    0.0670    1.3530 c3        1 AIM     -0.102900
      4 C04         1.5450   -1.0570    2.2060 c3        1 AIM     -0.082200
      5 C05         0.0670   -1.2070    2.1260 c2        1 AIM      0.117600
      6 C06        -0.5580   -1.0450    0.7850 c3        1 AIM     -0.082200
      7 N20         2.1640    1.0180   -0.9680 nz        1 AIM     -0.839600
      8 C22        -0.6800   -1.5790    3.2020 cc        1 AIM      0.086000
      9 N23        -0.1800   -1.8270    4.5240 nc        1 AIM     -0.587000
     10 C24        -1.2720   -2.1850    5.2190 cd        1 AIM      0.631900
     11 N25        -2.5280   -2.2020    4.4680 nd        1 AIM     -0.629000
     12 C26        -2.1650   -1.8340    3.2550 cc        1 AIM      0.392900
     13 N27        -1.2830   -2.5510    6.6360 nz        1 AIM     -0.795300
     14 HC11       -0.4020    0.0320   -1.0730 hc        1 AIM      0.087950
     15 HC12       -0.2710    1.0730    0.4100 hc        1 AIM      0.087950
     16 HC21        1.8470   -1.0300   -0.5230 hx        1 AIM      0.120700
     17 HC31        3.2210   -0.0080    1.3580 hc        1 AIM      0.087950
     18 HC32        1.8200    1.0560    1.8060 hc        1 AIM      0.087950
     19 HC41        1.9970   -2.0420    1.8860 hc        1 AIM      0.109700
     20 HC42        1.8860   -0.8800    3.2650 hc        1 AIM      0.109700
     21 HC61       -1.6670   -0.8660    0.8690 hc        1 AIM      0.109700
     22 HC62       -0.4280   -2.0220    0.2340 hc        1 AIM      0.109700
     23 HN11        1.7950    0.9200   -1.9200 hn        1 AIM      0.469467
     24 HN12        1.9400    1.9560   -0.6190 hn        1 AIM      0.469467
     25 H261       -2.8700   -1.7400    2.4190 h4        1 AIM      0.087100
     26 HN21       -1.9150   -1.9110    7.1400 hn        1 AIM      0.491133
     27 HN22       -0.3360   -2.4920    7.0360 hn        1 AIM      0.491133
     28 H203        3.1850    0.9070   -0.9880 hn        1 AIM      0.469467
     29 H273       -1.6390   -3.5160    6.7260 hn        1 AIM      0.491133
@<TRIPOS>BOND
     1    1    2 1   
     2    1    6 1   
     3    1   14 1   
     4    1   15 1   
     5    2    3 1   
     6    2    7 1   
     7    2   16 1   
     8    3    4 1   
     9    3   17 1   
    10    3   18 1   
    11    4    5 1   
    12    4   19 1   
    13    4   20 1   
    14    5    6 1   
    15    5    8 2   
    16    6   21 1   
    17    6   22 1   
    18    7   23 1   
    19    7   24 1   
    20    7   28 1   
    21    8    9 1   
    22    8   12 1   
    23    9   10 2   
    24   10   11 1   
    25   10   13 1   
    26   11   12 2   
    27   12   25 1   
    28   13   26 1   
    29   13   27 1   
    30   13   29 1   
@<TRIPOS>SUBSTRUCTURE
     1 AIM         1 TEMP              0 ****  ****    0 ROOT
