@<TRIPOS>MOLECULE
AIM
   29    30     1     0     0
SMALL
bcc


@<TRIPOS>ATOM
      1 C01         0.0430    0.0690   -0.0450 c3        1 AIM     -0.102900
      2 C02         1.5710   -0.0410   -0.0700 c3        1 AIM      0.113500
      3 C03         2.1020    0.0690    1.3610 c3        1 AIM     -0.102900
      4 C04         1.5450   -1.0500    2.2190 c3        1 AIM     -0.082200
      5 C05         0.0680   -1.2080    2.1270 c2        1 AIM      0.117600
      6 C06        -0.5460   -1.0590    0.7790 c3        1 AIM     -0.082200
      7 N20         2.1820    1.0020   -0.9660 n4        1 AIM     -0.839600
      8 C22        -0.6870   -1.5740    3.1990 cc        1 AIM      0.086000
      9 N23        -0.1970   -1.8090    4.5280 nc        1 AIM     -0.587000
     10 C24        -1.2930   -2.1670    5.2160 cd        1 AIM      0.631900
     11 N25        -2.5420   -2.1960    4.4550 nd        1 AIM     -0.629000
     12 C26        -2.1710   -1.8360    3.2420 cc        1 AIM      0.392900
     13 N27        -1.3140   -2.5220    6.6360 n4        1 AIM     -0.795300
     14 HC11       -0.2660    1.0570    0.3900 hc        1 AIM      0.087950
     15 HC12       -0.3790    0.0040   -1.0850 hc        1 AIM      0.087950
     16 HC21        1.8700   -1.0430   -0.5080 hx        1 AIM      0.120700
     17 HC31        1.8130    1.0610    1.8040 hc        1 AIM      0.087950
     18 HC32        3.2240   -0.0000    1.3770 hc        1 AIM      0.087950
     19 HC41        1.8770   -0.8640    3.2790 hc        1 AIM      0.109700
     20 HC42        2.0040   -2.0350    1.9100 hc        1 AIM      0.109700
     21 HC61       -1.6560   -0.8850    0.8530 hc        1 AIM      0.109700
     22 HC62       -0.4070   -2.0400    0.2370 hc        1 AIM      0.109700
     23 HN11        1.8210    0.8960   -1.9210 hn        1 AIM      0.469467
     24 HN12        1.9500    1.9420   -0.6260 hn        1 AIM      0.469467
     25 H261       -2.8690   -1.7520    2.3990 h4        1 AIM      0.087100
     26 HN21       -0.3710   -2.4550    7.0430 hn        1 AIM      0.491133
     27 HN22       -1.6670   -3.4870    6.7310 hn        1 AIM      0.491133
     28 H203        3.2030    0.8960   -0.9760 hn        1 AIM      0.469467
     29 H273       -1.9540   -1.8800    7.1300 hn        1 AIM      0.491133
@<TRIPOS>BOND
     1    1    2 1   
     2    1    6 1   
     3    1   14 1   
     4    1   15 1   
     5    2    3 1   
     6    2    7 1   
     7    2   16 1   
     8    3    4 1   
     9    3   17 1   
    10    3   18 1   
    11    4    5 1   
    12    4   19 1   
    13    4   20 1   
    14    5    6 1   
    15    5    8 2   
    16    6   21 1   
    17    6   22 1   
    18    7   23 1   
    19    7   24 1   
    20    7   28 1   
    21    8    9 1   
    22    8   12 1   
    23    9   10 2   
    24   10   11 1   
    25   10   13 1   
    26   11   12 2   
    27   12   25 1   
    28   13   26 1   
    29   13   27 1   
    30   13   29 1   
@<TRIPOS>SUBSTRUCTURE
     1 AIM         1 TEMP              0 ****  ****    0 ROOT
