@<TRIPOS>MOLECULE
AIN
   20    20     1     0     0
SMALL
bcc


@<TRIPOS>ATOM
      1 O1          0.8640   -0.2680    0.3700 o         1 AIN     -0.830800
      2 C7          2.0980   -0.2630    0.1110 c         1 AIN      0.922200
      3 O2          3.0020   -0.4190    0.9870 o         1 AIN     -0.830800
      4 C3          2.5280   -0.0600   -1.3310 ca        1 AIN     -0.136600
      5 C4          1.5930   -0.2150   -2.3590 ca        1 AIN     -0.094000
      6 C5          1.9560   -0.0390   -3.6930 ca        1 AIN     -0.172000
      7 C6          3.2680    0.2980   -4.0240 ca        1 AIN     -0.144000
      8 C1          4.2220    0.4580   -3.0230 ca        1 AIN     -0.165000
      9 C2          3.8440    0.2820   -1.6830 ca        1 AIN      0.149100
     10 O3          4.7950    0.5900   -0.7140 os        1 AIN     -0.389200
     11 C8          5.2430   -0.4260    0.1150 c         1 AIN      0.710100
     12 O4          5.3140   -1.5690   -0.3370 o         1 AIN     -0.560000
     13 C9          5.7340    0.0930    1.4220 c3        1 AIN     -0.147100
     14 H4          0.5580   -0.4710   -2.0780 ha        1 AIN      0.152000
     15 H5          1.2070   -0.1650   -4.4870 ha        1 AIN      0.106000
     16 H6          3.5540    0.4350   -5.0760 ha        1 AIN      0.104000
     17 H1          5.2600    0.7220   -3.2660 ha        1 AIN      0.121000
     18 H91         6.0910    1.1450    1.3210 hc        1 AIN      0.068367
     19 H92         4.8680    0.0650    2.1350 hc        1 AIN      0.068367
     20 H93         6.5580   -0.5580    1.7970 hc        1 AIN      0.068367
@<TRIPOS>BOND
     1    1    2 1   
     2    2    3 1   
     3    2    4 1   
     4    4    5 ar  
     5    4    9 ar  
     6    5    6 ar  
     7    5   14 1   
     8    6    7 ar  
     9    6   15 1   
    10    7    8 ar  
    11    7   16 1   
    12    8    9 ar  
    13    8   17 1   
    14    9   10 1   
    15   10   11 1   
    16   11   12 2   
    17   11   13 1   
    18   13   18 1   
    19   13   19 1   
    20   13   20 1   
@<TRIPOS>SUBSTRUCTURE
     1 AIN         1 TEMP              0 ****  ****    0 ROOT
