@<TRIPOS>MOLECULE
AIN
   20    20     1     0     0
SMALL
bcc


@<TRIPOS>ATOM
      1 O1          0.8540   -0.4900    0.2990 o         1 AIN     -0.830800
      2 C7          2.0900   -0.4040    0.0670 c         1 AIN      0.922200
      3 O2          2.9850   -0.5440    0.9550 o         1 AIN     -0.830800
      4 C3          2.5350   -0.1170   -1.3560 ca        1 AIN     -0.136600
      5 C4          1.6310   -0.2820   -2.4090 ca        1 AIN     -0.094000
      6 C5          2.0070   -0.0300   -3.7270 ca        1 AIN     -0.172000
      7 C6          3.3040    0.3950   -4.0160 ca        1 AIN     -0.144000
      8 C1          4.2290    0.5670   -2.9890 ca        1 AIN     -0.165000
      9 C2          3.8350    0.3140   -1.6660 ca        1 AIN      0.149100
     10 O3          4.7480    0.6350   -0.6650 os        1 AIN     -0.389200
     11 C8          5.2390   -0.3880    0.1320 c         1 AIN      0.710100
     12 O4          5.3850   -1.5040   -0.3640 o         1 AIN     -0.560000
     13 C9          5.6740    0.1040    1.4690 c3        1 AIN     -0.147100
     14 H4          0.6070   -0.6080   -2.1620 ha        1 AIN      0.152000
     15 H5          1.2820   -0.1660   -4.5410 ha        1 AIN      0.106000
     16 H6          3.6020    0.5920   -5.0550 ha        1 AIN      0.104000
     17 H1          5.2530    0.9000   -3.1990 ha        1 AIN      0.121000
     18 H91         5.9700    1.1780    1.4190 hc        1 AIN      0.068367
     19 H92         4.7980   -0.0040    2.1610 hc        1 AIN      0.068367
     20 H93         6.5270   -0.5130    1.8350 hc        1 AIN      0.068367
@<TRIPOS>BOND
     1    1    2 1   
     2    2    3 1   
     3    2    4 1   
     4    4    5 ar  
     5    4    9 ar  
     6    5    6 ar  
     7    5   14 1   
     8    6    7 ar  
     9    6   15 1   
    10    7    8 ar  
    11    7   16 1   
    12    8    9 ar  
    13    8   17 1   
    14    9   10 1   
    15   10   11 1   
    16   11   12 2   
    17   11   13 1   
    18   13   18 1   
    19   13   19 1   
    20   13   20 1   
@<TRIPOS>SUBSTRUCTURE
     1 AIN         1 TEMP              0 ****  ****    0 ROOT
