@<TRIPOS>MOLECULE
AIN
   20    20     1     0     0
SMALL
bcc


@<TRIPOS>ATOM
      1 O1          1.8790    0.3450   -1.9750 o         1 AIN     -0.830800
      2 C7          1.3340    0.2870   -0.8390 c         1 AIN      0.922200
      3 O2          1.9680    0.4170    0.2520 o         1 AIN     -0.830800
      4 C3         -0.1630    0.0490   -0.7710 ca        1 AIN     -0.136600
      5 C4         -0.9440    0.2290   -1.9170 ca        1 AIN     -0.094000
      6 C5         -2.3220    0.0220   -1.8890 ca        1 AIN     -0.172000
      7 C6         -2.9470   -0.3720   -0.7060 ca        1 AIN     -0.144000
      8 C1         -2.1970   -0.5580    0.4520 ca        1 AIN     -0.165000
      9 C2         -0.8100   -0.3510    0.4090 ca        1 AIN      0.149100
     10 O3         -0.0870   -0.6850    1.5520 os        1 AIN     -0.389200
     11 C8          0.5900    0.3220    2.2210 c         1 AIN      0.710100
     12 O4          0.1100    1.4550    2.2250 o         1 AIN     -0.560000
     13 C9          1.7540   -0.2010    2.9890 c3        1 AIN     -0.147100
     14 H4         -0.4320    0.5300   -2.8460 ha        1 AIN      0.152000
     15 H5         -2.9180    0.1690   -2.8000 ha        1 AIN      0.106000
     16 H6         -4.0340   -0.5340   -0.6830 ha        1 AIN      0.104000
     17 H1         -2.6730   -0.8670    1.3920 ha        1 AIN      0.121000
     18 H91         1.9100    0.4210    3.9020 hc        1 AIN      0.068367
     19 H92         1.5950   -1.2670    3.2720 hc        1 AIN      0.068367
     20 H93         2.6510   -0.1280    2.3190 hc        1 AIN      0.068367
@<TRIPOS>BOND
     1    1    2 1   
     2    2    3 1   
     3    2    4 1   
     4    4    5 ar  
     5    4    9 ar  
     6    5    6 ar  
     7    5   14 1   
     8    6    7 ar  
     9    6   15 1   
    10    7    8 ar  
    11    7   16 1   
    12    8    9 ar  
    13    8   17 1   
    14    9   10 1   
    15   10   11 1   
    16   11   12 2   
    17   11   13 1   
    18   13   18 1   
    19   13   19 1   
    20   13   20 1   
@<TRIPOS>SUBSTRUCTURE
     1 AIN         1 TEMP              0 ****  ****    0 ROOT
