@<TRIPOS>MOLECULE
AIN
   20    18     1     0     0
SMALL
bcc


@<TRIPOS>ATOM
      1 O1         -2.7900    1.0140    1.3190 o         1 AIN     -0.565500
      2 C7         -1.5330    1.0900    1.3100 c2        1 AIN      0.371000
      3 O2         -0.9000    1.1770    2.3940 o         1 AIN     -0.565500
      4 C3         -0.7850    1.0830   -0.0050 c2        1 AIN     -0.116000
      5 C4         -0.6630    2.2530   -0.7390 c2        1 AIN     -0.094000
      6 C5          0.0190    2.2460   -1.9460 c1        1 AIN     -0.172000
      7 C6          0.5790    1.0700   -2.4180 c1        1 AIN     -0.154500
      8 C1          0.4570   -0.1000   -1.6840 c1        1 AIN     -0.154500
      9 C2         -0.2240   -0.0930   -0.4780 c1        1 AIN      0.104000
     10 O3         -0.3860   -1.2870    0.2440 os        1 AIN     -0.254000
     11 C8          0.7720   -1.7020    0.9230 c2        1 AIN      0.381000
     12 O4          1.8480   -1.2100    0.6460 o         1 AIN     -0.371000
     13 C9          0.6830   -2.7810    1.9790 c3        1 AIN     -0.215000
     14 H4         -1.0630    3.0800   -0.4090 ha        1 AIN      0.152000
     15 H5          0.1040    3.0700   -2.4630 ha        1 AIN      0.106000
     16 H6          1.0400    1.0600   -3.2790 ha        1 AIN      0.112500
     17 H1          0.8520   -0.9280   -2.0170 ha        1 AIN      0.112500
     18 H91        -0.1750   -2.7100    2.4470 hc        1 AIN      0.107667
     19 H92         1.4150   -2.6710    2.6210 hc        1 AIN      0.107667
     20 H93         0.7510   -3.6610    1.5540 hc        1 AIN      0.107667
@<TRIPOS>BOND
     1    1    2 1   
     2    2    3 1   
     3    2    4 1   
     4    4    5 1   
     5    4    9 1   
     6    5    6 1   
     7    5   14 1   
     8    6   15 1   
     9    7    8 1   
    10    7   16 1   
    11    8   17 1   
    12    9   10 1   
    13   10   11 1   
    14   11   12 1   
    15   11   13 1   
    16   13   18 1   
    17   13   19 1   
    18   13   20 1   
@<TRIPOS>SUBSTRUCTURE
     1 AIN         1 TEMP              0 ****  ****    0 ROOT
