@<TRIPOS>MOLECULE
AIP
   88    88     1     0     0
SMALL
bcc


@<TRIPOS>ATOM
      1 C27         4.6700    2.7130    0.4110 ca        1 AIP     -0.131000
      2 C28         5.8660    2.0350    0.1870 ca        1 AIP     -0.139500
      3 C29         6.0530    0.7540    0.7060 ca        1 AIP     -0.176000
      4 C30         5.0340    0.1560    1.4470 ca        1 AIP     -0.139500
      5 C31         3.8360    0.8320    1.6720 ca        1 AIP     -0.131000
      6 C26         3.6400    2.1200    1.1580 ca        1 AIP     -0.042300
      7 C25         2.3870    2.8830    1.4010 c3        1 AIP     -0.035100
      8 C23         1.1040    2.0460    1.4840 c3        1 AIP     -0.047300
      9 C24        -0.0820    3.0460    1.6740 c         1 AIP      0.896600
     10 O5         -0.8540    3.2630    0.6900 o         1 AIP     -0.836300
     11 O6         -0.2190    3.5890    2.8000 o         1 AIP     -0.836300
     12 N7          0.9250    1.2090    0.3050 n         1 AIP     -0.492900
     13 C22         0.6960   -0.1580    0.4810 c         1 AIP      0.724100
     14 O4          1.0540   -0.7810    1.5150 o         1 AIP     -0.662100
     15 N6          0.0790   -0.8930   -0.5770 n         1 AIP     -0.543900
     16 C17         0.4390   -2.2890   -0.7100 c3        1 AIP      0.010700
     17 C16        -0.8240   -3.1280   -1.0240 c         1 AIP      0.660100
     18 O3         -0.9060   -3.8450   -2.0400 o         1 AIP     -0.618100
     19 C18         1.5170   -2.5700   -1.7690 c3        1 AIP     -0.094400
     20 C19         2.8700   -2.1090   -1.2690 c3        1 AIP     -0.101400
     21 C20         3.8570   -1.9620   -2.4270 c3        1 AIP      0.193800
     22 N3          5.1100   -1.3660   -2.0030 nh        1 AIP     -0.806200
     23 C21         6.0160   -0.9380   -3.0260 c2        1 AIP      0.748100
     24 N4          6.9700    0.0750   -2.6510 nh        1 AIP     -0.939800
     25 N5          5.9590   -1.4720   -4.2240 n2        1 AIP     -0.872100
     26 N2         -1.8410   -3.0560   -0.0950 n         1 AIP     -0.565900
     27 C11        -3.0520   -3.8210   -0.1880 c3        1 AIP      0.040700
     28 C10        -4.3250   -3.0070   -0.5420 c         1 AIP      0.638100
     29 O2         -5.4240   -3.6050   -0.5670 o         1 AIP     -0.636100
     30 C12        -3.3680   -4.6250    1.0980 c3        1 AIP     -0.077700
     31 C13        -2.3590   -5.7340    1.2930 c3        1 AIP     -0.094100
     32 C14        -3.4430   -3.7430    2.3240 c3        1 AIP     -0.094100
     33 O1         -5.3750   -0.8810   -3.5670 oh        1 AIP     -0.602800
     34 N1         -4.2390   -1.6770   -0.8740 n         1 AIP     -0.559900
     35 N8         -3.7280    3.1540    1.3640 nh        1 AIP     -0.825200
     36 N10        -4.7680    5.2900    1.1840 n2        1 AIP     -0.882100
     37 N9         -2.5590    5.1650    2.1830 nh        1 AIP     -0.911800
     38 C8         -5.4260   -0.8760   -1.0950 c3        1 AIP      0.068700
     39 C7         -5.1480    0.6320   -1.0640 c3        1 AIP     -0.090400
     40 C6         -4.4300    1.0900    0.1850 c3        1 AIP     -0.093400
     41 C5         -4.6030    2.6040    0.3550 c3        1 AIP      0.201800
     42 C4         -3.7270    4.5770    1.5370 c2        1 AIP      0.744100
     43 C9         -6.1360   -1.2180   -2.4260 c3        1 AIP      0.112400
     44 H27         4.5270    3.7220   -0.0040 ha        1 AIP      0.148500
     45 H28         6.6640    2.5140   -0.4000 ha        1 AIP      0.123000
     46 H29         7.0020    0.2230    0.5470 ha        1 AIP      0.113000
     47 H30         5.1740   -0.8550    1.8570 ha        1 AIP      0.123000
     48 H31         3.0270    0.3380    2.2380 ha        1 AIP      0.148500
     49 H251        2.4700    3.4260    2.3840 hc        1 AIP      0.067700
     50 H252        2.2600    3.6610    0.6000 hc        1 AIP      0.067700
     51 H23         1.1490    1.3970    2.4070 h1        1 AIP      0.084700
     52 HN7         0.3610    1.6750   -0.3850 hn        1 AIP      0.315500
     53 HN6        -0.0010   -0.4210   -1.4530 hn        1 AIP      0.289500
     54 H17         0.8350   -2.6560    0.2910 h1        1 AIP      0.110700
     55 H181        1.5360   -3.6720   -1.9770 hc        1 AIP      0.063700
     56 H182        1.2510   -2.0640   -2.7340 hc        1 AIP      0.063700
     57 H191        2.7650   -1.1280   -0.7290 hc        1 AIP      0.056200
     58 H192        3.2650   -2.8480   -0.5240 hc        1 AIP      0.056200
     59 H201        4.0880   -2.9790   -2.8530 h1        1 AIP      0.051200
     60 H202        3.3700   -1.3570   -3.2470 h1        1 AIP      0.051200
     61 HN3         4.9800   -0.6810   -1.2790 hn        1 AIP      0.403800
     62 HN41        6.8900    0.4090   -1.7120 hn        1 AIP      0.385300
     63 HN42        7.9080   -0.1830   -2.8700 hn        1 AIP      0.385300
     64 HN5         6.6770   -1.1780   -4.8490 hn        1 AIP      0.383400
     65 HN2        -1.7200   -2.4890    0.7130 hn        1 AIP      0.332500
     66 H11        -2.9380   -4.5590   -1.0430 h1        1 AIP      0.107700
     67 H12        -4.3840   -5.0890    0.9280 hc        1 AIP      0.083700
     68 H131       -1.3410   -5.3220    1.4920 hc        1 AIP      0.038200
     69 H132       -2.6570   -6.3660    2.1650 hc        1 AIP      0.038200
     70 H133       -2.3070   -6.3820    0.3850 hc        1 AIP      0.038200
     71 H141       -4.0810   -2.8490    2.1210 hc        1 AIP      0.038200
     72 H142       -3.8950   -4.3130    3.1720 hc        1 AIP      0.038200
     73 H143       -2.4310   -3.3970    2.6440 hc        1 AIP      0.038200
     74 HN1        -3.3760   -1.1920   -0.8190 hn        1 AIP      0.327500
     75 HN8        -2.7900    2.7850    1.3070 hn        1 AIP      0.433800
     76 HN0        -4.7000    6.2560    1.4240 hn        1 AIP      0.383400
     77 HN91       -2.3010    4.6420    3.0030 hn        1 AIP      0.393800
     78 HN92       -1.7730    5.1090    1.5500 hn        1 AIP      0.393800
     79 H8         -6.1640   -1.1270   -0.2720 h1        1 AIP      0.062700
     80 H71        -4.5580    0.9190   -1.9750 hc        1 AIP      0.058200
     81 H72        -6.1430    1.1480   -1.1390 hc        1 AIP      0.058200
     82 H61        -4.8410    0.5630    1.0850 hc        1 AIP      0.045700
     83 H62        -3.3400    0.8340    0.1150 hc        1 AIP      0.045700
     84 H51        -5.6680    2.8120    0.6570 h1        1 AIP      0.037200
     85 H52        -4.4390    3.0950   -0.6500 h1        1 AIP      0.037200
     86 H9         -7.0660   -0.5940   -2.5120 h1        1 AIP      0.056700
     87 H45        -4.5650   -1.4030   -3.5390 ho        1 AIP      0.403000
     88 H46        -6.4060   -2.3080   -2.4430 h1        1 AIP      0.056700
@<TRIPOS>BOND
     1    1    2 ar  
     2    1    6 ar  
     3    1   44 1   
     4    2    3 ar  
     5    2   45 1   
     6    3    4 ar  
     7    3   46 1   
     8    4    5 ar  
     9    4   47 1   
    10    5    6 ar  
    11    5   48 1   
    12    6    7 1   
    13    7    8 1   
    14    7   49 1   
    15    7   50 1   
    16    8    9 1   
    17    8   12 1   
    18    8   51 1   
    19    9   10 1   
    20    9   11 1   
    21   12   13 1   
    22   12   52 1   
    23   13   14 2   
    24   13   15 1   
    25   15   16 1   
    26   15   53 1   
    27   16   17 1   
    28   16   19 1   
    29   16   54 1   
    30   17   18 2   
    31   17   26 1   
    32   19   20 1   
    33   19   55 1   
    34   19   56 1   
    35   20   21 1   
    36   20   57 1   
    37   20   58 1   
    38   21   22 1   
    39   21   59 1   
    40   21   60 1   
    41   22   23 1   
    42   22   61 1   
    43   23   24 1   
    44   23   25 2   
    45   24   62 1   
    46   24   63 1   
    47   25   64 1   
    48   26   27 1   
    49   26   65 1   
    50   27   28 1   
    51   27   30 1   
    52   27   66 1   
    53   28   29 2   
    54   28   34 1   
    55   30   31 1   
    56   30   32 1   
    57   30   67 1   
    58   31   68 1   
    59   31   69 1   
    60   31   70 1   
    61   32   71 1   
    62   32   72 1   
    63   32   73 1   
    64   33   43 1   
    65   33   87 1   
    66   34   38 1   
    67   34   74 1   
    68   35   41 1   
    69   35   42 1   
    70   35   75 1   
    71   36   42 2   
    72   36   76 1   
    73   37   42 1   
    74   37   77 1   
    75   37   78 1   
    76   38   39 1   
    77   38   43 1   
    78   38   79 1   
    79   39   40 1   
    80   39   80 1   
    81   39   81 1   
    82   40   41 1   
    83   40   82 1   
    84   40   83 1   
    85   41   84 1   
    86   41   85 1   
    87   43   86 1   
    88   43   88 1   
@<TRIPOS>SUBSTRUCTURE
     1 AIP         1 TEMP              0 ****  ****    0 ROOT
