@<TRIPOS>MOLECULE
AIP
   88    82     1     0     0
SMALL
bcc


@<TRIPOS>ATOM
      1 C27        -4.7000    4.1800   -0.8140 c1        1 AIP     -0.132000
      2 C28        -5.2160    3.8130   -2.0570 c1        1 AIP     -0.143500
      3 C29        -4.3520    3.5530   -3.1210 c1        1 AIP     -0.143500
      4 C30        -2.9770    3.6600   -2.9440 c1        1 AIP     -0.142000
      5 C31        -2.4600    4.0270   -1.6990 c1        1 AIP     -0.123000
      6 C26        -3.3220    4.2870   -0.6350 c2        1 AIP     -0.055000
      7 C25        -2.7650    4.8270    0.6830 c3        1 AIP     -0.113000
      8 C23        -2.2920    3.6610    1.5550 c3        1 AIP     -0.088000
      9 C24        -2.2150    2.4140    0.7270 c2        1 AIP      0.307000
     10 O5         -1.2000    2.1920    0.0190 o         1 AIP     -0.578500
     11 O6         -3.1310    1.5500    0.8040 o         1 AIP     -0.578500
     12 N7         -1.0040    3.9580    2.0870 n3        1 AIP     -0.268000
     13 C22        -0.0420    2.9040    2.2660 c1        1 AIP      0.377000
     14 O4         -0.4080    1.7460    2.2950 o         1 AIP     -0.395000
     15 N6          1.3480    3.2270    2.4960 n2        1 AIP     -0.350000
     16 C17         2.3590    2.2920    2.1550 c3        1 AIP     -0.008000
     17 C16         2.1290    1.7910    0.7350 c2        1 AIP      0.275000
     18 O3          2.1470    2.5790   -0.1980 o         1 AIP     -0.412000
     19 C18         3.7320    2.9680    2.2410 c3        1 AIP     -0.154000
     20 C19         4.4880    2.4550    3.4970 c3        1 AIP     -0.192000
     21 C20         6.0030    2.3130    3.1680 c3        1 AIP     -0.069000
     22 N3          6.3930    0.9260    3.2780 n3        1 AIP     -0.314000
     23 C21         7.7620    0.5520    3.1060 c2        1 AIP      0.145000
     24 N4          8.1020   -0.4990    2.2250 n3        1 AIP     -0.342000
     25 N5          8.6930    1.1770    3.7610 n1        1 AIP     -0.330000
     26 N2          2.0310    0.3480    0.4730 n         1 AIP     -0.318000
     27 C11         1.2350   -0.1230   -0.5960 c3        1 AIP      0.029000
     28 C10         0.2590   -1.1820   -0.0810 c2        1 AIP      0.289000
     29 O2          0.3410   -1.5790    1.0680 o         1 AIP     -0.429000
     30 C12         2.1310   -0.7340   -1.6730 c3        1 AIP     -0.095000
     31 C13         2.4050    0.3240   -2.7750 c3        1 AIP     -0.210000
     32 C14         3.4790   -1.1850   -1.0400 c3        1 AIP     -0.210000
     33 O1         -1.4390   -5.0120    0.4290 oh        1 AIP     -0.370000
     34 N1         -0.7470   -1.7450   -0.9760 n         1 AIP     -0.363000
     35 N8         -4.7320   -5.9080   -1.6490 n3        1 AIP     -0.359000
     36 N10        -6.8630   -6.8980   -2.0990 n1        1 AIP     -0.384000
     37 N9         -5.0550   -7.5310   -3.5070 n3        1 AIP     -0.329000
     38 C8         -1.5810   -2.8180   -0.5280 c3        1 AIP     -0.001000
     39 C7         -2.7020   -3.0450   -1.5320 c3        1 AIP     -0.188000
     40 C6         -3.8730   -3.7530   -0.8400 c3        1 AIP     -0.169000
     41 C5         -4.7440   -4.4760   -1.9040 c3        1 AIP     -0.040000
     42 C4         -5.5900   -6.7860   -2.4130 c2        1 AIP      0.180000
     43 C9         -0.7540   -4.0800   -0.3980 c3        1 AIP     -0.030000
     44 H27        -5.3070    4.4440   -0.0930 ha        1 AIP      0.125000
     45 H28        -6.1720    3.6470   -2.1560 ha        1 AIP      0.117000
     46 H29        -4.7140    3.3170   -3.9970 ha        1 AIP      0.117000
     47 H30        -2.3720    3.4600   -3.6850 ha        1 AIP      0.122000
     48 H31        -1.4950    4.0660   -1.5650 DU        1 AIP      0.156667
     49 H251       -2.0150    5.4200    0.5000 hc        1 AIP      0.096500
     50 H252       -3.4640    5.3210    1.1520 hc        1 AIP      0.096500
     51 H23        -2.9240    3.5270    2.2880 h1        1 AIP      0.129000
     52 HN7        -0.8030    4.8020    2.3410 hn        1 AIP      0.164000
     53 HN6         1.5750    4.0220    2.8970 hn        1 AIP      0.211000
     54 H17         2.3270    1.5400    2.7740 h1        1 AIP      0.143000
     55 H181        4.2520    2.7560    1.4360 hc        1 AIP      0.091000
     56 H182        3.6130    3.9400    2.3070 hc        1 AIP      0.091000
     57 H191        4.1300    1.5860    3.7610 hc        1 AIP      0.096500
     58 H192        4.3730    3.0910    4.2290 hc        1 AIP      0.096500
     59 H201        6.1700    2.6290    2.2530 h1        1 AIP      0.089500
     60 H202        6.5280    2.8530    3.8030 h1        1 AIP      0.089500
     61 HN3         5.7720    0.2960    3.4560 hn        1 AIP      0.185000
     62 HN41        8.9810   -0.6380    1.9930 hn        1 AIP      0.196000
     63 HN42        7.4470   -1.0090    1.8510 hn        1 AIP      0.196000
     64 HN5         8.4750    1.8490    4.3250 DU        1 AIP      0.156667
     65 HN2         2.4810   -0.2380    0.9930 hn        1 AIP      0.261000
     66 H11         0.7270    0.6300   -0.9820 h1        1 AIP      0.111000
     67 H12         1.6810   -1.5100   -2.0700 hc        1 AIP      0.097000
     68 H131        3.1790    0.8660   -2.5220 hc        1 AIP      0.076500
     69 H132        1.6170    0.9050   -2.8740 hc        1 AIP      0.076500
     70 H133        2.5880   -0.1320   -3.6330 hc        1 AIP      0.076500
     71 H141        3.8870   -1.8870   -1.6000 hc        1 AIP      0.076500
     72 H142        4.0910   -0.4140   -0.9840 hc        1 AIP      0.076500
     73 H143        3.3160   -1.5400   -0.1380 hc        1 AIP      0.076500
     74 HN1        -0.8820   -1.3770   -1.7940 hn        1 AIP      0.292000
     75 HN8        -4.2100   -6.2480   -0.9860 hn        1 AIP      0.228000
     76 HN0        -7.2050   -6.4220   -1.4000 DU        1 AIP      0.156667
     77 HN91       -4.2710   -7.2630   -3.9090 hn        1 AIP      0.191500
     78 HN92       -5.4830   -8.2880   -3.7980 hn        1 AIP      0.191500
     79 H8         -1.9650   -2.5900    0.3420 h1        1 AIP      0.091000
     80 H71        -2.3760   -3.5990   -2.2640 hc        1 AIP      0.122000
     81 H72        -3.0050   -2.1800   -1.8860 hc        1 AIP      0.122000
     82 H61        -4.4200   -3.0910   -0.3640 hc        1 AIP      0.096500
     83 H62        -3.5280   -4.4050   -0.2050 hc        1 AIP      0.096500
     84 H51        -5.6680   -4.1410   -1.8540 h1        1 AIP      0.068500
     85 H52        -4.3790   -4.2990   -2.8020 h1        1 AIP      0.068500
     86 H9         -0.6130   -4.4720   -1.2860 h1        1 AIP      0.089500
     87 H45        -0.9230   -5.7310    0.5580 ho        1 AIP      0.233000
     88 H46         0.1140   -3.8620    0.0040 h1        1 AIP      0.089500
@<TRIPOS>BOND
     1    1    6 1   
     2    1   44 1   
     3    2    3 1   
     4    2   45 1   
     5    3   46 1   
     6    4    5 1   
     7    4   47 1   
     8    5    6 1   
     9    6    7 1   
    10    7    8 1   
    11    7   49 1   
    12    7   50 1   
    13    8    9 1   
    14    8   12 1   
    15    8   51 1   
    16    9   10 1   
    17    9   11 1   
    18   12   13 1   
    19   12   52 1   
    20   13   14 1   
    21   15   16 1   
    22   15   53 1   
    23   16   17 1   
    24   16   19 1   
    25   16   54 1   
    26   17   18 1   
    27   17   26 1   
    28   19   20 1   
    29   19   55 1   
    30   19   56 1   
    31   20   21 1   
    32   20   57 1   
    33   20   58 1   
    34   21   22 1   
    35   21   59 1   
    36   21   60 1   
    37   22   23 1   
    38   22   61 1   
    39   23   24 1   
    40   23   25 1   
    41   24   62 1   
    42   24   63 1   
    43   26   27 1   
    44   26   65 1   
    45   27   28 1   
    46   27   30 1   
    47   27   66 1   
    48   28   29 1   
    49   28   34 1   
    50   30   31 1   
    51   30   32 1   
    52   30   67 1   
    53   31   68 1   
    54   31   69 1   
    55   31   70 1   
    56   32   71 1   
    57   32   72 1   
    58   32   73 1   
    59   33   43 1   
    60   33   87 1   
    61   34   38 1   
    62   34   74 1   
    63   35   41 1   
    64   35   42 1   
    65   35   75 1   
    66   36   42 1   
    67   37   42 1   
    68   37   77 1   
    69   37   78 1   
    70   38   39 1   
    71   38   43 1   
    72   38   79 1   
    73   39   40 1   
    74   39   80 1   
    75   39   81 1   
    76   40   41 1   
    77   40   82 1   
    78   40   83 1   
    79   41   84 1   
    80   41   85 1   
    81   43   86 1   
    82   43   88 1   
@<TRIPOS>SUBSTRUCTURE
     1 AIP         1 TEMP              0 ****  ****    0 ROOT
