@<TRIPOS>MOLECULE
AIQ
   32    34     1     0     0
SMALL
bcc


@<TRIPOS>ATOM
      1 C1         -2.1630   -0.4570   -0.7220 ca        1 AIQ     -0.126000
      2 C2         -0.8280   -0.5370   -0.3440 ca        1 AIQ     -0.055300
      3 C9         -0.5090   -0.8880    1.0590 c3        1 AIQ      0.050000
      4 C3          0.1960   -0.2990   -1.3060 ca        1 AIQ      0.189400
      5 N3          1.5380   -0.3850   -0.9420 nc        1 AIQ     -0.669100
      6 C8          2.4710   -0.1790   -1.8800 cd        1 AIQ      0.655800
      7 N2          3.8390   -0.3950   -1.5680 nh        1 AIQ     -0.881800
      8 N1          2.1710    0.1950   -3.2110 n         1 AIQ     -0.503400
      9 C7          0.8380    0.2890   -3.6400 c         1 AIQ      0.716100
     10 O1          0.6230    0.5930   -4.8270 o         1 AIQ     -0.623500
     11 C4         -0.2030    0.0300   -2.6270 ca        1 AIQ     -0.168600
     12 C5         -1.5460    0.1110   -2.9970 ca        1 AIQ     -0.113000
     13 C6         -2.5520   -0.1400   -2.0480 ca        1 AIQ      0.106600
     14 N4         -3.9030   -0.1630   -2.4180 nh        1 AIQ     -0.811200
     15 S1         -0.5010    0.6520    1.9610 ss        1 AIQ     -0.260400
     16 C10        -0.1590    0.1670    3.5490 cc        1 AIQ      0.466800
     17 N5         -0.1480   -1.1000    4.0480 nd        1 AIQ     -0.681000
     18 N6          0.1630    1.0940    4.5540 na        1 AIQ     -0.298900
     19 C11         0.1810   -0.9820    5.3930 cd        1 AIQ      0.302200
     20 C12         0.3710    0.3720    5.7270 cc        1 AIQ     -0.259600
     21 H11        -2.9390   -0.6530    0.0370 ha        1 AIQ      0.145000
     22 H91        -1.2850   -1.5710    1.4880 h1        1 AIQ      0.097200
     23 H92         0.4780   -1.4030    1.1600 h1        1 AIQ      0.097200
     24 HN21        4.0020   -0.5960   -0.6020 hn        1 AIQ      0.411800
     25 HN22        4.4560    0.3000   -1.9310 hn        1 AIQ      0.411800
     26 HN11        2.8940    0.2910   -3.8890 hn        1 AIQ      0.336500
     27 H51        -1.7910    0.3640   -4.0420 ha        1 AIQ      0.160000
     28 HN41       -4.1080    0.3620   -3.2400 hn        1 AIQ      0.390300
     29 HN42       -4.5320    0.0240   -1.6690 hn        1 AIQ      0.390300
     30 HN61        0.2040    2.0730    4.4490 hn        1 AIQ      0.305700
     31 H111        0.2620   -1.8560    6.0370 h4        1 AIQ      0.042100
     32 H121        0.6270    0.8530    6.6690 h4        1 AIQ      0.177000
@<TRIPOS>BOND
     1    1    2 ar  
     2    1   13 ar  
     3    1   21 1   
     4    2    3 1   
     5    2    4 ar  
     6    3   15 1   
     7    3   22 1   
     8    3   23 1   
     9    4    5 1   
    10    4   11 ar  
    11    5    6 2   
    12    6    7 1   
    13    6    8 1   
    14    7   24 1   
    15    7   25 1   
    16    8    9 1   
    17    8   26 1   
    18    9   10 2   
    19    9   11 1   
    20   11   12 ar  
    21   12   13 ar  
    22   12   27 1   
    23   13   14 1   
    24   14   28 1   
    25   14   29 1   
    26   15   16 1   
    27   16   17 2   
    28   16   18 1   
    29   17   19 1   
    30   18   20 1   
    31   18   30 1   
    32   19   20 2   
    33   19   31 1   
    34   20   32 1   
@<TRIPOS>SUBSTRUCTURE
     1 AIQ         1 TEMP              0 ****  ****    0 ROOT
