@<TRIPOS>MOLECULE
AIQ
   32    26     1     0     0
SMALL
bcc


@<TRIPOS>ATOM
      1 C1         -2.0080   -0.3910    0.2400 c1        1 AIQ     -0.126000
      2 C2         -0.6760    0.0000    0.2850 c1        1 AIQ     -0.047000
      3 C9         -0.3560    0.6020   -1.1090 c2        1 AIQ     -0.220000
      4 C3          0.0140   -0.0090    1.4860 c2        1 AIQ      0.050000
      5 N3          1.3080    0.3490    1.5100 n1        1 AIQ     -0.242000
      6 C8          2.0180    0.3210    2.7070 c1        1 AIQ      0.209000
      7 N2          3.4190    0.7560    2.8620 n3        1 AIQ     -0.320000
      8 N1          1.4090   -0.0680    3.8480 n2        1 AIQ     -0.343000
      9 C7          0.0940   -0.4320    3.8260 c1        1 AIQ      0.353000
     10 O1         -0.4780   -0.6600    4.8470 o         1 AIQ     -0.348000
     11 C4         -0.6090   -0.4020    2.6370 c1        1 AIQ     -0.148000
     12 C5         -2.0060   -0.8130    2.6000 c1        1 AIQ     -0.114000
     13 C6         -2.6760   -0.8050    1.4370 c1        1 AIQ      0.025000
     14 N4         -4.0200   -1.0740    1.7230 n3        1 AIQ     -0.320000
     15 S1          0.0000   -0.6640   -2.2160 ss        1 AIQ      0.254000
     16 C10         0.5520    0.0400   -3.7730 c2        1 AIQ     -0.214000
     17 N5          0.0240    1.0740   -4.3890 n2        1 AIQ     -0.168500
     18 N6          1.5820   -0.4570   -4.5730 n2        1 AIQ     -0.168500
     19 C11         0.7070    1.2490   -5.5840 c1        1 AIQ     -0.167500
     20 C12         1.6590    0.2900   -5.6640 c1        1 AIQ     -0.167500
     21 H11        -2.4790   -0.3840   -0.5980 ha        1 AIQ      0.145000
     22 H91        -1.0550    1.0540   -1.4020 h4        1 AIQ      0.135500
     23 H92         0.4410    1.2250   -1.0310 h4        1 AIQ      0.135500
     24 HN21        3.8660    1.0310    2.1710 hn        1 AIQ      0.207000
     25 HN22        3.7460    0.8260    3.6170 hn        1 AIQ      0.207000
     26 HN11        1.8980   -0.0920    4.6600 hn        1 AIQ      0.250000
     27 H51        -2.4430   -1.0800    3.3970 ha        1 AIQ      0.160000
     28 HN41       -4.6620   -1.1780    0.9940 hn        1 AIQ      0.185500
     29 HN42       -4.2820   -1.2120    2.5810 hn        1 AIQ      0.185500
     30 HN61        2.1670   -1.2470   -4.3580 DU        1 AIQ      0.203667
     31 H111        0.5210    1.9880   -6.2980 DU        1 AIQ      0.203667
     32 H121        2.3250    0.1640   -6.4350 DU        1 AIQ      0.203667
@<TRIPOS>BOND
     1    1    2 1   
     2    1   21 1   
     3    2    4 1   
     4    3   15 1   
     5    3   22 1   
     6    3   23 1   
     7    4    5 1   
     8    4   11 1   
     9    6    7 1   
    10    6    8 1   
    11    7   24 1   
    12    7   25 1   
    13    8   26 1   
    14    9   10 1   
    15    9   11 1   
    16   12   13 1   
    17   12   27 1   
    18   13   14 1   
    19   14   28 1   
    20   14   29 1   
    21   15   16 1   
    22   16   17 1   
    23   16   18 1   
    24   17   19 1   
    25   18   20 1   
    26   19   20 1   
@<TRIPOS>SUBSTRUCTURE
     1 AIQ         1 TEMP              0 ****  ****    0 ROOT
