@<TRIPOS>MOLECULE
AIQ
   34    36     1     0     0
SMALL
bcc


@<TRIPOS>ATOM
      1 C1         -0.2710    0.1220    0.0380 ca        1 AIQ     -0.030000
      2 C2          1.0800    0.3490   -0.1740 ca        1 AIQ     -0.121300
      3 C9          1.5110    0.8690   -1.4910 c3        1 AIQ     -0.001000
      4 C3          2.0200    0.1450    0.8970 ca        1 AIQ      0.316400
      5 N3          3.3540    0.3850    0.7070 nc        1 AIQ     -0.789100
      6 C8          4.1990    0.2730    1.7900 cd        1 AIQ      0.781800
      7 N2          5.5300    0.5790    1.6150 nh        1 AIQ     -0.902800
      8 N1          3.7730   -0.1720    3.0480 n         1 AIQ     -0.495400
      9 C7          2.4190   -0.5000    3.2810 c         1 AIQ      0.721100
     10 O1          2.0890   -0.9220    4.3940 o         1 AIQ     -0.539500
     11 C4          1.4940   -0.2980    2.1490 ca        1 AIQ     -0.233600
     12 C5          0.1370   -0.5290    2.3520 ca        1 AIQ      0.030000
     13 C6         -0.7520   -0.3180    1.2920 ca        1 AIQ     -0.146400
     14 N4         -2.1830   -0.5300    1.4860 n4        1 AIQ     -0.689000
     15 S1          1.5060   -0.3430   -2.7820 ss        1 AIQ     -0.011000
     16 C10         3.0700   -0.9270   -2.9830 cc        1 AIQ      0.071300
     17 N5          4.2200   -0.6810   -2.2550 na        1 AIQ     -0.144100
     18 N6          3.4150   -1.7900   -4.0140 na        1 AIQ     -0.144100
     19 C11         5.2880   -1.3880   -2.8290 cc        1 AIQ     -0.101300
     20 C12         4.7820   -2.0840   -3.9300 cd        1 AIQ     -0.101300
     21 H11        -0.9800    0.3010   -0.7910 ha        1 AIQ      0.157000
     22 H91         2.4760    1.4310   -1.4250 h1        1 AIQ      0.127200
     23 H92         0.7490    1.6090   -1.8780 h1        1 AIQ      0.127200
     24 HN21        4.2760   -0.0970   -1.4500 hn        1 AIQ      0.364200
     25 HN22        5.8210    1.0360    0.7820 hn        1 AIQ      0.471800
     26 HN11        4.4110   -0.2690    3.8150 hn        1 AIQ      0.369500
     27 H51        -0.1950   -0.8710    3.3520 ha        1 AIQ      0.190000
     28 HN41       -2.3590   -0.9120    2.4240 hn        1 AIQ      0.468800
     29 HN42       -2.5380   -1.1910    0.7840 hn        1 AIQ      0.468800
     30 HN61        2.7850   -2.1310   -4.7080 hn        1 AIQ      0.364200
     31 H111        6.3050   -1.3430   -2.4260 h4        1 AIQ      0.240000
     32 H121        5.2810   -2.7510   -4.6450 h4        1 AIQ      0.240000
     33 H23         6.1600    0.5700    2.3860 hn        1 AIQ      0.471800
     34 H43        -2.6830    0.3630    1.3900 hn        1 AIQ      0.468800
@<TRIPOS>BOND
     1    1    2 ar  
     2    1   13 ar  
     3    1   21 1   
     4    2    3 1   
     5    2    4 ar  
     6    3   15 1   
     7    3   22 1   
     8    3   23 1   
     9    4    5 1   
    10    4   11 ar  
    11    5    6 2   
    12    6    7 1   
    13    6    8 1   
    14    7   25 1   
    15    7   33 1   
    16    8    9 1   
    17    8   26 1   
    18    9   10 2   
    19    9   11 1   
    20   11   12 ar  
    21   12   13 ar  
    22   12   27 1   
    23   13   14 1   
    24   14   28 1   
    25   14   29 1   
    26   14   34 1   
    27   15   16 1   
    28   16   17 2   
    29   16   18 1   
    30   17   19 1   
    31   17   24 1   
    32   18   20 1   
    33   18   30 1   
    34   19   20 2   
    35   19   31 1   
    36   20   32 1   
@<TRIPOS>SUBSTRUCTURE
     1 AIQ         1 TEMP              0 ****  ****    0 ROOT
