@<TRIPOS>MOLECULE
AIQ
   32    34     1     0     0
SMALL
bcc


@<TRIPOS>ATOM
      1 C1          0.0400    0.1070   -0.0440 ca        1 AIQ     -0.126000
      2 C2          1.4290    0.1100   -0.0290 ca        1 AIQ     -0.054300
      3 C9          2.1520    0.1870   -1.3190 c3        1 AIQ      0.048000
      4 C3          2.1240    0.0550    1.2140 ca        1 AIQ      0.189400
      5 N3          3.5170    0.0810    1.2450 nc        1 AIQ     -0.669100
      6 C8          4.1330   -0.0070    2.4300 cd        1 AIQ      0.655800
      7 N2          5.5490   -0.1140    2.4790 nv        1 AIQ     -0.881800
      8 N1          3.4470   -0.0600    3.6660 ns        1 AIQ     -0.503400
      9 C7          2.0440   -0.0920    3.7000 c         1 AIQ      0.716100
     10 O1          1.4850   -0.1750    4.8090 o         1 AIQ     -0.623500
     11 C4          1.3500   -0.0160    2.4010 ca        1 AIQ     -0.168600
     12 C5         -0.0450   -0.0250    2.3750 ca        1 AIQ     -0.114000
     13 C6         -0.7260    0.0460    1.1480 ca        1 AIQ      0.106600
     14 N4         -2.1230    0.1420    1.1010 nv        1 AIQ     -0.811200
     15 S1          2.3200   -1.4950   -1.8910 ss        1 AIQ     -0.255400
     16 C10         3.1660   -1.3210   -3.3500 cc        1 AIQ      0.464800
     17 N5          3.3500   -0.1820   -4.0740 nd        1 AIQ     -0.680000
     18 N6          3.7880   -2.4100   -3.9810 na        1 AIQ     -0.296900
     19 C11         4.0960   -0.5480   -5.1860 cd        1 AIQ      0.300200
     20 C12         4.3710   -1.9290   -5.1510 cc        1 AIQ     -0.259600
     21 H11        -0.4770    0.1590   -1.0170 ha        1 AIQ      0.145000
     22 H91         3.1560    0.6670   -1.2230 h1        1 AIQ      0.096200
     23 H92         1.5710    0.7810   -2.0690 h1        1 AIQ      0.096200
     24 HN21        5.9760    0.4450    3.1860 hn        1 AIQ      0.411800
     25 HN22        5.9870   -0.0160    1.5860 hn        1 AIQ      0.411800
     26 HN11        3.9440   -0.1770    4.5210 hn        1 AIQ      0.336500
     27 H51        -0.5910   -0.0790    3.3320 ha        1 AIQ      0.160000
     28 HN41       -2.5240   -0.1780    0.2470 hn        1 AIQ      0.390300
     29 HN42       -2.5810   -0.2220    1.9080 hn        1 AIQ      0.390300
     30 HN61        3.7830   -3.3430   -3.6650 hn        1 AIQ      0.305700
     31 H111        4.3910    0.1810   -5.9390 h4        1 AIQ      0.041100
     32 H121        4.9110   -2.5740   -5.8400 h4        1 AIQ      0.177000
@<TRIPOS>BOND
     1    1    2 ar  
     2    1   13 ar  
     3    1   21 1   
     4    2    3 1   
     5    2    4 ar  
     6    3   15 1   
     7    3   22 1   
     8    3   23 1   
     9    4    5 1   
    10    4   11 ar  
    11    5    6 2   
    12    6    7 1   
    13    6    8 1   
    14    7   24 1   
    15    7   25 1   
    16    8    9 1   
    17    8   26 1   
    18    9   10 2   
    19    9   11 1   
    20   11   12 ar  
    21   12   13 ar  
    22   12   27 1   
    23   13   14 1   
    24   14   28 1   
    25   14   29 1   
    26   15   16 1   
    27   16   17 2   
    28   16   18 1   
    29   17   19 1   
    30   18   20 1   
    31   18   30 1   
    32   19   20 2   
    33   19   31 1   
    34   20   32 1   
@<TRIPOS>SUBSTRUCTURE
     1 AIQ         1 TEMP              0 ****  ****    0 ROOT
