@<TRIPOS>MOLECULE
AIR
   31    32     1     0     0
SMALL
bcc


@<TRIPOS>ATOM
      1 N1          0.0270   -0.0950    0.1810 na        1 AIR     -0.213900
      2 C2          1.2640   -0.6530    0.4870 cc        1 AIR      0.424400
      3 N3          1.6890   -0.2870    1.7210 nd        1 AIR     -0.723000
      4 C4          0.6970    0.5340    2.2400 cd        1 AIR      0.292200
      5 C5         -0.3620    0.6790    1.3070 cc        1 AIR     -0.087000
      6 N6         -1.5460    1.4300    1.4420 nh        1 AIR     -0.747200
      7 C1'        -0.8010   -0.3160   -0.9870 c3        1 AIR      0.216800
      8 C2'        -1.2180    0.9960   -1.7310 c3        1 AIR      0.091100
      9 C3'        -1.0670    0.6510   -3.2280 c3        1 AIR      0.136100
     10 C4'        -0.4640   -0.7660   -3.2710 c3        1 AIR      0.069100
     11 O4'        -0.1150   -1.1510   -1.9140 os        1 AIR     -0.439600
     12 O2'        -2.5120    1.3630   -1.3010 oh        1 AIR     -0.645800
     13 O3'        -2.3400    0.6720   -3.8310 oh        1 AIR     -0.695800
     14 C5'         0.7900   -0.8840   -4.1710 c3        1 AIR      0.239400
     15 O5'         0.4370   -1.3290   -5.4150 os        1 AIR     -0.558200
     16 P           0.3670   -0.0740   -6.6250 p5        1 AIR      1.336900
     17 O6         -0.0430   -0.8060   -7.8640 o         1 AIR     -0.930500
     18 O7         -0.6930    0.7900   -5.9650 o         1 AIR     -0.930500
     19 O8          1.7520    0.4980   -6.5530 o         1 AIR     -0.930500
     20 HC2         1.7930   -1.2970   -0.2270 h5        1 AIR      0.079100
     21 HC4         0.7700    0.9810    3.2280 h4        1 AIR      0.023100
     22 HN61       -2.3370    0.8920    1.1250 hn        1 AIR      0.363800
     23 HN62       -1.4910    2.2480    0.8550 hn        1 AIR      0.363800
     24 HC1'       -1.7310   -0.8620   -0.6380 h2        1 AIR      0.046700
     25 HC2'       -0.5500    1.8560   -1.4590 h1        1 AIR      0.063700
     26 HC3'       -0.3920    1.3910   -3.7430 h1        1 AIR      0.120700
     27 HC4'       -1.2410   -1.5010   -3.6170 h1        1 AIR      0.068700
     28 HO'2       -3.1380    1.1490   -2.0090 ho        1 AIR      0.441000
     29 HO'3       -2.1650    0.7110   -4.8060 ho        1 AIR      0.520000
     30 HC51        1.4770   -1.6340   -3.6780 h1        1 AIR      0.003200
     31 HC52        1.3130    0.1120   -4.2270 h1        1 AIR      0.003200
@<TRIPOS>BOND
     1    1    2 1   
     2    1    5 1   
     3    1    7 1   
     4    2    3 2   
     5    2   20 1   
     6    3    4 1   
     7    4    5 2   
     8    4   21 1   
     9    5    6 1   
    10    6   22 1   
    11    6   23 1   
    12    7    8 1   
    13    7   11 1   
    14    7   24 1   
    15    8    9 1   
    16    8   12 1   
    17    8   25 1   
    18    9   10 1   
    19    9   13 1   
    20    9   26 1   
    21   10   11 1   
    22   10   14 1   
    23   10   27 1   
    24   12   28 1   
    25   13   29 1   
    26   14   15 1   
    27   14   30 1   
    28   14   31 1   
    29   15   16 1   
    30   16   17 1   
    31   16   18 1   
    32   16   19 1   
@<TRIPOS>SUBSTRUCTURE
     1 AIR         1 TEMP              0 ****  ****    0 ROOT
