@<TRIPOS>MOLECULE
AIR
   31    28     1     0     0
SMALL
bcc


@<TRIPOS>ATOM
      1 N1          1.2070    0.8180    1.4890 n2        1 AIR     -0.185500
      2 C2          1.8900   -0.2950    1.8510 c1        1 AIR     -0.073000
      3 N3          2.4990   -0.0470    3.0360 n2        1 AIR     -0.185500
      4 C4          2.1980    1.2020    3.4010 c1        1 AIR     -0.135500
      5 C5          1.3910    1.7420    2.4360 c1        1 AIR     -0.135500
      6 N6          0.8270    3.0430    2.4530 n2        1 AIR     -0.258000
      7 C1'         0.4460    0.9710    0.3370 c2        1 AIR      0.129000
      8 C2'         1.1950    0.7600   -0.7350 c3        1 AIR     -0.094000
      9 C3'         0.2450    0.1080   -1.7650 c3        1 AIR      0.165000
     10 C4'        -1.0590   -0.2830   -0.9560 c3        1 AIR     -0.066000
     11 O4'        -0.7370   -0.1500    0.2930 os        1 AIR     -0.274000
     12 O2'         1.7120    2.0380   -1.2550 oh        1 AIR     -0.394000
     13 O3'        -0.0530    0.9710   -2.7280 oh        1 AIR     -0.707000
     14 C5'        -1.4490   -1.7210   -1.2490 c3        1 AIR      0.022000
     15 O5'        -2.8470   -1.8560   -1.1580 os        1 AIR     -0.748000
     16 P          -3.4650   -3.3110   -1.1580 p5        1 AIR      1.577500
     17 O6         -2.7170   -4.1750   -2.1440 o         1 AIR     -0.730500
     18 O7         -3.3480   -3.9080    0.2240 o         1 AIR     -0.730500
     19 O8         -4.9210   -3.2390   -1.5540 o         1 AIR     -0.730500
     20 HC2         1.9350   -1.1300    1.3470 DU        1 AIR      0.186000
     21 HC4         2.4990    1.6510    4.2140 DU        1 AIR      0.186000
     22 HN61        1.1320    3.6660    3.0480 hn        1 AIR      0.157500
     23 HN62        0.1570    3.2580    1.8690 hn        1 AIR      0.157500
     24 HC1'        0.0590    1.8700    0.3050 h4        1 AIR      0.089000
     25 HC2'        1.9330    0.1550   -0.5210 h1        1 AIR      0.076000
     26 HC3'        0.6580   -0.6930   -2.1450 h1        1 AIR     -0.013000
     27 HC4'       -1.7930    0.3210   -1.1830 h1        1 AIR      0.112000
     28 HO'2        2.5650    1.9410   -1.4850 ho        1 AIR      0.242000
     29 HO'3        0.0160    0.5690   -3.5190 ho        1 AIR      0.223000
     30 HC51       -1.0200   -2.3150   -0.5970 h1        1 AIR      0.068500
     31 HC52       -1.1550   -1.9620   -2.1520 h1        1 AIR      0.068500
@<TRIPOS>BOND
     1    1    2 1   
     2    1    5 1   
     3    2    3 1   
     4    3    4 1   
     5    4    5 1   
     6    6   22 1   
     7    6   23 1   
     8    7    8 1   
     9    7   11 1   
    10    7   24 1   
    11    8    9 1   
    12    8   12 1   
    13    8   25 1   
    14    9   10 1   
    15    9   13 1   
    16    9   26 1   
    17   10   11 1   
    18   10   14 1   
    19   10   27 1   
    20   12   28 1   
    21   13   29 1   
    22   14   15 1   
    23   14   30 1   
    24   14   31 1   
    25   15   16 1   
    26   16   17 1   
    27   16   18 1   
    28   16   19 1   
@<TRIPOS>SUBSTRUCTURE
     1 AIR         1 TEMP              0 ****  ****    0 ROOT
