@<TRIPOS>MOLECULE
AIR
   31    32     1     0     0
SMALL
bcc


@<TRIPOS>ATOM
      1 N1         -0.9080    0.2140    2.8400 na        1 AIR     -0.213900
      2 C2         -2.2700   -0.0440    2.7190 cc        1 AIR      0.424400
      3 N3         -2.8180   -0.4160    3.9020 nd        1 AIR     -0.723000
      4 C4         -1.7810   -0.3980    4.8260 cd        1 AIR      0.292200
      5 C5         -0.5690   -0.0090    4.2010 cc        1 AIR     -0.087000
      6 N6          0.7080    0.1260    4.7810 nh        1 AIR     -0.747200
      7 C1'         0.0070    0.7220    1.8380 c3        1 AIR      0.216800
      8 C2'         1.2780   -0.1660    1.6260 c3        1 AIR      0.091100
      9 C3'         1.4750   -0.1930    0.0950 c3        1 AIR      0.136100
     10 C4'         0.2660    0.5590   -0.4930 c3        1 AIR      0.069100
     11 O4'        -0.6620    0.8420    0.5880 os        1 AIR     -0.439600
     12 O2'         2.3370    0.3770    2.3840 oh        1 AIR     -0.645800
     13 O3'         2.6780    0.4690   -0.2200 oh        1 AIR     -0.695800
     14 C5'        -0.4740   -0.2230   -1.6070 c3        1 AIR      0.239400
     15 O5'        -0.0210    0.1680   -2.8370 os        1 AIR     -0.558200
     16 P           1.1030   -0.9480   -3.5670 p5        1 AIR      1.336900
     17 O6          1.4460   -0.2970   -4.8700 o         1 AIR     -0.930500
     18 O7          2.1680   -0.9050   -2.4860 o         1 AIR     -0.930500
     19 O8          0.3050   -2.2180   -3.5870 o         1 AIR     -0.930500
     20 HC2        -2.7870    0.0490    1.7550 h5        1 AIR      0.079100
     21 HC4        -1.9290   -0.6580    5.8700 h4        1 AIR      0.023100
     22 HN61        1.2950   -0.6340    4.4740 hn        1 AIR      0.363800
     23 HN62        1.1430    0.9800    4.4700 hn        1 AIR      0.363800
     24 HC1'        0.3240    1.7580    2.1720 h2        1 AIR      0.046700
     25 HC2'        1.1240   -1.2080    2.0180 h1        1 AIR      0.063700
     26 HC3'        1.5140   -1.2520   -0.2860 h1        1 AIR      0.120700
     27 HC4'        0.5950    1.5560   -0.8950 h1        1 AIR      0.068700
     28 HO'2        2.9460    0.8220    1.7770 ho        1 AIR      0.441000
     29 HO'3        2.8870    0.1980   -1.1500 ho        1 AIR      0.520000
     30 HC51       -0.3330   -1.3290   -1.4530 h1        1 AIR      0.003200
     31 HC52       -1.5710    0.0260   -1.5070 h1        1 AIR      0.003200
@<TRIPOS>BOND
     1    1    2 1   
     2    1    5 1   
     3    1    7 1   
     4    2    3 2   
     5    2   20 1   
     6    3    4 1   
     7    4    5 2   
     8    4   21 1   
     9    5    6 1   
    10    6   22 1   
    11    6   23 1   
    12    7    8 1   
    13    7   11 1   
    14    7   24 1   
    15    8    9 1   
    16    8   12 1   
    17    8   25 1   
    18    9   10 1   
    19    9   13 1   
    20    9   26 1   
    21   10   11 1   
    22   10   14 1   
    23   10   27 1   
    24   12   28 1   
    25   13   29 1   
    26   14   15 1   
    27   14   30 1   
    28   14   31 1   
    29   15   16 1   
    30   16   17 1   
    31   16   18 1   
    32   16   19 1   
@<TRIPOS>SUBSTRUCTURE
     1 AIR         1 TEMP              0 ****  ****    0 ROOT
