@<TRIPOS>MOLECULE
AIR
   31    32     1     0     0
SMALL
bcc


@<TRIPOS>ATOM
      1 N1          0.0510   -0.0540    0.1810 na        1 AIR     -0.213900
      2 C2          1.3060   -0.5730    0.4840 cc        1 AIR      0.424400
      3 N3          1.7300   -0.1790    1.7110 nd        1 AIR     -0.723000
      4 C4          0.7170    0.6200    2.2270 cd        1 AIR      0.292200
      5 C5         -0.3520    0.7230    1.3000 cc        1 AIR     -0.087000
      6 N6         -1.5560    1.4420    1.4340 nh        1 AIR     -0.747200
      7 C1'        -0.7780   -0.3140   -0.9780 c3        1 AIR      0.216800
      8 C2'        -1.2380    0.9760   -1.7350 c3        1 AIR      0.091100
      9 C3'        -1.0880    0.6170   -3.2290 c3        1 AIR      0.136100
     10 C4'        -0.4460   -0.7830   -3.2580 c3        1 AIR      0.069100
     11 O4'        -0.0760   -1.1410   -1.8990 os        1 AIR     -0.439600
     12 O2'        -2.5390    1.3120   -1.3000 oh        1 AIR     -0.645800
     13 O3'        -2.3650    0.5940   -3.8220 oh        1 AIR     -0.695800
     14 C5'         0.8050   -0.8780   -4.1670 c3        1 AIR      0.239400
     15 O5'         0.4540   -1.3490   -5.4020 os        1 AIR     -0.558200
     16 P           0.3410   -0.1120   -6.6280 p5        1 AIR      1.336900
     17 O6         -0.0580   -0.8710   -7.8540 o         1 AIR     -0.930500
     18 O7         -0.7380    0.7310   -5.9700 o         1 AIR     -0.930500
     19 O8          1.7090    0.4990   -6.5740 o         1 AIR     -0.930500
     20 HC2         1.8480   -1.2110   -0.2260 h5        1 AIR      0.079100
     21 HC4         0.7860    1.0810    3.2080 h4        1 AIR      0.023100
     22 HN61       -1.5280    2.2530    0.8370 hn        1 AIR      0.363800
     23 HN62       -2.3330    0.8770    1.1310 hn        1 AIR      0.363800
     24 HC1'       -1.6900   -0.8810   -0.6140 h2        1 AIR      0.046700
     25 HC2'       -0.5930    1.8590   -1.4790 h1        1 AIR      0.063700
     26 HC3'       -0.4380    1.3690   -3.7580 h1        1 AIR      0.120700
     27 HC4'       -1.2040   -1.5440   -3.5880 h1        1 AIR      0.068700
     28 HO'2       -3.1630    1.0720   -2.0000 ho        1 AIR      0.441000
     29 HO'3       -2.1990    0.6260   -4.7990 ho        1 AIR      0.520000
     30 HC51        1.2990    0.1310   -4.2400 h1        1 AIR      0.003200
     31 HC52        1.5160   -1.6020   -3.6690 h1        1 AIR      0.003200
@<TRIPOS>BOND
     1    1    2 1   
     2    1    5 1   
     3    1    7 1   
     4    2    3 2   
     5    2   20 1   
     6    3    4 1   
     7    4    5 2   
     8    4   21 1   
     9    5    6 1   
    10    6   22 1   
    11    6   23 1   
    12    7    8 1   
    13    7   11 1   
    14    7   24 1   
    15    8    9 1   
    16    8   12 1   
    17    8   25 1   
    18    9   10 1   
    19    9   13 1   
    20    9   26 1   
    21   10   11 1   
    22   10   14 1   
    23   10   27 1   
    24   12   28 1   
    25   13   29 1   
    26   14   15 1   
    27   14   30 1   
    28   14   31 1   
    29   15   16 1   
    30   16   17 1   
    31   16   18 1   
    32   16   19 1   
@<TRIPOS>SUBSTRUCTURE
     1 AIR         1 TEMP              0 ****  ****    0 ROOT
