@<TRIPOS>MOLECULE
AIR
   31    32     1     0     0
SMALL
bcc


@<TRIPOS>ATOM
      1 N1          0.0000   -0.2800   -0.0400 na        1 AIR     -0.208900
      2 C2          1.2160   -0.9500   -0.1040 cc        1 AIR      0.415400
      3 N3          1.9230   -0.8210    1.0480 nd        1 AIR     -0.733000
      4 C4          1.1410   -0.0430    1.8900 cd        1 AIR      0.279200
      5 C5         -0.0710    0.3160    1.2440 cc        1 AIR     -0.093000
      6 N6         -1.1300    1.1030    1.7450 nv        1 AIR     -0.749200
      7 C1'        -1.0840   -0.2370   -1.0140 c3        1 AIR      0.220800
      8 C2'        -1.5240    1.1980   -1.3990 c3        1 AIR      0.017100
      9 C3'        -1.7600    1.1370   -2.9690 c3        1 AIR      0.365800
     10 C4'        -0.9620   -0.1490   -3.3740 c3        1 AIR      0.045100
     11 O4'        -0.7190   -0.9440   -2.1910 os        1 AIR     -0.417600
     12 O2'        -2.7040    1.5180   -0.7030 oh        1 AIR     -0.666800
     13 O3'        -3.0450    1.1110   -3.2470 o         1 AIR     -0.868500
     14 C5'         0.3740    0.1720   -4.0480 c3        1 AIR      0.172400
     15 O5'         0.9080   -0.9440   -4.6960 os        1 AIR     -0.586200
     16 P           1.1860   -0.8320   -6.3170 p5        1 AIR      1.429800
     17 O6          2.0100   -1.9800   -6.7450 o         1 AIR     -0.847500
     18 O7         -0.3580   -1.0500   -6.8100 oh        1 AIR     -0.783400
     19 O8          1.4900    0.5860   -6.6220 o         1 AIR     -0.847500
     20 HC2         1.5240   -1.4920   -1.0080 h5        1 AIR      0.083100
     21 HC4         1.4580    0.2270    2.8930 h4        1 AIR      0.015100
     22 HN61       -1.1290    1.9940    1.2720 hn        1 AIR      0.362300
     23 HN62       -2.0120    0.6640    1.5310 hn        1 AIR      0.362300
     24 HC1'       -1.9500   -0.8020   -0.5490 h2        1 AIR      0.049700
     25 HC2'       -0.7620    1.9690   -1.1250 h1        1 AIR      0.036700
     26 HC3'       -1.2120    2.0330   -3.4000 h1        1 AIR     -0.052300
     27 HC4'       -1.5890   -0.8100   -4.0290 h1        1 AIR      0.072700
     28 HO'2       -3.4350    1.4420   -1.3540 ho        1 AIR      0.443000
     29 HO'3       -0.9380   -0.3600   -6.5110 ho        1 AIR      0.424000
     30 HC51        1.1050    0.5010   -3.2560 h1        1 AIR      0.029200
     31 HC52        0.2270    1.0120   -4.7860 h1        1 AIR      0.029200
@<TRIPOS>BOND
     1    1    2 1   
     2    1    5 1   
     3    1    7 1   
     4    2    3 2   
     5    2   20 1   
     6    3    4 1   
     7    4    5 2   
     8    4   21 1   
     9    5    6 1   
    10    6   22 1   
    11    6   23 1   
    12    7    8 1   
    13    7   11 1   
    14    7   24 1   
    15    8    9 1   
    16    8   12 1   
    17    8   25 1   
    18    9   10 1   
    19    9   13 1   
    20    9   26 1   
    21   10   11 1   
    22   10   14 1   
    23   10   27 1   
    24   12   28 1   
    25   14   15 1   
    26   14   30 1   
    27   14   31 1   
    28   15   16 1   
    29   16   17 1   
    30   16   18 1   
    31   16   19 1   
    32   18   29 1   
@<TRIPOS>SUBSTRUCTURE
     1 AIR         1 TEMP              0 ****  ****    0 ROOT
