@<TRIPOS>MOLECULE
AIS
   28    29     1     0     0
SMALL
bcc


@<TRIPOS>ATOM
      1 O2'        -0.0260    2.7120    0.2200 oh        1 AIS     -0.581800
      2 C2'        -0.3950    1.4470   -0.2620 c3        1 AIS      0.113100
      3 C3'        -1.9100    1.2370   -0.4620 c3        1 AIS      0.089100
      4 O3'        -2.5740    2.2820    0.2240 oh        1 AIS     -0.596800
      5 C4'        -2.2120   -0.1330    0.1690 c3        1 AIS      0.055100
      6 C5'        -2.3780   -1.2340   -0.8780 c3        1 AIS      0.112400
      7 O5'        -2.7790   -2.4450   -0.2760 oh        1 AIS     -0.587800
      8 O4'        -1.1210   -0.4720    1.0390 os        1 AIS     -0.407600
      9 C1'         0.0330    0.3300    0.7540 c3        1 AIS      0.217800
     10 N1          1.1170   -0.4840    0.2690 na        1 AIS     -0.257900
     11 C2          1.1350   -1.8580   -0.0340 cc        1 AIS      0.392400
     12 N3          2.3650   -2.2720   -0.3830 nd        1 AIS     -0.645000
     13 C4          3.1940   -1.1560   -0.3030 cd        1 AIS      0.243200
     14 C5          2.4490   -0.0210    0.1120 cc        1 AIS     -0.012000
     15 N6          2.8900    1.2700    0.4180 nh        1 AIS     -0.779200
     16 H1         -0.6350    2.9630    0.9290 ho        1 AIS      0.434000
     17 H2'         0.1410    1.3510   -1.2470 h1        1 AIS      0.100700
     18 H3'        -2.1800    1.2550   -1.5510 h1        1 AIS      0.068700
     19 H3         -3.5180    2.1850    0.0460 ho        1 AIS      0.422000
     20 H4'        -3.1120   -0.0950    0.8440 h1        1 AIS      0.097700
     21 H5'1       -3.2060   -0.9760   -1.5900 h1        1 AIS      0.057200
     22 H5'2       -1.4160   -1.3780   -1.4400 h1        1 AIS      0.057200
     23 H5'        -2.1200   -2.6600    0.3990 ho        1 AIS      0.414000
     24 H1'         0.3360    0.7910    1.7440 h2        1 AIS      0.102700
     25 H2          0.2300   -2.4700    0.0330 h5        1 AIS      0.061100
     26 H4          4.2570   -1.2130   -0.5260 h4        1 AIS      0.045100
     27 HN61        3.7200    1.4900   -0.0940 hn        1 AIS      0.392800
     28 HN62        2.1860    1.9750    0.3090 hn        1 AIS      0.392800
@<TRIPOS>BOND
     1    1    2 1   
     2    1   16 1   
     3    2    3 1   
     4    2    9 1   
     5    2   17 1   
     6    3    4 1   
     7    3    5 1   
     8    3   18 1   
     9    4   19 1   
    10    5    6 1   
    11    5    8 1   
    12    5   20 1   
    13    6    7 1   
    14    6   21 1   
    15    6   22 1   
    16    7   23 1   
    17    8    9 1   
    18    9   10 1   
    19    9   24 1   
    20   10   11 1   
    21   10   14 1   
    22   11   12 2   
    23   11   25 1   
    24   12   13 1   
    25   13   14 2   
    26   13   26 1   
    27   14   15 1   
    28   15   27 1   
    29   15   28 1   
@<TRIPOS>SUBSTRUCTURE
     1 AIS         1 TEMP              0 ****  ****    0 ROOT
