@<TRIPOS>MOLECULE
AIS
   29    30     1     0     0
SMALL
bcc


@<TRIPOS>ATOM
      1 O2'        -0.1220    0.3410   -0.1470 oh        1 AIS     -0.645800
      2 C2'         1.2650    0.3560    0.0810 c3        1 AIS      0.099100
      3 C3'         1.7160    0.4640    1.5510 c3        1 AIS      0.100100
      4 O3'         0.6520    1.0480    2.2740 oh        1 AIS     -0.605800
      5 C4'         2.9330    1.4110    1.5090 c3        1 AIS      0.074100
      6 C5'         4.2570    0.6490    1.6290 c3        1 AIS      0.113400
      7 O5'         4.2710   -0.0870    2.8310 oh        1 AIS     -0.589800
      8 O4'         2.9200    2.1170    0.2520 os        1 AIS     -0.392600
      9 C1'         1.8790    1.6300   -0.5930 c3        1 AIS      0.205800
     10 N1          2.4010    1.3860   -1.9230 na        1 AIS     -0.198900
     11 C2          3.6400    1.7180   -2.4580 cc        1 AIS      0.511400
     12 N3          3.7230    1.4060   -3.7820 nd        1 AIS     -0.637000
     13 C4          2.5080    0.8640   -4.1380 cd        1 AIS      0.429200
     14 C5          1.6520    0.8380   -2.9990 cc        1 AIS     -0.292000
     15 N6          0.3020    0.3550   -2.8950 n4        1 AIS     -0.649000
     16 H1         -0.5810    0.7200    0.6200 ho        1 AIS      0.472000
     17 H2'         1.6640   -0.5960   -0.3690 h1        1 AIS      0.092700
     18 H3'         2.0040   -0.5370    1.9710 h1        1 AIS      0.109700
     19 H3          0.6910    0.7130    3.1800 ho        1 AIS      0.446000
     20 H4'         2.8480    2.2080    2.2980 h1        1 AIS      0.106700
     21 H5'1        4.3460   -0.1150    0.8100 h1        1 AIS      0.067700
     22 H5'2        5.1140    1.3680    1.5620 h1        1 AIS      0.067700
     23 H5'         4.5950    0.4940    3.5320 ho        1 AIS      0.420000
     24 H1'         1.1030    2.4540   -0.6690 h2        1 AIS      0.100700
     25 H2          4.4350    2.1840   -1.8530 h5        1 AIS      0.110100
     26 H4          2.2980    0.5250   -5.1560 h4        1 AIS      0.074100
     27 HN61       -0.2650    0.9790   -2.2980 hn        1 AIS      0.470800
     28 HN62        0.2950   -0.5790   -2.4600 hn        1 AIS      0.470800
     29 H63        -0.0990    0.3070   -3.8370 hn        1 AIS      0.470800
@<TRIPOS>BOND
     1    1    2 1   
     2    1   16 1   
     3    2    3 1   
     4    2    9 1   
     5    2   17 1   
     6    3    4 1   
     7    3    5 1   
     8    3   18 1   
     9    4   19 1   
    10    5    6 1   
    11    5    8 1   
    12    5   20 1   
    13    6    7 1   
    14    6   21 1   
    15    6   22 1   
    16    7   23 1   
    17    8    9 1   
    18    9   10 1   
    19    9   24 1   
    20   10   11 1   
    21   10   14 1   
    22   11   12 2   
    23   11   25 1   
    24   12   13 1   
    25   13   14 2   
    26   13   26 1   
    27   14   15 1   
    28   15   27 1   
    29   15   28 1   
    30   15   29 1   
@<TRIPOS>SUBSTRUCTURE
     1 AIS         1 TEMP              0 ****  ****    0 ROOT
