@<TRIPOS>MOLECULE
AIS
   28    29     1     0     0
SMALL
bcc


@<TRIPOS>ATOM
      1 O2'        -0.3210    0.4060    0.5210 oh        1 AIS     -0.593800
      2 C2'         1.0360    0.1730    0.2100 c3        1 AIS      0.081100
      3 C3'         1.7940   -0.1330    1.5210 c3        1 AIS      0.132100
      4 O3'         0.9540   -0.3040    2.6340 oh        1 AIS     -0.572800
      5 C4'         2.7700    1.0430    1.7110 c3        1 AIS      0.052100
      6 C5'         4.2310    0.6030    1.6270 c3        1 AIS      0.115400
      7 O5'         5.1080    1.6900    1.8290 oh        1 AIS     -0.589800
      8 O4'         2.5220    2.0220    0.6880 os        1 AIS     -0.416600
      9 C1'         1.6630    1.5020   -0.3300 c3        1 AIS      0.225800
     10 N1          2.3790    1.3380   -1.5730 na        1 AIS     -0.228900
     11 C2          3.7520    1.4500   -1.8270 cc        1 AIS      0.410400
     12 N3          4.0440    1.2000   -3.1200 nd        1 AIS     -0.657000
     13 C4          2.8330    0.9220   -3.7430 cd        1 AIS      0.274200
     14 C5          1.7700    0.9980   -2.8070 cc        1 AIS     -0.073000
     15 N6          0.3920    0.7390   -2.9390 nh        1 AIS     -0.779200
     16 H1         -0.8210    0.2720   -0.2940 ho        1 AIS      0.429000
     17 H2'         1.1410   -0.6730   -0.5180 h1        1 AIS      0.086700
     18 H3'         2.3490   -1.1080    1.4360 h1        1 AIS      0.095700
     19 H3          0.2960    0.4060    2.6300 ho        1 AIS      0.425000
     20 H4'         2.5820    1.5810    2.6810 h1        1 AIS      0.100700
     21 H5'1        4.4350    0.1250    0.6310 h1        1 AIS      0.057200
     22 H5'2        4.4640   -0.1200    2.4540 h1        1 AIS      0.057200
     23 H5'         4.8420    2.3910    1.2200 ho        1 AIS      0.410000
     24 H1'         0.8600    2.2860   -0.4790 h2        1 AIS      0.097700
     25 H2          4.4640    1.7300   -1.0420 h5        1 AIS      0.068100
     26 H4          2.7770    0.6780   -4.8030 h4        1 AIS      0.043100
     27 HN61        0.2340    0.2000   -3.7690 hn        1 AIS      0.376300
     28 HN62       -0.1260    1.5990   -2.9860 hn        1 AIS      0.376300
@<TRIPOS>BOND
     1    1    2 1   
     2    1   16 1   
     3    2    3 1   
     4    2    9 1   
     5    2   17 1   
     6    3    4 1   
     7    3    5 1   
     8    3   18 1   
     9    4   19 1   
    10    5    6 1   
    11    5    8 1   
    12    5   20 1   
    13    6    7 1   
    14    6   21 1   
    15    6   22 1   
    16    7   23 1   
    17    8    9 1   
    18    9   10 1   
    19    9   24 1   
    20   10   11 1   
    21   10   14 1   
    22   11   12 2   
    23   11   25 1   
    24   12   13 1   
    25   13   14 2   
    26   13   26 1   
    27   14   15 1   
    28   15   27 1   
    29   15   28 1   
@<TRIPOS>SUBSTRUCTURE
     1 AIS         1 TEMP              0 ****  ****    0 ROOT
