@<TRIPOS>MOLECULE
AIS
   28    26     1     0     0
SMALL
bcc


@<TRIPOS>ATOM
      1 O2'        -2.3990   -0.8990    0.2130 oh        1 AIS     -0.305000
      2 C2'        -0.8860   -0.8680    0.2380 c3        1 AIS     -0.026000
      3 C3'        -0.3780   -0.8460    1.6930 c3        1 AIS     -0.029000
      4 O3'        -1.3920   -0.6040    2.5320 oh        1 AIS     -0.315000
      5 C4'         0.6430    0.2890    1.7530 c3        1 AIS     -0.022000
      6 C5'         1.9710   -0.2060    2.4460 c3        1 AIS     -0.035000
      7 O5'         2.8040    0.9390    2.7700 oh        1 AIS     -0.314000
      8 O4'         0.8670    0.6060    0.5200 os        1 AIS     -0.290000
      9 C1'        -0.4560    0.2210   -0.2820 c3        1 AIS      0.117000
     10 N1         -0.1540    0.0140   -1.6700 n3        1 AIS     -0.199000
     11 C2          0.6260   -0.9730   -2.1810 c1        1 AIS     -0.116000
     12 N3          0.6780   -0.8100   -3.5470 n2        1 AIS     -0.109000
     13 C4         -0.0560    0.2550   -3.8630 c1        1 AIS     -0.226000
     14 C5         -0.5800    0.7760   -2.6910 c1        1 AIS      0.006000
     15 N6         -1.3330    1.9880   -2.5720 n2        1 AIS     -0.286000
     16 H1         -2.7200   -0.2440    0.7330 ho        1 AIS      0.222000
     17 H2'        -0.5200   -1.6390   -0.2380 h1        1 AIS      0.147000
     18 H3'         0.0470   -1.6920    1.9130 h1        1 AIS      0.104000
     19 H3         -1.3500   -1.1850    3.2400 ho        1 AIS      0.220000
     20 H4'         0.2760    1.0460    2.2320 h1        1 AIS      0.151000
     21 H5'1        1.7490   -0.6900    3.2660 h1        1 AIS      0.096500
     22 H5'2        2.4450   -0.7880    1.8520 h1        1 AIS      0.096500
     23 H5'         3.4690    0.6800    3.3370 ho        1 AIS      0.210000
     24 H1'        -1.1100    0.9130   -0.1890 h2        1 AIS      0.157000
     25 H2          1.0730   -1.6740   -1.6700 DU        1 AIS      0.187000
     26 H4         -0.2010    0.6090   -4.7670 DU        1 AIS      0.187000
     27 HN61       -1.6110    2.2750   -1.7440 hn        1 AIS      0.185500
     28 HN62       -1.5030    2.5060   -3.3240 hn        1 AIS      0.185500
@<TRIPOS>BOND
     1    1    2 1   
     2    1   16 1   
     3    2    3 1   
     4    2    9 1   
     5    2   17 1   
     6    3    4 1   
     7    3    5 1   
     8    3   18 1   
     9    4   19 1   
    10    5    6 1   
    11    5    8 1   
    12    5   20 1   
    13    6    7 1   
    14    6   21 1   
    15    6   22 1   
    16    7   23 1   
    17    8    9 1   
    18    9   10 1   
    19    9   24 1   
    20   10   11 1   
    21   10   14 1   
    22   11   12 1   
    23   12   13 1   
    24   13   14 1   
    25   15   27 1   
    26   15   28 1   
@<TRIPOS>SUBSTRUCTURE
     1 AIS         1 TEMP              0 ****  ****    0 ROOT
