@<TRIPOS>MOLECULE
AIS
   28    29     1     0     0
SMALL
bcc


@<TRIPOS>ATOM
      1 O2'        -0.3950    0.3380    0.4760 oh        1 AIS     -0.591800
      2 C2'         0.9880    0.1900    0.2390 c3        1 AIS      0.080100
      3 C3'         1.7000   -0.0080    1.5970 c3        1 AIS      0.127100
      4 O3'         0.8290   -0.0200    2.6990 oh        1 AIS     -0.573800
      5 C4'         2.7150    1.1530    1.6850 c3        1 AIS      0.093100
      6 C5'         4.1360    0.6440    1.4410 c3        1 AIS      0.106400
      7 O5'         4.9960    1.7690    1.4400 oh        1 AIS     -0.588800
      8 O4'         2.3450    2.1310    0.7050 os        1 AIS     -0.384600
      9 C1'         1.5540    1.5370   -0.3280 c3        1 AIS      0.215800
     10 N1          2.3280    1.3820   -1.5370 na        1 AIS     -0.226900
     11 C2          3.6870    1.6490   -1.7400 cc        1 AIS      0.411400
     12 N3          4.0660    1.3720   -3.0060 nd        1 AIS     -0.668000
     13 C4          2.9250    0.9220   -3.6610 cd        1 AIS      0.274200
     14 C5          1.8190    0.9160   -2.7740 cc        1 AIS     -0.080000
     15 N6          0.4830    0.5010   -2.9500 nv        1 AIS     -0.779200
     16 H1         -0.8390    0.1880   -0.3700 ho        1 AIS      0.427000
     17 H2'         1.1870   -0.6760   -0.4450 h1        1 AIS      0.083700
     18 H3'         2.2150   -1.0070    1.6340 h1        1 AIS      0.091700
     19 H3          0.1900    0.6980    2.5870 ho        1 AIS      0.425000
     20 H4'         2.6570    1.6970    2.6660 h1        1 AIS      0.107700
     21 H5'1        4.1990    0.1150    0.4510 h1        1 AIS      0.035200
     22 H5'2        4.4190   -0.0660    2.2640 h1        1 AIS      0.035200
     23 H5'         5.8930    1.4280    1.3380 ho        1 AIS      0.405000
     24 H1'         0.7150    2.2710   -0.5250 h2        1 AIS      0.098700
     25 H2          4.3170    2.0550   -0.9340 h5        1 AIS      0.086100
     26 H4          2.9470    0.6230   -4.7070 h4        1 AIS      0.041100
     27 HN61        0.4330   -0.1280   -3.7280 hn        1 AIS      0.373800
     28 HN62       -0.1110    1.2940   -3.1150 hn        1 AIS      0.373800
@<TRIPOS>BOND
     1    1    2 1   
     2    1   16 1   
     3    2    3 1   
     4    2    9 1   
     5    2   17 1   
     6    3    4 1   
     7    3    5 1   
     8    3   18 1   
     9    4   19 1   
    10    5    6 1   
    11    5    8 1   
    12    5   20 1   
    13    6    7 1   
    14    6   21 1   
    15    6   22 1   
    16    7   23 1   
    17    8    9 1   
    18    9   10 1   
    19    9   24 1   
    20   10   11 1   
    21   10   14 1   
    22   11   12 2   
    23   11   25 1   
    24   12   13 1   
    25   13   14 2   
    26   13   26 1   
    27   14   15 1   
    28   15   27 1   
    29   15   28 1   
@<TRIPOS>SUBSTRUCTURE
     1 AIS         1 TEMP              0 ****  ****    0 ROOT
