@<TRIPOS>MOLECULE
AIT
   62    66     1     0     0
SMALL
bcc


@<TRIPOS>ATOM
      1 C1          0.0830    0.1550    0.1820 c3        1 AIT      0.025700
      2 C2          1.5930   -0.0700    0.2990 c3        1 AIT      0.201400
      3 O3          2.0540    0.0210    1.6610 os        1 AIT     -0.322900
      4 C4          1.8970    1.2780    2.2280 ca        1 AIT      0.058100
      5 C5          2.8470    1.6250    3.2040 ca        1 AIT     -0.096000
      6 C6          2.7350    2.8310    3.8770 ca        1 AIT     -0.143000
      7 C7          1.6700    3.6960    3.5590 ca        1 AIT      0.119100
      8 O8          1.6200    4.8810    4.2580 oh        1 AIT     -0.496100
      9 C9          0.7270    3.3570    2.5870 ca        1 AIT     -0.186000
     10 C10         0.8320    2.1340    1.9100 ca        1 AIT     -0.013100
     11 S11        -0.3420    1.8040    0.7390 ss        1 AIT     -0.170000
     12 C12        -0.7890   -0.8620    0.8200 ca        1 AIT     -0.108300
     13 C13        -0.6120   -1.2650    2.1490 ca        1 AIT     -0.075000
     14 C14        -1.4630   -2.2020    2.7290 ca        1 AIT     -0.186000
     15 C15        -2.5070   -2.7460    1.9680 ca        1 AIT      0.129100
     16 O16        -3.3880   -3.6760    2.4710 oh        1 AIT     -0.497100
     17 C17        -2.6980   -2.3580    0.6320 ca        1 AIT     -0.186000
     18 C18        -1.8380   -1.4220    0.0720 ca        1 AIT     -0.075000
     19 C19         2.0170   -1.4060   -0.2290 ca        1 AIT     -0.127300
     20 C20         2.2030   -1.5500   -1.6120 ca        1 AIT     -0.073000
     21 C21         2.6000   -2.7660   -2.1480 ca        1 AIT     -0.184500
     22 C22         2.8210   -3.8610   -1.2870 ca        1 AIT      0.137100
     23 C23         2.6440   -3.7250    0.0950 ca        1 AIT     -0.184500
     24 C24         2.2410   -2.4950    0.6140 ca        1 AIT     -0.073000
     25 O25         3.1970   -5.0250   -1.9250 os        1 AIT     -0.309900
     26 C26         3.5440   -6.1160   -1.0680 c3        1 AIT      0.127400
     27 C27         4.0180   -7.2830   -1.9640 c3        1 AIT      0.193500
     28 C28         2.9200   -7.5820   -2.9840 c3        1 AIT     -0.092100
     29 N29         5.3110   -7.0180   -2.5900 n3        1 AIT     -0.719600
     30 C30         6.3930   -6.7390   -1.6440 c3        1 AIT      0.161800
     31 C31         7.6830   -7.4010   -2.1560 c3        1 AIT     -0.088900
     32 C32         7.2790   -8.2320   -3.3670 c3        1 AIT     -0.088900
     33 C33         5.7580   -8.0680   -3.5070 c3        1 AIT      0.161800
     34 H1         -0.1470    0.1880   -0.9220 h1        1 AIT      0.097700
     35 H2          2.1080    0.7430   -0.2960 h1        1 AIT      0.066700
     36 H5          3.6680    0.9260    3.4260 ha        1 AIT      0.153000
     37 H6          3.4610    3.1250    4.6480 ha        1 AIT      0.155000
     38 HO8         0.8450    5.3750    3.9540 ho        1 AIT      0.420000
     39 H9         -0.1020    4.0400    2.3500 ha        1 AIT      0.145000
     40 H13         0.2130   -0.8390    2.7440 ha        1 AIT      0.142500
     41 H14        -1.3180   -2.5090    3.7740 ha        1 AIT      0.143000
     42 H16        -3.1520   -3.8390    3.3960 ho        1 AIT      0.419000
     43 H17        -3.5200   -2.7980    0.0500 ha        1 AIT      0.143000
     44 H18        -1.9870   -1.1190   -0.9760 ha        1 AIT      0.142500
     45 H20         2.0350   -0.6910   -2.2800 ha        1 AIT      0.140000
     46 H21         2.7500   -2.8930   -3.2300 ha        1 AIT      0.145500
     47 H23         2.8120   -4.5700    0.7760 ha        1 AIT      0.145500
     48 H24         2.0960   -2.3790    1.7000 ha        1 AIT      0.140000
     49 H261        4.3430   -5.7970   -0.3490 h1        1 AIT      0.041200
     50 H262        2.6320   -6.4440   -0.5010 h1        1 AIT      0.041200
     51 H27         4.0930   -8.1750   -1.2620 h1        1 AIT      0.018700
     52 H281        2.7970   -6.7250   -3.6890 hc        1 AIT      0.045700
     53 H282        1.9560   -7.7380   -2.4420 hc        1 AIT      0.045700
     54 H283        3.1530   -8.5030   -3.5700 hc        1 AIT      0.045700
     55 H301        6.1650   -7.1100   -0.6050 h1        1 AIT      0.039450
     56 H302        6.5110   -5.6230   -1.5930 h1        1 AIT      0.039450
     57 H311        8.4330   -6.6220   -2.4370 hc        1 AIT      0.047200
     58 H312        8.1350   -8.0400   -1.3590 hc        1 AIT      0.047200
     59 H321        7.5450   -9.3070   -3.2280 hc        1 AIT      0.047200
     60 H322        7.7950   -7.8690   -4.2890 hc        1 AIT      0.047200
     61 H331        5.2540   -9.0560   -3.3100 h1        1 AIT      0.039450
     62 H332        5.4820   -7.7420   -4.5460 h1        1 AIT      0.039450
@<TRIPOS>BOND
     1    1    2 1   
     2    1   11 1   
     3    1   12 1   
     4    1   34 1   
     5    2    3 1   
     6    2   19 1   
     7    2   35 1   
     8    3    4 1   
     9    4    5 ar  
    10    4   10 ar  
    11    5    6 ar  
    12    5   36 1   
    13    6    7 ar  
    14    6   37 1   
    15    7    8 1   
    16    7    9 ar  
    17    8   38 1   
    18    9   10 ar  
    19    9   39 1   
    20   10   11 1   
    21   12   13 ar  
    22   12   18 ar  
    23   13   14 ar  
    24   13   40 1   
    25   14   15 ar  
    26   14   41 1   
    27   15   16 1   
    28   15   17 ar  
    29   16   42 1   
    30   17   18 ar  
    31   17   43 1   
    32   18   44 1   
    33   19   20 ar  
    34   19   24 ar  
    35   20   21 ar  
    36   20   45 1   
    37   21   22 ar  
    38   21   46 1   
    39   22   23 ar  
    40   22   25 1   
    41   23   24 ar  
    42   23   47 1   
    43   24   48 1   
    44   25   26 1   
    45   26   27 1   
    46   26   49 1   
    47   26   50 1   
    48   27   28 1   
    49   27   29 1   
    50   27   51 1   
    51   28   52 1   
    52   28   53 1   
    53   28   54 1   
    54   29   30 1   
    55   29   33 1   
    56   30   31 1   
    57   30   55 1   
    58   30   56 1   
    59   31   32 1   
    60   31   57 1   
    61   31   58 1   
    62   32   33 1   
    63   32   59 1   
    64   32   60 1   
    65   33   61 1   
    66   33   62 1   
@<TRIPOS>SUBSTRUCTURE
     1 AIT         1 TEMP              0 ****  ****    0 ROOT
