@<TRIPOS>MOLECULE
AIT
   62    66     1     0     0
SMALL
bcc


@<TRIPOS>ATOM
      1 C1          0.0510    0.1580    0.1400 c3        1 AIT      0.022700
      2 C2          1.5620   -0.0610    0.2660 c3        1 AIT      0.201400
      3 O3          2.0140    0.0370    1.6290 os        1 AIT     -0.323900
      4 C4          1.8540    1.2990    2.1880 ca        1 AIT      0.057100
      5 C5          2.8010    1.6540    3.1600 ca        1 AIT     -0.091000
      6 C6          2.6800    2.8690    3.8230 ca        1 AIT     -0.200000
      7 C7          1.6170    3.7270    3.4980 ca        1 AIT      0.118100
      8 O8          1.4390    4.9490    4.1090 oh        1 AIT     -0.496100
      9 C9          0.6730    3.3770    2.5250 ca        1 AIT     -0.129000
     10 C10         0.7850    2.1510    1.8610 ca        1 AIT     -0.017100
     11 S11        -0.3840    1.8060    0.6900 ss        1 AIT     -0.162000
     12 C12        -0.8190   -0.8620    0.7760 ca        1 AIT     -0.108300
     13 C13        -0.6510   -1.2540    2.1100 ca        1 AIT     -0.075000
     14 C14        -1.5000   -2.1930    2.6890 ca        1 AIT     -0.186000
     15 C15        -2.5330   -2.7510    1.9230 ca        1 AIT      0.129100
     16 O16        -3.4110   -3.6840    2.4240 oh        1 AIT     -0.497100
     17 C17        -2.7140   -2.3740    0.5820 ca        1 AIT     -0.186000
     18 C18        -1.8560   -1.4350    0.0230 ca        1 AIT     -0.075000
     19 C19         1.9940   -1.3970   -0.2540 ca        1 AIT     -0.126300
     20 C20         2.2000   -1.5450   -1.6350 ca        1 AIT     -0.073000
     21 C21         2.6050   -2.7620   -2.1620 ca        1 AIT     -0.185000
     22 C22         2.8140   -3.8540   -1.2960 ca        1 AIT      0.137100
     23 C23         2.6180   -3.7160    0.0830 ca        1 AIT     -0.185000
     24 C24         2.2070   -2.4850    0.5940 ca        1 AIT     -0.073000
     25 O25         3.2000   -5.0190   -1.9260 os        1 AIT     -0.309900
     26 C26         3.5290   -6.1110   -1.0630 c3        1 AIT      0.127400
     27 C27         4.0110   -7.2810   -1.9500 c3        1 AIT      0.193500
     28 C28         2.9280   -7.5770   -2.9870 c3        1 AIT     -0.092100
     29 N29         5.3150   -7.0230   -2.5550 n3        1 AIT     -0.719600
     30 C30         6.3840   -6.7490   -1.5930 c3        1 AIT      0.162300
     31 C31         7.6780   -7.4180   -2.0840 c3        1 AIT     -0.088900
     32 C32         7.2900   -8.2460   -3.3020 c3        1 AIT     -0.088900
     33 C33         5.7710   -8.0750   -3.4650 c3        1 AIT      0.162300
     34 H1         -0.1730    0.1860   -0.9660 h1        1 AIT      0.097700
     35 H2          2.0770    0.7510   -0.3310 h1        1 AIT      0.066700
     36 H5          3.6240    0.9620    3.3900 ha        1 AIT      0.151000
     37 H6          3.4120    3.1570    4.5900 ha        1 AIT      0.138000
     38 HO8         2.1540    5.0650    4.7510 ho        1 AIT      0.419000
     39 H9         -0.1520    4.0670    2.2920 ha        1 AIT      0.162000
     40 H13         0.1640   -0.8160    2.7090 ha        1 AIT      0.142000
     41 H14        -1.3630   -2.4910    3.7370 ha        1 AIT      0.142500
     42 H16        -3.1850   -3.8350    3.3530 ho        1 AIT      0.419000
     43 H17        -3.5270   -2.8240   -0.0040 ha        1 AIT      0.142500
     44 H18        -1.9980   -1.1400   -1.0290 ha        1 AIT      0.142000
     45 H20         2.0400   -0.6870   -2.3070 ha        1 AIT      0.140000
     46 H21         2.7690   -2.8910   -3.2410 ha        1 AIT      0.145000
     47 H23         2.7770   -4.5590    0.7680 ha        1 AIT      0.145000
     48 H24         2.0460   -2.3660    1.6780 ha        1 AIT      0.140000
     49 H261        4.3180   -5.7930   -0.3320 h1        1 AIT      0.041200
     50 H262        2.6070   -6.4340   -0.5090 h1        1 AIT      0.041200
     51 H27         4.0710   -8.1730   -1.2460 h1        1 AIT      0.018700
     52 H281        2.8210   -6.7190   -3.6950 hc        1 AIT      0.045700
     53 H282        1.9550   -7.7270   -2.4590 hc        1 AIT      0.045700
     54 H283        3.1660   -8.4990   -3.5670 hc        1 AIT      0.045700
     55 H301        6.5070   -5.6340   -1.5400 h1        1 AIT      0.039450
     56 H302        6.1370   -7.1180   -0.5580 h1        1 AIT      0.039450
     57 H311        8.1140   -8.0590   -1.2800 hc        1 AIT      0.047200
     58 H312        8.4370   -6.6430   -2.3530 hc        1 AIT      0.047200
     59 H321        7.8210   -7.8850   -4.2150 hc        1 AIT      0.047200
     60 H322        7.5480   -9.3230   -3.1590 hc        1 AIT      0.047200
     61 H331        5.5130   -7.7480   -4.5080 h1        1 AIT      0.039450
     62 H332        5.2600   -9.0610   -3.2760 h1        1 AIT      0.039450
@<TRIPOS>BOND
     1    1    2 1   
     2    1   11 1   
     3    1   12 1   
     4    1   34 1   
     5    2    3 1   
     6    2   19 1   
     7    2   35 1   
     8    3    4 1   
     9    4    5 ar  
    10    4   10 ar  
    11    5    6 ar  
    12    5   36 1   
    13    6    7 ar  
    14    6   37 1   
    15    7    8 1   
    16    7    9 ar  
    17    8   38 1   
    18    9   10 ar  
    19    9   39 1   
    20   10   11 1   
    21   12   13 ar  
    22   12   18 ar  
    23   13   14 ar  
    24   13   40 1   
    25   14   15 ar  
    26   14   41 1   
    27   15   16 1   
    28   15   17 ar  
    29   16   42 1   
    30   17   18 ar  
    31   17   43 1   
    32   18   44 1   
    33   19   20 ar  
    34   19   24 ar  
    35   20   21 ar  
    36   20   45 1   
    37   21   22 ar  
    38   21   46 1   
    39   22   23 ar  
    40   22   25 1   
    41   23   24 ar  
    42   23   47 1   
    43   24   48 1   
    44   25   26 1   
    45   26   27 1   
    46   26   49 1   
    47   26   50 1   
    48   27   28 1   
    49   27   29 1   
    50   27   51 1   
    51   28   52 1   
    52   28   53 1   
    53   28   54 1   
    54   29   30 1   
    55   29   33 1   
    56   30   31 1   
    57   30   55 1   
    58   30   56 1   
    59   31   32 1   
    60   31   57 1   
    61   31   58 1   
    62   32   33 1   
    63   32   59 1   
    64   32   60 1   
    65   33   61 1   
    66   33   62 1   
@<TRIPOS>SUBSTRUCTURE
     1 AIT         1 TEMP              0 ****  ****    0 ROOT
