@<TRIPOS>MOLECULE
AIT
   62    66     1     0     0
SMALL
bcc


@<TRIPOS>ATOM
      1 C1          2.4870   -0.0710    1.4900 c3        1 AIT      0.025700
      2 C2          1.7210    0.9490    0.6410 c3        1 AIT      0.201400
      3 O3          2.2280    1.0280   -0.7050 os        1 AIT     -0.322900
      4 C4          3.5340    1.4910   -0.7910 ca        1 AIT      0.058100
      5 C5          3.8500    2.1940   -1.9670 ca        1 AIT     -0.096000
      6 C6          5.1470    2.6360   -2.1770 ca        1 AIT     -0.143000
      7 C7          6.1250    2.3810   -1.1960 ca        1 AIT      0.119100
      8 O8          7.3900    2.8540   -1.4620 oh        1 AIT     -0.496100
      9 C9          5.8120    1.6880   -0.0250 ca        1 AIT     -0.186000
     10 C10         4.5050    1.2310    0.1880 ca        1 AIT     -0.013100
     11 S11         4.2060    0.4100    1.6350 ss        1 AIT     -0.170000
     12 C12         2.3660   -1.4930    1.0830 ca        1 AIT     -0.108300
     13 C13         2.5950   -1.9120   -0.2340 ca        1 AIT     -0.075000
     14 C14         2.5010   -3.2560   -0.5810 ca        1 AIT     -0.186000
     15 C15         2.1710   -4.1990    0.4030 ca        1 AIT      0.129100
     16 O16         2.0600   -5.5440    0.1380 oh        1 AIT     -0.497100
     17 C17         1.9330   -3.7980    1.7280 ca        1 AIT     -0.186000
     18 C18         2.0320   -2.4510    2.0540 ca        1 AIT     -0.075000
     19 C19         0.2590    0.6390    0.5520 ca        1 AIT     -0.127300
     20 C20        -0.5750    1.0380    1.6080 ca        1 AIT     -0.073000
     21 C21        -1.9370    0.7790    1.5690 ca        1 AIT     -0.184500
     22 C22        -2.4810    0.1120    0.4520 ca        1 AIT      0.137100
     23 C23        -1.6580   -0.2840   -0.6090 ca        1 AIT     -0.184500
     24 C24        -0.2910   -0.0170   -0.5490 ca        1 AIT     -0.073000
     25 O25        -3.8400   -0.1090    0.5220 os        1 AIT     -0.309900
     26 C26        -4.4380   -0.6730   -0.6480 c3        1 AIT      0.127400
     27 C27        -5.9610   -0.7560   -0.4030 c3        1 AIT      0.193500
     28 C28        -6.1990   -1.5400    0.8880 c3        1 AIT     -0.092100
     29 N29        -6.5980    0.5580   -0.3900 n3        1 AIT     -0.719600
     30 C30        -6.4050    1.3350   -1.6150 c3        1 AIT      0.161800
     31 C31        -7.7060    2.0870   -1.9370 c3        1 AIT     -0.088900
     32 C32        -8.7410    1.5880   -0.9370 c3        1 AIT     -0.088900
     33 C33        -8.0300    0.5260   -0.0840 c3        1 AIT      0.161800
     34 H1          2.0970    0.0380    2.5430 h1        1 AIT      0.097700
     35 H2          1.8550    1.9640    1.1230 h1        1 AIT      0.066700
     36 H5          3.0610    2.3780   -2.7110 ha        1 AIT      0.153000
     37 H6          5.4230    3.1840   -3.0890 ha        1 AIT      0.155000
     38 HO8         7.9630    2.6070   -0.7210 ho        1 AIT      0.420000
     39 H9          6.5860    1.4920    0.7320 ha        1 AIT      0.145000
     40 H13         2.8490   -1.1680   -1.0070 ha        1 AIT      0.142500
     41 H14         2.6860   -3.5750   -1.6160 ha        1 AIT      0.143000
     42 H16         2.2610   -5.6800   -0.8000 ho        1 AIT      0.419000
     43 H17         1.6730   -4.5510    2.4850 ha        1 AIT      0.143000
     44 H18         1.8440   -2.1370    3.0920 ha        1 AIT      0.142500
     45 H20        -0.1470    1.5630    2.4760 ha        1 AIT      0.140000
     46 H21        -2.6020    1.0850    2.3890 ha        1 AIT      0.145500
     47 H23        -2.0690   -0.8040   -1.4850 ha        1 AIT      0.145500
     48 H24         0.3660   -0.3270   -1.3790 ha        1 AIT      0.140000
     49 H261       -4.0400   -1.7120   -0.8010 h1        1 AIT      0.041200
     50 H262       -4.1970   -0.0400   -1.5420 h1        1 AIT      0.041200
     51 H27        -6.3600   -1.3810   -1.2660 h1        1 AIT      0.018700
     52 H281       -5.8080   -0.9720    1.7660 hc        1 AIT      0.045700
     53 H282       -7.2850   -1.7440    1.0420 hc        1 AIT      0.045700
     54 H283       -5.6570   -2.5140    0.8230 hc        1 AIT      0.045700
     55 H301       -5.5650    2.0560   -1.4230 h1        1 AIT      0.039450
     56 H302       -6.1130    0.6920   -2.4920 h1        1 AIT      0.039450
     57 H311       -7.5530    3.1890   -1.8370 hc        1 AIT      0.047200
     58 H312       -8.0260    1.8810   -2.9870 hc        1 AIT      0.047200
     59 H321       -9.1070    2.4230   -0.2920 hc        1 AIT      0.047200
     60 H322       -9.6250    1.1430   -1.4550 hc        1 AIT      0.047200
     61 H331       -8.4900   -0.4830   -0.2780 h1        1 AIT      0.039450
     62 H332       -8.1410    0.7500    1.0120 h1        1 AIT      0.039450
@<TRIPOS>BOND
     1    1    2 1   
     2    1   11 1   
     3    1   12 1   
     4    1   34 1   
     5    2    3 1   
     6    2   19 1   
     7    2   35 1   
     8    3    4 1   
     9    4    5 ar  
    10    4   10 ar  
    11    5    6 ar  
    12    5   36 1   
    13    6    7 ar  
    14    6   37 1   
    15    7    8 1   
    16    7    9 ar  
    17    8   38 1   
    18    9   10 ar  
    19    9   39 1   
    20   10   11 1   
    21   12   13 ar  
    22   12   18 ar  
    23   13   14 ar  
    24   13   40 1   
    25   14   15 ar  
    26   14   41 1   
    27   15   16 1   
    28   15   17 ar  
    29   16   42 1   
    30   17   18 ar  
    31   17   43 1   
    32   18   44 1   
    33   19   20 ar  
    34   19   24 ar  
    35   20   21 ar  
    36   20   45 1   
    37   21   22 ar  
    38   21   46 1   
    39   22   23 ar  
    40   22   25 1   
    41   23   24 ar  
    42   23   47 1   
    43   24   48 1   
    44   25   26 1   
    45   26   27 1   
    46   26   49 1   
    47   26   50 1   
    48   27   28 1   
    49   27   29 1   
    50   27   51 1   
    51   28   52 1   
    52   28   53 1   
    53   28   54 1   
    54   29   30 1   
    55   29   33 1   
    56   30   31 1   
    57   30   55 1   
    58   30   56 1   
    59   31   32 1   
    60   31   57 1   
    61   31   58 1   
    62   32   33 1   
    63   32   59 1   
    64   32   60 1   
    65   33   61 1   
    66   33   62 1   
@<TRIPOS>SUBSTRUCTURE
     1 AIT         1 TEMP              0 ****  ****    0 ROOT
