@<TRIPOS>MOLECULE
AIT
   62    60     1     0     0
SMALL
bcc


@<TRIPOS>ATOM
      1 C1         -2.4760    2.9930    0.2670 c3        1 AIT     -0.206000
      2 C2         -1.1440    2.5470    0.8980 c3        1 AIT      0.083000
      3 O3         -1.1610    2.2310    2.2970 os        1 AIT     -0.206000
      4 C4         -2.1010    3.1690    3.2790 c2        1 AIT      0.012000
      5 C5         -1.9060    3.2140    4.6300 c1        1 AIT     -0.090000
      6 C6         -2.5850    4.1980    5.4230 c1        1 AIT     -0.199000
      7 C7         -3.4750    5.1440    4.7940 c1        1 AIT      0.073000
      8 O8         -4.1180    6.1760    5.5940 o         1 AIT     -0.250000
      9 C9         -3.6830    5.1020    3.3850 c2        1 AIT     -0.129000
     10 C10        -3.0310    4.1570    2.6200 c2        1 AIT     -0.244000
     11 S11        -3.1760    4.0820    0.9340 ss        1 AIT      0.246000
     12 C12        -3.5380    1.6230    0.2490 c2        1 AIT     -0.101000
     13 C13        -3.8720    0.9950    1.4470 c2        1 AIT     -0.075000
     14 C14        -4.8100   -0.0150    1.4560 c1        1 AIT     -0.157000
     15 C15        -5.4150   -0.4010    0.2840 c1        1 AIT      0.085000
     16 O16        -6.4290   -1.4980    0.2880 oh        1 AIT     -0.250000
     17 C17        -5.0730    0.2390   -0.9290 c1        1 AIT     -0.215000
     18 C18        -4.1510    1.2320   -0.9360 c1        1 AIT     -0.077000
     19 C19        -0.6640    1.3060    0.1370 c2        1 AIT     -0.116000
     20 C20        -0.3490    1.4140   -1.1800 c2        1 AIT     -0.087000
     21 C21         0.3210    0.3670   -1.8370 c1        1 AIT     -0.207000
     22 C22         0.6720   -0.8070   -1.1250 c1        1 AIT      0.091000
     23 C23         0.3600   -0.9230    0.1940 c1        1 AIT     -0.162000
     24 C24        -0.3110    0.1240    0.8530 c1        1 AIT     -0.060000
     25 O25         1.2830   -1.8600   -1.7870 os        1 AIT     -0.220000
     26 C26         2.7080   -1.6530   -2.0530 c3        1 AIT     -0.026000
     27 C27         3.3660   -2.9830   -2.3240 c3        1 AIT     -0.016000
     28 C28         2.6180   -3.6930   -3.3700 c3        1 AIT     -0.211000
     29 N29         4.7110   -2.7700   -2.7640 n3        1 AIT     -0.253000
     30 C30         5.5910   -2.4370   -1.5640 c3        1 AIT     -0.079500
     31 C31         6.4280   -3.7210   -1.2860 c3        1 AIT     -0.169000
     32 C32         5.8810   -4.6340   -1.9950 c3        1 AIT     -0.169000
     33 C33         5.1930   -3.8820   -3.2320 c3        1 AIT     -0.079500
     34 H1         -2.2930    3.2720   -0.6880 h1        1 AIT      0.135000
     35 H2         -0.4720    3.2790    0.7520 h1        1 AIT      0.106000
     36 H5         -1.3370    2.6110    5.0350 ha        1 AIT      0.152000
     37 H6         -2.4530    4.2140    6.4390 ha        1 AIT      0.138000
     38 HO8        -3.4860    6.7160    5.9490 ho        1 AIT      0.218000
     39 H9         -4.3100    5.7620    2.9450 ha        1 AIT      0.162000
     40 H13        -3.4330    1.2780    2.2980 ha        1 AIT      0.153000
     41 H14        -5.0450   -0.4570    2.2940 ha        1 AIT      0.152000
     42 H16        -7.2750   -1.1350    0.2410 ho        1 AIT      0.218000
     43 H17        -5.5000   -0.0330   -1.7600 ha        1 AIT      0.134000
     44 H18        -3.9220    1.6650   -1.7610 ha        1 AIT      0.131000
     45 H20        -0.6100    2.2870   -1.7120 ha        1 AIT      0.131000
     46 H21         0.5630    0.4550   -2.8520 ha        1 AIT      0.140000
     47 H23         0.6100   -1.7580    0.6970 ha        1 AIT      0.151000
     48 H24        -0.5300    0.0460    1.7680 ha        1 AIT      0.152000
     49 H261        3.1250   -1.2340   -1.2820 h1        1 AIT      0.090500
     50 H262        2.8070   -1.1030   -2.7950 h1        1 AIT      0.090500
     51 H27         3.3700   -3.5000   -1.5310 h1        1 AIT      0.082000
     52 H281        3.2040   -3.8530   -4.1350 hc        1 AIT      0.081667
     53 H282        1.8470   -3.1480   -3.6540 hc        1 AIT      0.081667
     54 H283        2.3200   -4.4960   -3.0390 hc        1 AIT      0.081667
     55 H301        5.0030   -2.2080   -0.7430 h1        1 AIT      0.085000
     56 H302        6.2300   -1.6290   -1.7920 h1        1 AIT      0.085000
     57 H311        6.3900   -3.9440   -0.3720 hc        1 AIT      0.086000
     58 H312        7.3590   -3.5870   -1.5670 hc        1 AIT      0.086000
     59 H321        6.6000   -5.2980   -2.3380 hc        1 AIT      0.086000
     60 H322        5.1690   -5.1340   -1.4440 hc        1 AIT      0.086000
     61 H331        4.4710   -4.4330   -3.6020 h1        1 AIT      0.085000
     62 H332        5.9350   -3.6730   -3.9970 h1        1 AIT      0.085000
@<TRIPOS>BOND
     1    1    2 1   
     2    1   11 1   
     3    1   12 1   
     4    1   34 1   
     5    2    3 1   
     6    2   19 1   
     7    2   35 1   
     8    3    4 1   
     9    4    5 1   
    10    4   10 1   
    11    5   36 1   
    12    6    7 1   
    13    6   37 1   
    14    7    9 1   
    15    8   38 1   
    16    9   10 1   
    17    9   39 1   
    18   10   11 1   
    19   12   13 1   
    20   12   18 1   
    21   13   14 1   
    22   13   40 1   
    23   14   41 1   
    24   15   16 1   
    25   15   17 1   
    26   16   42 1   
    27   17   43 1   
    28   18   44 1   
    29   19   20 1   
    30   19   24 1   
    31   20   21 1   
    32   20   45 1   
    33   21   46 1   
    34   22   23 1   
    35   22   25 1   
    36   23   47 1   
    37   24   48 1   
    38   25   26 1   
    39   26   27 1   
    40   26   49 1   
    41   26   50 1   
    42   27   28 1   
    43   27   29 1   
    44   27   51 1   
    45   28   52 1   
    46   28   53 1   
    47   28   54 1   
    48   29   30 1   
    49   29   33 1   
    50   30   31 1   
    51   30   55 1   
    52   30   56 1   
    53   31   32 1   
    54   31   57 1   
    55   31   58 1   
    56   32   33 1   
    57   32   59 1   
    58   32   60 1   
    59   33   61 1   
    60   33   62 1   
@<TRIPOS>SUBSTRUCTURE
     1 AIT         1 TEMP              0 ****  ****    0 ROOT
