@<TRIPOS>MOLECULE
AIT
   62    66     1     0     0
SMALL
bcc


@<TRIPOS>ATOM
      1 C1          0.0690    0.1710    0.1310 c3        1 AIT      0.022700
      2 C2          1.5770   -0.0580    0.2710 c3        1 AIT      0.201400
      3 O3          2.0160    0.0320    1.6390 os        1 AIT     -0.323900
      4 C4          1.8570    1.2920    2.2020 ca        1 AIT      0.057100
      5 C5          2.7960    1.6370    3.1850 ca        1 AIT     -0.091000
      6 C6          2.6760    2.8490    3.8530 ca        1 AIT     -0.200000
      7 C7          1.6210    3.7150    3.5210 ca        1 AIT      0.118100
      8 O8          1.4440    4.9350    4.1350 oh        1 AIT     -0.496100
      9 C9          0.6850    3.3750    2.5370 ca        1 AIT     -0.129000
     10 C10         0.7970    2.1510    1.8680 ca        1 AIT     -0.017100
     11 S11        -0.3620    1.8190    0.6830 ss        1 AIT     -0.162000
     12 C12        -0.8140   -0.8460    0.7530 ca        1 AIT     -0.108300
     13 C13        -0.6620   -1.2460    2.0870 ca        1 AIT     -0.075000
     14 C14        -1.5230   -2.1820    2.6520 ca        1 AIT     -0.186000
     15 C15        -2.5510   -2.7300    1.8730 ca        1 AIT      0.129100
     16 O16        -3.4390   -3.6600    2.3610 oh        1 AIT     -0.497100
     17 C17        -2.7160   -2.3460    0.5320 ca        1 AIT     -0.186000
     18 C18        -1.8470   -1.4090   -0.0130 ca        1 AIT     -0.075000
     19 C19         2.0060   -1.3940   -0.2510 ca        1 AIT     -0.126300
     20 C20         2.2250   -1.5360   -1.6300 ca        1 AIT     -0.073000
     21 C21         2.6280   -2.7540   -2.1590 ca        1 AIT     -0.185000
     22 C22         2.8210   -3.8510   -1.2950 ca        1 AIT      0.137100
     23 C23         2.6120   -3.7180    0.0820 ca        1 AIT     -0.185000
     24 C24         2.2030   -2.4870    0.5950 ca        1 AIT     -0.073000
     25 O25         3.2070   -5.0160   -1.9270 os        1 AIT     -0.309900
     26 C26         3.5200   -6.1140   -1.0650 c3        1 AIT      0.127400
     27 C27         4.0040   -7.2820   -1.9520 c3        1 AIT      0.193500
     28 C28         2.9290   -7.5670   -3.0010 c3        1 AIT     -0.092100
     29 N29         5.3150   -7.0300   -2.5440 n3        1 AIT     -0.719600
     30 C30         6.3760   -6.7660   -1.5710 c3        1 AIT      0.162300
     31 C31         7.6710   -7.4390   -2.0510 c3        1 AIT     -0.088900
     32 C32         7.2900   -8.2620   -3.2760 c3        1 AIT     -0.088900
     33 C33         5.7740   -8.0810   -3.4540 c3        1 AIT      0.162300
     34 H1         -0.1440    0.2060   -0.9770 h1        1 AIT      0.097700
     35 H2          2.1030    0.7540   -0.3170 h1        1 AIT      0.066700
     36 H5          3.6120    0.9390    3.4210 ha        1 AIT      0.151000
     37 H6          3.4010    3.1290    4.6290 ha        1 AIT      0.138000
     38 HO8         2.1530    5.0450    4.7860 ho        1 AIT      0.419000
     39 H9         -0.1330    4.0710    2.2990 ha        1 AIT      0.162000
     40 H13         0.1500   -0.8160    2.6960 ha        1 AIT      0.142000
     41 H14        -1.3980   -2.4860    3.7010 ha        1 AIT      0.142500
     42 H16        -3.2240   -3.8180    3.2920 ho        1 AIT      0.419000
     43 H17        -3.5260   -2.7880   -0.0640 ha        1 AIT      0.142500
     44 H18        -1.9760   -1.1090   -1.0650 ha        1 AIT      0.142000
     45 H20         2.0780   -0.6750   -2.2990 ha        1 AIT      0.140000
     46 H21         2.8030   -2.8790   -3.2370 ha        1 AIT      0.145000
     47 H23         2.7590   -4.5650    0.7650 ha        1 AIT      0.145000
     48 H24         2.0330   -2.3720    1.6770 ha        1 AIT      0.140000
     49 H261        4.3030   -5.8040   -0.3250 h1        1 AIT      0.041200
     50 H262        2.5910   -6.4330   -0.5230 h1        1 AIT      0.041200
     51 H27         4.0510   -8.1780   -1.2520 h1        1 AIT      0.018700
     52 H281        2.8340   -6.7060   -3.7060 hc        1 AIT      0.045700
     53 H282        3.1670   -8.4880   -3.5840 hc        1 AIT      0.045700
     54 H283        1.9500   -7.7140   -2.4840 hc        1 AIT      0.045700
     55 H301        6.1170   -7.1380   -0.5390 h1        1 AIT      0.039450
     56 H302        6.5040   -5.6510   -1.5120 h1        1 AIT      0.039450
     57 H311        8.0960   -8.0860   -1.2460 hc        1 AIT      0.047200
     58 H312        8.4370   -6.6680   -2.3100 hc        1 AIT      0.047200
     59 H321        7.8320   -7.9010   -4.1830 hc        1 AIT      0.047200
     60 H322        7.5400   -9.3410   -3.1340 hc        1 AIT      0.047200
     61 H331        5.2550   -9.0650   -3.2730 h1        1 AIT      0.039450
     62 H332        5.5280   -7.7490   -4.4980 h1        1 AIT      0.039450
@<TRIPOS>BOND
     1    1    2 1   
     2    1   11 1   
     3    1   12 1   
     4    1   34 1   
     5    2    3 1   
     6    2   19 1   
     7    2   35 1   
     8    3    4 1   
     9    4    5 ar  
    10    4   10 ar  
    11    5    6 ar  
    12    5   36 1   
    13    6    7 ar  
    14    6   37 1   
    15    7    8 1   
    16    7    9 ar  
    17    8   38 1   
    18    9   10 ar  
    19    9   39 1   
    20   10   11 1   
    21   12   13 ar  
    22   12   18 ar  
    23   13   14 ar  
    24   13   40 1   
    25   14   15 ar  
    26   14   41 1   
    27   15   16 1   
    28   15   17 ar  
    29   16   42 1   
    30   17   18 ar  
    31   17   43 1   
    32   18   44 1   
    33   19   20 ar  
    34   19   24 ar  
    35   20   21 ar  
    36   20   45 1   
    37   21   22 ar  
    38   21   46 1   
    39   22   23 ar  
    40   22   25 1   
    41   23   24 ar  
    42   23   47 1   
    43   24   48 1   
    44   25   26 1   
    45   26   27 1   
    46   26   49 1   
    47   26   50 1   
    48   27   28 1   
    49   27   29 1   
    50   27   51 1   
    51   28   52 1   
    52   28   53 1   
    53   28   54 1   
    54   29   30 1   
    55   29   33 1   
    56   30   31 1   
    57   30   55 1   
    58   30   56 1   
    59   31   32 1   
    60   31   57 1   
    61   31   58 1   
    62   32   33 1   
    63   32   59 1   
    64   32   60 1   
    65   33   61 1   
    66   33   62 1   
@<TRIPOS>SUBSTRUCTURE
     1 AIT         1 TEMP              0 ****  ****    0 ROOT
