@<TRIPOS>MOLECULE
AIU
   65    69     1     0     0
SMALL
bcc


@<TRIPOS>ATOM
      1 C1         -0.0910    0.1320    0.1940 c3        1 AIU      0.022700
      2 C2          1.4340   -0.0080    0.2160 c3        1 AIU      0.201400
      3 O3          1.9760    0.1570    1.5400 os        1 AIU     -0.323900
      4 C4          1.7910    1.4260    2.0720 ca        1 AIU      0.057100
      5 C5          2.7850    1.8600    2.9620 ca        1 AIU     -0.090000
      6 C6          2.6480    3.0870    3.5970 ca        1 AIU     -0.200000
      7 C7          1.5220    3.8810    3.3260 ca        1 AIU      0.118100
      8 O8          1.3250    5.1110    3.9130 oh        1 AIU     -0.496100
      9 C9          0.5310    3.4530    2.4350 ca        1 AIU     -0.129000
     10 C10         0.6590    2.2130    1.7990 ca        1 AIU     -0.017100
     11 S11        -0.5720    1.7730    0.7270 ss        1 AIU     -0.162000
     12 C12        -0.8600   -0.9090    0.9210 ca        1 AIU     -0.108300
     13 C13        -0.5770   -1.2500    2.2490 ca        1 AIU     -0.075000
     14 C14        -1.3330   -2.2110    2.9140 ca        1 AIU     -0.186000
     15 C15        -2.3870   -2.8430    2.2420 ca        1 AIU      0.129100
     16 O16        -3.1780   -3.8030    2.8320 oh        1 AIU     -0.497100
     17 C17        -2.6830   -2.5180    0.9080 ca        1 AIU     -0.186000
     18 C18        -1.9180   -1.5560    0.2620 ca        1 AIU     -0.075000
     19 C19         1.8970   -1.3370   -0.2960 ca        1 AIU     -0.127300
     20 C20         2.0140   -1.5170   -1.6820 ca        1 AIU     -0.073000
     21 C21         2.4430   -2.7290   -2.2030 ca        1 AIU     -0.184500
     22 C22         2.7670   -3.7820   -1.3230 ca        1 AIU      0.139100
     23 C23         2.6590   -3.6100    0.0610 ca        1 AIU     -0.184500
     24 C24         2.2230   -2.3850    0.5660 ca        1 AIU     -0.073000
     25 O25         3.1670   -4.9470   -1.9430 os        1 AIU     -0.319900
     26 C26         3.6070   -5.9990   -1.0770 c3        1 AIU      0.128400
     27 C27         4.0760   -7.1320   -2.0000 c3        1 AIU      0.165800
     28 N28         5.4620   -7.0080   -2.4110 n3        1 AIU     -0.718600
     29 C29         5.8310   -7.9000   -3.5110 c3        1 AIU      0.160800
     30 C30         7.0140   -8.7930   -3.0820 c3        1 AIU     -0.081200
     31 C31         8.0950   -8.8300   -4.1320 c3        1 AIU     -0.087100
     32 C32         7.5080   -8.2030   -1.7520 c3        1 AIU     -0.081200
     33 C33         7.7270   -9.2600   -0.7000 c3        1 AIU     -0.087100
     34 C34         6.4300   -7.1820   -1.3270 c3        1 AIU      0.160800
     35 H1         -0.3950    0.1140   -0.8930 h1        1 AIU      0.097700
     36 H2          1.8620    0.8100   -0.4390 h1        1 AIU      0.066700
     37 H5          3.6570    1.2170    3.1510 ha        1 AIU      0.151000
     38 H6          3.4170    3.4360    4.3010 ha        1 AIU      0.138000
     39 HO8         2.0760    5.2840    4.4980 ho        1 AIU      0.419000
     40 H9         -0.3440    4.0930    2.2430 ha        1 AIU      0.162000
     41 H13         0.2560   -0.7540    2.7750 ha        1 AIU      0.142000
     42 H14        -1.1050   -2.4690    3.9580 ha        1 AIU      0.142500
     43 H16        -2.8780   -3.9130    3.7470 ho        1 AIU      0.419000
     44 H17        -3.5120   -3.0270    0.3960 ha        1 AIU      0.142500
     45 H18        -2.1500   -1.3020   -0.7840 ha        1 AIU      0.142000
     46 H20         1.7650   -0.6900   -2.3650 ha        1 AIU      0.140000
     47 H21         2.5380   -2.8840   -3.2870 ha        1 AIU      0.144500
     48 H23         2.9090   -4.4220    0.7570 ha        1 AIU      0.144500
     49 H24         2.1320   -2.2400    1.6540 ha        1 AIU      0.140000
     50 H261        2.7370   -6.3520   -0.4620 h1        1 AIU      0.044200
     51 H262        4.4230   -5.6260   -0.4050 h1        1 AIU      0.044200
     52 H271        3.4370   -7.1070   -2.9300 h1        1 AIU      0.046700
     53 H272        3.8700   -8.1020   -1.4590 h1        1 AIU      0.046700
     54 H291        4.9730   -8.5400   -3.8520 h1        1 AIU      0.044700
     55 H292        6.1310   -7.2410   -4.3720 h1        1 AIU      0.044700
     56 H30         6.6390   -9.8380   -2.9110 hc        1 AIU      0.055200
     57 H311        8.4870   -7.8040   -4.3380 hc        1 AIU      0.036367
     58 H312        7.6930   -9.2520   -5.0850 hc        1 AIU      0.036367
     59 H313        8.9430   -9.4700   -3.7880 hc        1 AIU      0.036367
     60 H32         8.4740   -7.6550   -1.9220 hc        1 AIU      0.055200
     61 H331        6.7830   -9.8190   -0.4890 hc        1 AIU      0.036367
     62 H332        8.4980   -9.9910   -1.0450 hc        1 AIU      0.036367
     63 H333        8.0800   -8.7930    0.2510 hc        1 AIU      0.036367
     64 H341        5.9390   -7.5120   -0.3690 h1        1 AIU      0.044700
     65 H342        6.9020   -6.1790   -1.1420 h1        1 AIU      0.044700
@<TRIPOS>BOND
     1    1    2 1   
     2    1   11 1   
     3    1   12 1   
     4    1   35 1   
     5    2    3 1   
     6    2   19 1   
     7    2   36 1   
     8    3    4 1   
     9    4    5 ar  
    10    4   10 ar  
    11    5    6 ar  
    12    5   37 1   
    13    6    7 ar  
    14    6   38 1   
    15    7    8 1   
    16    7    9 ar  
    17    8   39 1   
    18    9   10 ar  
    19    9   40 1   
    20   10   11 1   
    21   12   13 ar  
    22   12   18 ar  
    23   13   14 ar  
    24   13   41 1   
    25   14   15 ar  
    26   14   42 1   
    27   15   16 1   
    28   15   17 ar  
    29   16   43 1   
    30   17   18 ar  
    31   17   44 1   
    32   18   45 1   
    33   19   20 ar  
    34   19   24 ar  
    35   20   21 ar  
    36   20   46 1   
    37   21   22 ar  
    38   21   47 1   
    39   22   23 ar  
    40   22   25 1   
    41   23   24 ar  
    42   23   48 1   
    43   24   49 1   
    44   25   26 1   
    45   26   27 1   
    46   26   50 1   
    47   26   51 1   
    48   27   28 1   
    49   27   52 1   
    50   27   53 1   
    51   28   29 1   
    52   28   34 1   
    53   29   30 1   
    54   29   54 1   
    55   29   55 1   
    56   30   31 1   
    57   30   32 1   
    58   30   56 1   
    59   31   57 1   
    60   31   58 1   
    61   31   59 1   
    62   32   33 1   
    63   32   34 1   
    64   32   60 1   
    65   33   61 1   
    66   33   62 1   
    67   33   63 1   
    68   34   64 1   
    69   34   65 1   
@<TRIPOS>SUBSTRUCTURE
     1 AIU         1 TEMP              0 ****  ****    0 ROOT
