@<TRIPOS>MOLECULE
AIU
   65    69     1     0     0
SMALL
bcc


@<TRIPOS>ATOM
      1 C1         -3.0160   -0.2610   -1.4920 c3        1 AIU      0.025700
      2 C2         -2.1700    0.8400   -0.8430 c3        1 AIU      0.201400
      3 O3         -2.5830    1.1210    0.5070 os        1 AIU     -0.322900
      4 C4         -3.8680    1.6360    0.6100 ca        1 AIU      0.058100
      5 C5         -4.0870    2.5040    1.6930 ca        1 AIU     -0.096000
      6 C6         -5.3550    3.0160    1.9200 ca        1 AIU     -0.143000
      7 C7         -6.4020    2.6620    1.0480 ca        1 AIU      0.119100
      8 O8         -7.6350    3.2100    1.3240 oh        1 AIU     -0.496100
      9 C9         -6.1870    1.8030   -0.0320 ca        1 AIU     -0.186000
     10 C10        -4.9080    1.2770   -0.2600 ca        1 AIU     -0.013100
     11 S11        -4.7280    0.2550   -1.5940 ss        1 AIU     -0.170000
     12 C12        -2.9040   -1.6160   -0.8990 ca        1 AIU     -0.108300
     13 C13        -3.0540   -1.8420    0.4750 ca        1 AIU     -0.075000
     14 C14        -2.9700   -3.1290    0.9990 ca        1 AIU     -0.186000
     15 C15        -2.7330   -4.2080    0.1370 ca        1 AIU      0.129100
     16 O16        -2.6380   -5.5070    0.5800 oh        1 AIU     -0.497100
     17 C17        -2.5750   -4.0020   -1.2430 ca        1 AIU     -0.186000
     18 C18        -2.6620   -2.7100   -1.7460 ca        1 AIU     -0.075000
     19 C19        -0.7130    0.4950   -0.8040 ca        1 AIU     -0.127300
     20 C20         0.0570    0.7130   -1.9570 ca        1 AIU     -0.073000
     21 C21         1.4120    0.4140   -1.9680 ca        1 AIU     -0.184000
     22 C22         2.0130   -0.1070   -0.8040 ca        1 AIU      0.139100
     23 C23         1.2550   -0.3210    0.3530 ca        1 AIU     -0.184000
     24 C24        -0.1070   -0.0180    0.3430 ca        1 AIU     -0.073000
     25 O25         3.3580   -0.3840   -0.9260 os        1 AIU     -0.319900
     26 C26         4.0230   -0.8000    0.2720 c3        1 AIU      0.128400
     27 C27         5.5050   -0.9480   -0.1020 c3        1 AIU      0.165800
     28 N28         6.2550    0.2880    0.0060 n3        1 AIU     -0.718600
     29 C29         7.5760    0.2310   -0.6220 c3        1 AIU      0.160800
     30 C30         8.6620    0.5790    0.4180 c3        1 AIU     -0.081200
     31 C31         9.6500    1.5810   -0.1210 c3        1 AIU     -0.087100
     32 C32         7.8980    1.1070    1.6420 c3        1 AIU     -0.081200
     33 C33         8.3850    0.4960    2.9310 c3        1 AIU     -0.087100
     34 C34         6.4130    0.7810    1.3750 c3        1 AIU      0.160800
     35 H1         -2.6950   -0.3100   -2.5720 h1        1 AIU      0.097700
     36 H2         -2.3100    1.7830   -1.4520 h1        1 AIU      0.066700
     37 H5         -3.2450    2.7620    2.3530 ha        1 AIU      0.153000
     38 H6         -5.5550    3.6930    2.7620 ha        1 AIU      0.155000
     39 HO8        -8.2620    2.8840    0.6620 ho        1 AIU      0.420000
     40 H9         -7.0150    1.5320   -0.7040 ha        1 AIU      0.145000
     41 H13        -3.2360   -0.9910    1.1510 ha        1 AIU      0.142500
     42 H14        -3.0930   -3.2960    2.0780 ha        1 AIU      0.143000
     43 H16        -2.7790   -5.5060    1.5380 ho        1 AIU      0.419000
     44 H17        -2.3860   -4.8600   -1.9030 ha        1 AIU      0.143000
     45 H18        -2.5370   -2.5480   -2.8290 ha        1 AIU      0.142500
     46 H20        -0.4150    1.1250   -2.8620 ha        1 AIU      0.140000
     47 H21         2.0260    0.5790   -2.8640 ha        1 AIU      0.145000
     48 H23         1.7120   -0.7260    1.2660 ha        1 AIU      0.145000
     49 H24        -0.7130   -0.1850    1.2480 ha        1 AIU      0.140000
     50 H261        3.6150   -1.7970    0.5880 h1        1 AIU      0.043700
     51 H262        3.8580   -0.0460    1.0840 h1        1 AIU      0.043700
     52 H271        5.5580   -1.2910   -1.1760 h1        1 AIU      0.046200
     53 H272        5.9270   -1.7690    0.5490 h1        1 AIU      0.046200
     54 H291        7.5720    0.9910   -1.4520 h1        1 AIU      0.044700
     55 H292        7.7920   -0.7730   -1.0780 h1        1 AIU      0.044700
     56 H30         9.2130   -0.3590    0.6980 hc        1 AIU      0.055200
     57 H311        9.1360    2.5270   -0.4210 hc        1 AIU      0.036200
     58 H312       10.4130    1.8260    0.6570 hc        1 AIU      0.036200
     59 H313       10.1730    1.1650   -1.0160 hc        1 AIU      0.036200
     60 H32         8.0160    2.2230    1.7030 hc        1 AIU      0.055200
     61 H331        8.2690   -0.6150    2.9180 hc        1 AIU      0.036200
     62 H332        9.4650    0.7360    3.0860 hc        1 AIU      0.036200
     63 H333        7.8040    0.9000    3.7950 hc        1 AIU      0.036200
     64 H341        5.7920    1.7150    1.4620 h1        1 AIU      0.044700
     65 H342        6.0330    0.0450    2.1360 h1        1 AIU      0.044700
@<TRIPOS>BOND
     1    1    2 1   
     2    1   11 1   
     3    1   12 1   
     4    1   35 1   
     5    2    3 1   
     6    2   19 1   
     7    2   36 1   
     8    3    4 1   
     9    4    5 ar  
    10    4   10 ar  
    11    5    6 ar  
    12    5   37 1   
    13    6    7 ar  
    14    6   38 1   
    15    7    8 1   
    16    7    9 ar  
    17    8   39 1   
    18    9   10 ar  
    19    9   40 1   
    20   10   11 1   
    21   12   13 ar  
    22   12   18 ar  
    23   13   14 ar  
    24   13   41 1   
    25   14   15 ar  
    26   14   42 1   
    27   15   16 1   
    28   15   17 ar  
    29   16   43 1   
    30   17   18 ar  
    31   17   44 1   
    32   18   45 1   
    33   19   20 ar  
    34   19   24 ar  
    35   20   21 ar  
    36   20   46 1   
    37   21   22 ar  
    38   21   47 1   
    39   22   23 ar  
    40   22   25 1   
    41   23   24 ar  
    42   23   48 1   
    43   24   49 1   
    44   25   26 1   
    45   26   27 1   
    46   26   50 1   
    47   26   51 1   
    48   27   28 1   
    49   27   52 1   
    50   27   53 1   
    51   28   29 1   
    52   28   34 1   
    53   29   30 1   
    54   29   54 1   
    55   29   55 1   
    56   30   31 1   
    57   30   32 1   
    58   30   56 1   
    59   31   57 1   
    60   31   58 1   
    61   31   59 1   
    62   32   33 1   
    63   32   34 1   
    64   32   60 1   
    65   33   61 1   
    66   33   62 1   
    67   33   63 1   
    68   34   64 1   
    69   34   65 1   
@<TRIPOS>SUBSTRUCTURE
     1 AIU         1 TEMP              0 ****  ****    0 ROOT
