@<TRIPOS>MOLECULE
AIU
   65    63     1     0     0
SMALL
bcc


@<TRIPOS>ATOM
      1 C1         -2.0020    4.4220    0.2420 c3        1 AIU     -0.208000
      2 C2         -0.7770    3.8620    0.9620 c3        1 AIU      0.084000
      3 O3         -0.9550    3.4600    2.3470 os        1 AIU     -0.203000
      4 C4         -2.3980    2.7520    2.7590 c2        1 AIU      0.031000
      5 C5         -2.6150    2.1920    3.9850 c1        1 AIU     -0.100000
      6 C6         -3.8680    1.5870    4.2790 c1        1 AIU     -0.136000
      7 C7         -4.9180    1.5650    3.2750 c1        1 AIU      0.067000
      8 O8         -6.2100    1.0200    3.5990 o         1 AIU     -0.251000
      9 C9         -4.6980    2.1420    2.0080 c2        1 AIU     -0.182000
     10 C10        -3.4880    2.7280    1.7200 c2        1 AIU     -0.264000
     11 S11        -3.2190    3.6030    0.2920 ss        1 AIU      0.252000
     12 C12        -1.5770    4.6500   -1.4690 c2        1 AIU     -0.114000
     13 C13        -2.3560    4.0420   -2.4730 c2        1 AIU     -0.063000
     14 C14        -2.0160    4.2040   -3.8080 c1        1 AIU     -0.215000
     15 C15        -0.9050    4.9680   -4.1570 c1        1 AIU      0.089000
     16 O16        -0.5360    5.1000   -5.5290 oh        1 AIU     -0.249000
     17 C17        -0.1210    5.5790   -3.1500 c1        1 AIU     -0.162000
     18 C18        -0.4580    5.4190   -1.8190 c1        1 AIU     -0.081000
     19 C19        -0.2730    2.6410    0.1670 c2        1 AIU     -0.140000
     20 C20        -0.7760    1.3640    0.4610 c2        1 AIU     -0.078000
     21 C21        -0.2150    0.2360   -0.1410 c1        1 AIU     -0.164000
     22 C22         0.8550    0.3810   -1.0400 c1        1 AIU      0.093000
     23 C23         1.3590    1.6610   -1.3330 c1        1 AIU     -0.210000
     24 C24         0.7970    2.7850   -0.7310 c1        1 AIU     -0.070000
     25 O25         1.4750   -0.8140   -1.6540 os        1 AIU     -0.220000
     26 C26         2.4210   -1.4730   -0.8170 c3        1 AIU     -0.025000
     27 C27         2.5390   -2.9470   -1.2430 c3        1 AIU     -0.074000
     28 N28         2.6960   -3.7700   -0.0770 n3        1 AIU     -0.246000
     29 C29         3.6630   -4.9780   -0.4070 c3        1 AIU     -0.082500
     30 C30         3.3470   -5.9630    0.4570 c3        1 AIU     -0.122500
     31 C31         4.2390   -5.8690    1.7530 c3        1 AIU     -0.204000
     32 C32         1.8670   -5.7250    0.8080 c3        1 AIU     -0.122500
     33 C33         1.0290   -6.7300    0.1920 c3        1 AIU     -0.204000
     34 C34         1.5260   -4.3090    0.2460 c3        1 AIU     -0.082500
     35 H1         -2.1970    5.2570    0.6060 h1        1 AIU      0.130000
     36 H2         -0.0970    4.5330    0.9390 h1        1 AIU      0.128000
     37 H5         -1.9430    2.2060    4.6290 ha        1 AIU      0.154000
     38 H6         -4.0070    1.1180    5.1660 ha        1 AIU      0.155000
     39 HO8        -6.6950    1.6390    4.0240 ho        1 AIU      0.218000
     40 H9         -5.4280    2.1260    1.3150 ha        1 AIU      0.144000
     41 H13        -3.1170    3.5190   -2.2340 ha        1 AIU      0.155000
     42 H14        -2.5870    3.7580   -4.5430 ha        1 AIU      0.138000
     43 H16        -0.9300    5.8540   -5.8810 ho        1 AIU      0.220000
     44 H17         0.6370    6.1010   -3.3900 ha        1 AIU      0.153000
     45 H18         0.0920    5.8490   -1.1100 ha        1 AIU      0.136000
     46 H20        -1.5410    1.2610    1.1030 ha        1 AIU      0.150000
     47 H21        -0.5750   -0.6790    0.0680 ha        1 AIU      0.150000
     48 H23         2.1130    1.7630   -1.9670 ha        1 AIU      0.140000
     49 H24         1.1510    3.6890   -0.9410 ha        1 AIU      0.134000
     50 H261        2.1280   -1.4270    0.1010 h1        1 AIU      0.090000
     51 H262        3.3120   -1.0290   -0.9050 h1        1 AIU      0.090000
     52 H271        1.7580   -3.2030   -1.7070 h1        1 AIU      0.085500
     53 H272        3.2980   -3.0550   -1.8110 h1        1 AIU      0.085500
     54 H291        3.5250   -5.2810   -1.3320 h1        1 AIU      0.091000
     55 H292        4.6570   -4.6870   -0.2680 h1        1 AIU      0.091000
     56 H30         3.4570   -6.8210    0.0380 hc        1 AIU      0.093500
     57 H311        4.0240   -6.6090    2.3490 hc        1 AIU      0.075333
     58 H312        4.0610   -5.0190    2.2110 hc        1 AIU      0.075333
     59 H313        5.1840   -5.9130    1.5040 hc        1 AIU      0.075333
     60 H32         1.7470   -5.7380    1.7930 hc        1 AIU      0.093500
     61 H331        0.0720   -6.5590    0.4330 hc        1 AIU      0.075333
     62 H332        1.1330   -6.6890   -0.7990 hc        1 AIU      0.075333
     63 H333        1.2890   -7.5990    0.5070 hc        1 AIU      0.075333
     64 H341        1.0770   -3.7660    0.9380 h1        1 AIU      0.091000
     65 H342        0.9640   -4.3840   -0.5390 h1        1 AIU      0.091000
@<TRIPOS>BOND
     1    1    2 1   
     2    1   11 1   
     3    1   12 1   
     4    1   35 1   
     5    2    3 1   
     6    2   19 1   
     7    2   36 1   
     8    3    4 1   
     9    4    5 1   
    10    4   10 1   
    11    5   37 1   
    12    6    7 1   
    13    6   38 1   
    14    7    9 1   
    15    8   39 1   
    16    9   10 1   
    17    9   40 1   
    18   10   11 1   
    19   12   13 1   
    20   12   18 1   
    21   13   14 1   
    22   13   41 1   
    23   14   42 1   
    24   15   16 1   
    25   15   17 1   
    26   16   43 1   
    27   17   44 1   
    28   18   45 1   
    29   19   20 1   
    30   19   24 1   
    31   20   21 1   
    32   20   46 1   
    33   21   47 1   
    34   22   23 1   
    35   22   25 1   
    36   23   48 1   
    37   24   49 1   
    38   25   26 1   
    39   26   27 1   
    40   26   50 1   
    41   26   51 1   
    42   27   28 1   
    43   27   52 1   
    44   27   53 1   
    45   28   29 1   
    46   28   34 1   
    47   29   30 1   
    48   29   54 1   
    49   29   55 1   
    50   30   31 1   
    51   30   32 1   
    52   30   56 1   
    53   31   57 1   
    54   31   58 1   
    55   31   59 1   
    56   32   33 1   
    57   32   34 1   
    58   32   60 1   
    59   33   61 1   
    60   33   62 1   
    61   33   63 1   
    62   34   64 1   
    63   34   65 1   
@<TRIPOS>SUBSTRUCTURE
     1 AIU         1 TEMP              0 ****  ****    0 ROOT
