@<TRIPOS>MOLECULE
AIU
   65    69     1     0     0
SMALL
bcc


@<TRIPOS>ATOM
      1 C1         -0.0230    0.1640    0.1880 c3        1 AIU      0.025700
      2 C2          1.5010    0.0060    0.2010 c3        1 AIU      0.201400
      3 O3          2.0560    0.1790    1.5180 os        1 AIU     -0.322900
      4 C4          1.8860    1.4550    2.0410 ca        1 AIU      0.058100
      5 C5          2.8890    1.8850    2.9250 ca        1 AIU     -0.096000
      6 C6          2.7730    3.1160    3.5520 ca        1 AIU     -0.143000
      7 C7          1.6510    3.9210    3.2780 ca        1 AIU      0.119100
      8 O8          1.6010    5.1350    3.9260 oh        1 AIU     -0.496100
      9 C9          0.6550    3.4980    2.3950 ca        1 AIU     -0.186000
     10 C10         0.7630    2.2510    1.7660 ca        1 AIU     -0.013100
     11 S11        -0.4780    1.8180    0.7040 ss        1 AIU     -0.170000
     12 C12        -0.8000   -0.8570    0.9320 ca        1 AIU     -0.108300
     13 C13        -0.5070   -1.1920    2.2600 ca        1 AIU     -0.075000
     14 C14        -1.2710   -2.1340    2.9430 ca        1 AIU     -0.186000
     15 C15        -2.3440   -2.7540    2.2880 ca        1 AIU      0.129100
     16 O16        -3.1440   -3.6940    2.8960 oh        1 AIU     -0.497100
     17 C17        -2.6500   -2.4360    0.9550 ca        1 AIU     -0.186000
     18 C18        -1.8760   -1.4920    0.2910 ca        1 AIU     -0.075000
     19 C19         1.9430   -1.3340   -0.3000 ca        1 AIU     -0.127300
     20 C20         2.0280   -1.5360   -1.6850 ca        1 AIU     -0.073000
     21 C21         2.4380   -2.7590   -2.1970 ca        1 AIU     -0.184500
     22 C22         2.7750   -3.8010   -1.3080 ca        1 AIU      0.139100
     23 C23         2.6990   -3.6070    0.0760 ca        1 AIU     -0.184500
     24 C24         2.2810   -2.3720    0.5710 ca        1 AIU     -0.073000
     25 O25         3.1530   -4.9780   -1.9190 os        1 AIU     -0.319900
     26 C26         3.6150   -6.0150   -1.0470 c3        1 AIU      0.128400
     27 C27         4.0610   -7.1630   -1.9630 c3        1 AIU      0.165800
     28 N28         5.4330   -7.0430   -2.4170 n3        1 AIU     -0.718600
     29 C29         5.7730   -7.9550   -3.5110 c3        1 AIU      0.160800
     30 C30         6.9760   -8.8310   -3.1010 c3        1 AIU     -0.081200
     31 C31         8.0230   -8.8820   -4.1840 c3        1 AIU     -0.087100
     32 C32         7.5060   -8.2120   -1.7990 c3        1 AIU     -0.081200
     33 C33         7.7670   -9.2470   -0.7350 c3        1 AIU     -0.087100
     34 C34         6.4340   -7.1910   -1.3600 c3        1 AIU      0.160800
     35 H1         -0.3340    0.1360   -0.8970 h1        1 AIU      0.097700
     36 H2          1.9340    0.8110   -0.4670 h1        1 AIU      0.066700
     37 H5          3.7540    1.2320    3.1150 ha        1 AIU      0.153000
     38 H6          3.5410    3.4750    4.2520 ha        1 AIU      0.155000
     39 HO8         0.7840    5.5810    3.6600 ho        1 AIU      0.420000
     40 H9         -0.2180    4.1360    2.1920 ha        1 AIU      0.145000
     41 H13         0.3400   -0.7060    2.7720 ha        1 AIU      0.142500
     42 H14        -1.0360   -2.3870    3.9860 ha        1 AIU      0.143000
     43 H16        -2.8330   -3.8060    3.8060 ho        1 AIU      0.419000
     44 H17        -3.4930   -2.9340    0.4560 ha        1 AIU      0.143000
     45 H18        -2.1150   -1.2440   -0.7550 ha        1 AIU      0.142500
     46 H20         1.7700   -0.7180   -2.3750 ha        1 AIU      0.140000
     47 H21         2.5090   -2.9310   -3.2800 ha        1 AIU      0.145000
     48 H23         2.9590   -4.4100    0.7780 ha        1 AIU      0.145000
     49 H24         2.2160   -2.2100    1.6590 ha        1 AIU      0.140000
     50 H261        2.7620   -6.3580   -0.4040 h1        1 AIU      0.043700
     51 H262        4.4480   -5.6320   -0.4020 h1        1 AIU      0.043700
     52 H271        3.8750   -8.1240   -1.3990 h1        1 AIU      0.046200
     53 H272        3.3950   -7.1580   -2.8730 h1        1 AIU      0.046200
     54 H291        6.0410   -7.3120   -4.3940 h1        1 AIU      0.044700
     55 H292        4.9090   -8.6070   -3.8100 h1        1 AIU      0.044700
     56 H30         6.6130   -9.8750   -2.8990 hc        1 AIU      0.055200
     57 H311        7.5950   -9.3250   -5.1150 hc        1 AIU      0.036200
     58 H312        8.4010   -7.8580   -4.4230 hc        1 AIU      0.036200
     59 H313        8.8860   -9.5100   -3.8550 hc        1 AIU      0.036200
     60 H32         8.4620   -7.6610   -2.0110 hc        1 AIU      0.055200
     61 H331        6.8340   -9.8080   -0.4830 hc        1 AIU      0.036200
     62 H332        8.5330   -9.9790   -1.0900 hc        1 AIU      0.036200
     63 H333        8.1460   -8.7590    0.1960 hc        1 AIU      0.036200
     64 H341        5.9740   -7.5070   -0.3830 h1        1 AIU      0.044700
     65 H342        6.9050   -6.1820   -1.2070 h1        1 AIU      0.044700
@<TRIPOS>BOND
     1    1    2 1   
     2    1   11 1   
     3    1   12 1   
     4    1   35 1   
     5    2    3 1   
     6    2   19 1   
     7    2   36 1   
     8    3    4 1   
     9    4    5 ar  
    10    4   10 ar  
    11    5    6 ar  
    12    5   37 1   
    13    6    7 ar  
    14    6   38 1   
    15    7    8 1   
    16    7    9 ar  
    17    8   39 1   
    18    9   10 ar  
    19    9   40 1   
    20   10   11 1   
    21   12   13 ar  
    22   12   18 ar  
    23   13   14 ar  
    24   13   41 1   
    25   14   15 ar  
    26   14   42 1   
    27   15   16 1   
    28   15   17 ar  
    29   16   43 1   
    30   17   18 ar  
    31   17   44 1   
    32   18   45 1   
    33   19   20 ar  
    34   19   24 ar  
    35   20   21 ar  
    36   20   46 1   
    37   21   22 ar  
    38   21   47 1   
    39   22   23 ar  
    40   22   25 1   
    41   23   24 ar  
    42   23   48 1   
    43   24   49 1   
    44   25   26 1   
    45   26   27 1   
    46   26   50 1   
    47   26   51 1   
    48   27   28 1   
    49   27   52 1   
    50   27   53 1   
    51   28   29 1   
    52   28   34 1   
    53   29   30 1   
    54   29   54 1   
    55   29   55 1   
    56   30   31 1   
    57   30   32 1   
    58   30   56 1   
    59   31   57 1   
    60   31   58 1   
    61   31   59 1   
    62   32   33 1   
    63   32   34 1   
    64   32   60 1   
    65   33   61 1   
    66   33   62 1   
    67   33   63 1   
    68   34   64 1   
    69   34   65 1   
@<TRIPOS>SUBSTRUCTURE
     1 AIU         1 TEMP              0 ****  ****    0 ROOT
