@<TRIPOS>MOLECULE
AIU
   65    69     1     0     0
SMALL
bcc


@<TRIPOS>ATOM
      1 C1         -0.0190    0.1680    0.1840 c3        1 AIU      0.025700
      2 C2          1.5040    0.0090    0.2030 c3        1 AIU      0.201400
      3 O3          2.0530    0.1780    1.5240 os        1 AIU     -0.322900
      4 C4          1.8810    1.4510    2.0500 ca        1 AIU      0.058100
      5 C5          2.8810    1.8770    2.9410 ca        1 AIU     -0.096000
      6 C6          2.7630    3.1070    3.5710 ca        1 AIU     -0.143000
      7 C7          1.6430    3.9130    3.2950 ca        1 AIU      0.119100
      8 O8          1.5900    5.1250    3.9470 oh        1 AIU     -0.496100
      9 C9          0.6500    3.4940    2.4060 ca        1 AIU     -0.186000
     10 C10         0.7610    2.2490    1.7730 ca        1 AIU     -0.013100
     11 S11        -0.4760    1.8210    0.7030 ss        1 AIU     -0.170000
     12 C12        -0.8010   -0.8550    0.9220 ca        1 AIU     -0.108300
     13 C13        -0.5140   -1.1940    2.2500 ca        1 AIU     -0.075000
     14 C14        -1.2820   -2.1380    2.9250 ca        1 AIU     -0.186000
     15 C15        -2.3520   -2.7560    2.2640 ca        1 AIU      0.129100
     16 O16        -3.1550   -3.6980    2.8650 oh        1 AIU     -0.497100
     17 C17        -2.6520   -2.4330    0.9300 ca        1 AIU     -0.186000
     18 C18        -1.8740   -1.4870    0.2730 ca        1 AIU     -0.075000
     19 C19         1.9480   -1.3300   -0.3000 ca        1 AIU     -0.127300
     20 C20         2.0410   -1.5270   -1.6860 ca        1 AIU     -0.073000
     21 C21         2.4520   -2.7480   -2.1990 ca        1 AIU     -0.184500
     22 C22         2.7820   -3.7930   -1.3130 ca        1 AIU      0.139100
     23 C23         2.6980   -3.6050    0.0710 ca        1 AIU     -0.184500
     24 C24         2.2790   -2.3710    0.5690 ca        1 AIU     -0.073000
     25 O25         3.1620   -4.9680   -1.9260 os        1 AIU     -0.319900
     26 C26         3.6170   -6.0110   -1.0550 c3        1 AIU      0.128400
     27 C27         4.0650   -7.1560   -1.9730 c3        1 AIU      0.165800
     28 N28         5.4410   -7.0380   -2.4160 n3        1 AIU     -0.718600
     29 C29         5.7870   -7.9460   -3.5110 c3        1 AIU      0.160800
     30 C30         6.9820   -8.8290   -3.0960 c3        1 AIU     -0.081200
     31 C31         8.0380   -8.8800   -4.1710 c3        1 AIU     -0.087100
     32 C32         7.5050   -8.2180   -1.7870 c3        1 AIU     -0.081200
     33 C33         7.7520   -9.2590   -0.7250 c3        1 AIU     -0.087100
     34 C34         6.4340   -7.1950   -1.3520 c3        1 AIU      0.160800
     35 H1         -0.3260    0.1440   -0.9020 h1        1 AIU      0.097700
     36 H2          1.9410    0.8160   -0.4600 h1        1 AIU      0.066700
     37 H5          3.7450    1.2240    3.1310 ha        1 AIU      0.153000
     38 H6          3.5270    3.4630    4.2760 ha        1 AIU      0.155000
     39 HO8         0.7740    5.5730    3.6780 ho        1 AIU      0.420000
     40 H9         -0.2220    4.1330    2.2010 ha        1 AIU      0.145000
     41 H13         0.3310   -0.7100    2.7670 ha        1 AIU      0.142500
     42 H14        -1.0510   -2.3950    3.9690 ha        1 AIU      0.143000
     43 H16        -2.8480   -3.8130    3.7760 ho        1 AIU      0.419000
     44 H17        -3.4920   -2.9300    0.4260 ha        1 AIU      0.143000
     45 H18        -2.1080   -1.2360   -0.7730 ha        1 AIU      0.142500
     46 H20         1.7880   -0.7060   -2.3740 ha        1 AIU      0.140000
     47 H21         2.5290   -2.9150   -3.2830 ha        1 AIU      0.145000
     48 H23         2.9530   -4.4110    0.7720 ha        1 AIU      0.145000
     49 H24         2.2080   -2.2130    1.6570 ha        1 AIU      0.140000
     50 H261        4.4460   -5.6320   -0.4030 h1        1 AIU      0.043700
     51 H262        2.7590   -6.3540   -0.4190 h1        1 AIU      0.043700
     52 H271        3.8730   -8.1190   -1.4140 h1        1 AIU      0.046200
     53 H272        3.4060   -7.1440   -2.8880 h1        1 AIU      0.046200
     54 H291        4.9220   -8.5930   -3.8210 h1        1 AIU      0.044700
     55 H292        6.0640   -7.3000   -4.3890 h1        1 AIU      0.044700
     56 H30         6.6140   -9.8730   -2.9010 hc        1 AIU      0.055200
     57 H311        7.6150   -9.3170   -5.1080 hc        1 AIU      0.036200
     58 H312        8.4220   -7.8570   -4.4020 hc        1 AIU      0.036200
     59 H313        8.8960   -9.5130   -3.8380 hc        1 AIU      0.036200
     60 H32         8.4650   -7.6710   -1.9890 hc        1 AIU      0.055200
     61 H331        8.1260   -8.7770    0.2100 hc        1 AIU      0.036200
     62 H332        6.8150   -9.8170   -0.4840 hc        1 AIU      0.036200
     63 H333        8.5180   -9.9930   -1.0780 hc        1 AIU      0.036200
     64 H341        6.9080   -6.1880   -1.1920 h1        1 AIU      0.044700
     65 H342        5.9660   -7.5120   -0.3790 h1        1 AIU      0.044700
@<TRIPOS>BOND
     1    1    2 1   
     2    1   11 1   
     3    1   12 1   
     4    1   35 1   
     5    2    3 1   
     6    2   19 1   
     7    2   36 1   
     8    3    4 1   
     9    4    5 ar  
    10    4   10 ar  
    11    5    6 ar  
    12    5   37 1   
    13    6    7 ar  
    14    6   38 1   
    15    7    8 1   
    16    7    9 ar  
    17    8   39 1   
    18    9   10 ar  
    19    9   40 1   
    20   10   11 1   
    21   12   13 ar  
    22   12   18 ar  
    23   13   14 ar  
    24   13   41 1   
    25   14   15 ar  
    26   14   42 1   
    27   15   16 1   
    28   15   17 ar  
    29   16   43 1   
    30   17   18 ar  
    31   17   44 1   
    32   18   45 1   
    33   19   20 ar  
    34   19   24 ar  
    35   20   21 ar  
    36   20   46 1   
    37   21   22 ar  
    38   21   47 1   
    39   22   23 ar  
    40   22   25 1   
    41   23   24 ar  
    42   23   48 1   
    43   24   49 1   
    44   25   26 1   
    45   26   27 1   
    46   26   50 1   
    47   26   51 1   
    48   27   28 1   
    49   27   52 1   
    50   27   53 1   
    51   28   29 1   
    52   28   34 1   
    53   29   30 1   
    54   29   54 1   
    55   29   55 1   
    56   30   31 1   
    57   30   32 1   
    58   30   56 1   
    59   31   57 1   
    60   31   58 1   
    61   31   59 1   
    62   32   33 1   
    63   32   34 1   
    64   32   60 1   
    65   33   61 1   
    66   33   62 1   
    67   33   63 1   
    68   34   64 1   
    69   34   65 1   
@<TRIPOS>SUBSTRUCTURE
     1 AIU         1 TEMP              0 ****  ****    0 ROOT
