@<TRIPOS>MOLECULE
AIX
   44    41     1     0     0
SMALL
bcc


@<TRIPOS>ATOM
      1 C8         -1.9990    5.9780    1.2070 c1        1 AIX     -0.124250
      2 C5         -0.6360    4.0020    1.2410 c1        1 AIX     -0.113000
      3 C6          0.6590   -3.8720   -1.6070 c3        1 AIX     -0.099000
      4 N1         -0.0280    0.5130   -0.0520 n         1 AIX     -0.329000
      5 C2         -1.6120   -4.6880   -0.9250 c1        1 AIX      0.364000
      6 N3         -0.3780   -3.2050    0.4760 n3        1 AIX     -0.219000
      7 C4         -0.0300    3.0330    0.2530 c3        1 AIX     -0.005000
      8 C1          0.0290   -4.1480   -2.9540 c3        1 AIX     -0.200000
      9 C3         -0.0930    1.6330    0.8170 c2        1 AIX      0.262000
     10 C7         -1.4950    4.8570    0.5680 c1        1 AIX     -0.122000
     11 C9         -1.6440    6.2460    2.5200 c1        1 AIX     -0.124250
     12 C10        -0.7850    5.3920    3.1930 c1        1 AIX     -0.124250
     13 C11        -0.2810    4.2700    2.5540 c1        1 AIX     -0.124250
     14 C12        -0.3660   -4.3570   -0.3860 c3        1 AIX     -0.129000
     15 C13        -0.0760   -1.8740   -0.4700 c3        1 AIX     -0.116000
     16 C14         0.4790   -0.7070    0.4140 c3        1 AIX     -0.044000
     17 C15         1.9710   -0.6890    0.3360 c2        1 AIX      0.197000
     18 C16         1.9820   -4.5980   -1.4930 c3        1 AIX     -0.200000
     19 N2          1.3280    3.3860    0.0130 n3        1 AIX     -0.317000
     20 O1         -1.8160   -5.8470   -1.3730 os        1 AIX     -0.552000
     21 O2         -2.5360   -3.8340   -0.9430 o         1 AIX     -0.574000
     22 O3         -0.1840    1.4650    2.0170 o         1 AIX     -0.388000
     23 O4          2.5230   -0.3760   -0.7030 o         1 AIX     -0.294000
     24 S1          0.8830   -2.2570   -1.4100 ss        1 AIX     -0.168000
     25 H8         -2.6040    6.5800    0.7330 ha        1 AIX      0.150750
     26 HN1        -0.2880    0.5970   -0.9230 hn        1 AIX      0.234000
     27 HN3         0.2800   -3.2880    1.1040 hn        1 AIX      0.120000
     28 H4         -0.5290    3.0690   -0.5870 h1        1 AIX      0.117000
     29 H1         -0.8500   -3.7170   -2.9980 hc        1 AIX      0.081000
     30 H1A         0.6040   -3.7910   -3.6630 hc        1 AIX      0.081000
     31 H1B        -0.0750   -5.1150   -3.0740 hc        1 AIX      0.081000
     32 H7         -1.7450    4.6680   -0.3570 ha        1 AIX      0.125000
     33 H9         -1.9990    7.0350    2.9700 ha        1 AIX      0.150750
     34 H10        -0.5340    5.5800    4.1170 ha        1 AIX      0.150750
     35 H11         0.3420    3.6810    3.0210 ha        1 AIX      0.150750
     36 H12        -0.1460   -5.1720    0.1080 h1        1 AIX      0.108000
     37 H13        -0.8950   -1.5920   -0.9220 h2        1 AIX      0.195000
     38 H14         0.2030   -0.8410    1.3420 h1        1 AIX      0.156000
     39 H15         2.5050   -0.9300    1.1190 h4        1 AIX      0.094000
     40 H16         1.8720   -5.5260   -1.7890 hc        1 AIX      0.081000
     41 H16A        2.6480   -4.1520   -2.0570 hc        1 AIX      0.081000
     42 H16B        2.2820   -4.5850   -0.5600 hc        1 AIX      0.081000
     43 HN2         1.3800    4.2790   -0.1870 hn        1 AIX      0.152500
     44 HN2A        1.6510    2.8970   -0.6900 hn        1 AIX      0.152500
@<TRIPOS>BOND
     1    1   11 1   
     2    1   25 1   
     3    2    7 1   
     4    2   10 1   
     5    3    8 1   
     6    3   14 1   
     7    3   18 1   
     8    3   24 1   
     9    4    9 1   
    10    4   16 1   
    11    4   26 1   
    12    5   14 1   
    13    5   21 1   
    14    6   14 1   
    15    6   15 1   
    16    6   27 1   
    17    7    9 1   
    18    7   19 1   
    19    7   28 1   
    20    8   29 1   
    21    8   30 1   
    22    8   31 1   
    23    9   22 1   
    24   10   32 1   
    25   11   33 1   
    26   12   13 1   
    27   12   34 1   
    28   13   35 1   
    29   14   36 1   
    30   15   16 1   
    31   15   24 1   
    32   15   37 1   
    33   16   17 1   
    34   16   38 1   
    35   17   23 1   
    36   17   39 1   
    37   18   40 1   
    38   18   41 1   
    39   18   42 1   
    40   19   43 1   
    41   19   44 1   
@<TRIPOS>SUBSTRUCTURE
     1 AIX         1 TEMP              0 ****  ****    0 ROOT
