@<TRIPOS>MOLECULE
AIX
   46    42     1     0     0
SMALL
bcc


@<TRIPOS>ATOM
      1 C8          0.9660    1.6160   -0.6390 c2        1 AIX     -0.172000
      2 C5          2.0040   -0.0390    0.8770 c2        1 AIX     -0.098000
      3 C6          3.2850   -6.7320   -2.9180 cu        1 AIX     -0.215000
      4 N1          4.3650   -2.5170    0.1910 n4        1 AIX     -0.043000
      5 N3          3.8770   -6.1450   -0.4920 n3        1 AIX     -0.248000
      6 C4          2.8120    0.2010    2.1280 c3        1 AIX     -0.067000
      7 C3          5.6010   -2.0830    0.9250 c2        1 AIX      0.252000
      8 C7          2.0410    1.0460   -0.0930 c2        1 AIX     -0.169000
      9 C9         -0.2670   -2.5980   -0.5520 c1        1 AIX      0.252000
     10 C10         0.4820   -1.5240   -0.3900 c2        1 AIX     -0.482000
     11 C11         1.3010   -1.1810    0.7460 c2        1 AIX     -0.088000
     12 C12         3.8100   -7.0700   -1.5740 cx        1 AIX     -0.013000
     13 C13         4.0990   -4.8220   -0.6520 c2        1 AIX      0.111000
     14 C14         4.1200   -3.9240    0.3910 c2        1 AIX     -0.456000
     15 C15         7.0710   -3.6090    4.8520 c1        1 AIX      0.272000
     16 N2          4.2390    0.0410    1.9170 n3        1 AIX     -0.392000
     17 O3          6.3780   -1.3470    0.3390 o         1 AIX     -0.215000
     18 O4          6.4930   -3.2820    3.8820 o         1 AIX     -0.269000
     19 S1          4.7140   -2.4530   -3.0070 sh        1 AIX     -0.178000
     20 H8          1.0490    2.4530   -1.3470 ha        1 AIX      0.130000
     21 HN1         4.4560   -2.2920   -0.8270 hn        1 AIX      0.261500
     22 HN3         3.6880   -6.5140    0.4160 hn        1 AIX      0.260000
     23 H4          2.5470    1.2330    2.5090 h1        1 AIX      0.097000
     24 H1          2.3380   -6.3150   -4.7580 ha        1 AIX      0.134500
     25 H1A         1.2360   -6.3400   -3.2580 ha        1 AIX      0.134500
     26 H1B         3.9100   -1.6760   -3.7310 hs        1 AIX      0.105500
     27 H7          3.0530    1.4180   -0.3340 ha        1 AIX      0.125000
     28 H9         -0.0620    1.3080   -0.4010 ha        1 AIX      0.130000
     29 H10         0.4570   -0.7780   -1.2200 ha        1 AIX      0.205000
     30 H11         1.3170   -1.9290    1.5600 ha        1 AIX      0.130000
     31 H12         3.5740   -8.0840   -1.1640 h1        1 AIX      0.162000
     32 H13         4.2740   -4.4890   -1.7060 h4        1 AIX      0.178000
     33 H14         3.5570   -1.9860    0.5630 hn        1 AIX      0.261500
     34 H15         3.9390   -4.2020    1.4390 hx        1 AIX      0.178000
     35 H16         5.8590   -1.8810   -3.3800 hs        1 AIX      0.105500
     36 H16A        5.1370   -7.9500   -3.1860 hc        1 AIX      0.131000
     37 H16B        5.4340   -6.1630   -2.9150 hc        1 AIX      0.131000
     38 HN2         4.5720    0.6970    1.2340 hn        1 AIX      0.161000
     39 HN2A        4.7260    0.2060    2.7770 hn        1 AIX      0.161000
     40 C2          2.7840   -9.5360    1.8320 c1        1 AIX      0.430000
     41 O1          2.4550  -10.4960    2.4440 o         1 AIX     -0.214500
     42 O2          3.1160   -8.5680    1.2160 o         1 AIX     -0.214500
     43 C16         4.7200   -7.0000   -2.7990 cx        1 AIX     -0.171000
     44 H121        5.6780   -2.5020    1.9530 hx        1 AIX      0.225000
     45 H23         2.5040   -0.5340    2.9280 h1        1 AIX      0.097000
     46 C1          2.2500   -6.4510   -3.6690 c2        1 AIX     -0.115000
@<TRIPOS>BOND
     1    1    8 1   
     2    1   20 1   
     3    1   28 1   
     4    2    6 1   
     5    2    8 1   
     6    2   11 1   
     7    3   12 1   
     8    3   43 1   
     9    3   46 1   
    10    4    7 1   
    11    4   14 1   
    12    4   21 1   
    13    4   33 1   
    14    5   12 1   
    15    5   13 1   
    16    5   22 1   
    17    6   16 1   
    18    6   23 1   
    19    6   45 1   
    20    7   17 1   
    21    7   44 1   
    22    8   27 1   
    23    9   10 1   
    24   10   11 1   
    25   10   29 1   
    26   11   30 1   
    27   12   31 1   
    28   12   43 1   
    29   13   14 1   
    30   13   32 1   
    31   14   34 1   
    32   15   18 1   
    33   16   38 1   
    34   16   39 1   
    35   19   26 1   
    36   19   35 1   
    37   24   46 1   
    38   25   46 1   
    39   36   43 1   
    40   37   43 1   
    41   40   41 1   
    42   40   42 1   
@<TRIPOS>SUBSTRUCTURE
     1 AIX         1 TEMP              0 ****  ****    0 ROOT
