@<TRIPOS>MOLECULE
AIX
   44    45     1     0     0
SMALL
bcc


@<TRIPOS>ATOM
      1 C8          3.5690    1.8080   -2.2770 ca        1 AIX     -0.127000
      2 C5          3.6890    0.1590   -0.5090 ca        1 AIX     -0.082300
      3 C6         -2.9910    0.7060   -0.6860 c3        1 AIX      0.097100
      4 N1          1.1450   -1.1010    0.2220 n         1 AIX     -0.533900
      5 N3         -2.2940   -0.2970    1.4940 n3        1 AIX     -0.803200
      6 C4          3.6160   -1.2800   -0.0710 c3        1 AIX      0.142800
      7 C3          2.3320   -1.4890    0.7820 c         1 AIX      0.623100
      8 C7          3.5120    0.4780   -1.8590 ca        1 AIX     -0.114500
      9 C9          3.8060    2.8230   -1.3510 ca        1 AIX     -0.125000
     10 C10         3.9840    2.5080   -0.0040 ca        1 AIX     -0.127000
     11 C11         3.9250    1.1810    0.4180 ca        1 AIX     -0.114500
     12 C12        -3.3760   -0.1720    0.5290 c3        1 AIX      0.017500
     13 C13        -0.9940   -0.0770    0.9090 c3        1 AIX      0.300600
     14 C14        -0.1400   -1.3790    0.8190 c3        1 AIX     -0.011300
     15 C15        -0.9130   -2.4910    0.1200 c         1 AIX      0.571900
     16 N2          4.8290   -1.7310    0.5840 n3        1 AIX     -0.879800
     17 O3          2.4080   -2.0010    1.9220 o         1 AIX     -0.645100
     18 O4         -0.4510   -3.1880   -0.7850 o         1 AIX     -0.555100
     19 S1         -1.1690    0.6480   -0.7560 ss        1 AIX     -0.501200
     20 H8          3.4180    2.0540   -3.3380 ha        1 AIX      0.129500
     21 HN1         1.1320   -0.7310   -0.7030 hn        1 AIX      0.332500
     22 HN3        -2.4590    0.3340    2.2640 hn        1 AIX      0.403800
     23 H4          3.4940   -1.9420   -0.9850 h1        1 AIX      0.083700
     24 H1         -3.0860    2.5180    0.5000 hc        1 AIX      0.046700
     25 H1A        -2.9640    2.7880   -1.2990 hc        1 AIX      0.046700
     26 H1B        -4.5250    2.2160   -0.5510 hc        1 AIX      0.046700
     27 H7          3.3240   -0.3190   -2.5940 ha        1 AIX      0.135000
     28 H9          3.8430    3.8710   -1.6810 ha        1 AIX      0.128000
     29 H10         4.1610    3.3070    0.7290 ha        1 AIX      0.129500
     30 H11         4.0480    0.9400    1.4840 ha        1 AIX      0.135000
     31 H12        -3.6010   -1.2120    0.1530 h1        1 AIX      0.058700
     32 H13        -0.3980    0.6590    1.5170 h2        1 AIX      0.067700
     33 H14         0.0360   -1.7430    1.8810 h1        1 AIX      0.109700
     34 H15        -1.9370   -2.6570    0.5220 h4        1 AIX      0.038200
     35 H16        -4.6730    0.0050   -1.8190 hc        1 AIX      0.046700
     36 H16A       -3.3860    0.8220   -2.8180 hc        1 AIX      0.046700
     37 H16B       -3.1160   -0.8590   -2.1910 hc        1 AIX      0.046700
     38 HN2         5.1060   -1.0790    1.2940 hn        1 AIX      0.356300
     39 HN2A        4.6550   -2.6170    1.0250 hn        1 AIX      0.356300
     40 C1         -3.4080    2.1440   -0.5030 c3        1 AIX     -0.084100
     41 C2         -4.7070    0.3830    1.1670 c         1 AIX      0.928600
     42 O1         -5.7710    0.0620    0.5780 o         1 AIX     -0.819800
     43 O2         -4.6120    1.1050    2.1950 o         1 AIX     -0.819800
     44 C16        -3.5680    0.1350   -1.9570 c3        1 AIX     -0.084100
@<TRIPOS>BOND
     1    1    8 ar  
     2    1    9 ar  
     3    1   20 1   
     4    2    6 1   
     5    2    8 ar  
     6    2   11 ar  
     7    3   12 1   
     8    3   19 1   
     9    3   40 1   
    10    3   44 1   
    11    4    7 1   
    12    4   14 1   
    13    4   21 1   
    14    5   12 1   
    15    5   13 1   
    16    5   22 1   
    17    6    7 1   
    18    6   16 1   
    19    6   23 1   
    20    7   17 2   
    21    8   27 1   
    22    9   10 ar  
    23    9   28 1   
    24   10   11 ar  
    25   10   29 1   
    26   11   30 1   
    27   12   31 1   
    28   12   41 1   
    29   13   14 1   
    30   13   19 1   
    31   13   32 1   
    32   14   15 1   
    33   14   33 1   
    34   15   18 2   
    35   15   34 1   
    36   16   38 1   
    37   16   39 1   
    38   24   40 1   
    39   25   40 1   
    40   26   40 1   
    41   35   44 1   
    42   36   44 1   
    43   37   44 1   
    44   41   42 1   
    45   41   43 1   
@<TRIPOS>SUBSTRUCTURE
     1 AIX         1 TEMP              0 ****  ****    0 ROOT
