@<TRIPOS>MOLECULE
AIX
   46    42     1     0     0
SMALL
bcc


@<TRIPOS>ATOM
      1 C8         -1.7340    0.9180    1.5160 c2        1 AIX     -0.226000
      2 C5          0.6930    0.6100    1.9560 c2        1 AIX     -0.198000
      3 C6          5.7720   -4.7970   -4.2770 c1        1 AIX     -0.497000
      4 N1          4.0420   -1.0000   -0.4900 nt        1 AIX     -0.420000
      5 N3          5.1040   -6.1060   -1.4580 n7        1 AIX     -0.075000
      6 C4          1.9040    1.2350    1.9520 c2        1 AIX     -0.014000
      7 C3          4.9980   -1.5090    0.3290 c2        1 AIX      0.273000
      8 C7         -0.4760    1.3630    1.5280 c2        1 AIX     -0.115000
      9 C9          0.9700   -2.7340    0.8560 c1        1 AIX      0.087000
     10 C10         0.2870   -1.6900    1.1980 c2        1 AIX     -0.354000
     11 C11         0.4990   -0.8010    2.3830 c3        1 AIX     -0.028000
     12 C12         3.8550   -6.0200   -1.1250 c2        1 AIX      0.092000
     13 C13         6.0580   -4.9840   -1.6180 c3        1 AIX     -0.112000
     14 C14         7.1190   -5.0130   -0.5980 c2        1 AIX     -0.419000
     15 C15         8.1230   -5.8700   -0.5380 c1        1 AIX      0.306000
     16 N2          3.1440    0.6810    2.2130 n8        1 AIX     -0.340000
     17 O3          5.3480   -2.7100    0.2660 o         1 AIX     -0.459000
     18 O4          9.0320   -6.6180   -0.4160 o         1 AIX     -0.081000
     19 S1          6.8910   -5.0820   -3.2000 ss        1 AIX      0.496000
     20 H8         -2.5640    1.5550    1.1810 ha        1 AIX      0.117500
     21 HN1         3.7480   -0.0600   -0.4020 hn        1 AIX      0.237500
     22 HN3         5.5050   -7.0270   -1.6190 hn        1 AIX      0.271000
     23 H4          1.9540    2.3030    1.6420 h4        1 AIX      0.152000
     24 H1          4.3090   -9.0220   -1.5420 hc        1 AIX      0.072750
     25 H1A         4.3100   -4.3710   -5.9620 ha        1 AIX      0.243000
     26 H1B         1.7790   -3.9330    0.4250 ho        1 AIX      0.359000
     27 H7         -0.2660    2.3960    1.1910 ha        1 AIX      0.127000
     28 H9         -2.0330   -0.0850    1.8450 ha        1 AIX      0.117500
     29 H10        -0.5690   -1.3590    0.5600 ha        1 AIX      0.235000
     30 H11         1.3580   -1.1790    2.9960 hc        1 AIX      0.105500
     31 H12         3.2410   -6.9500   -1.0290 h4        1 AIX      0.210000
     32 H13         5.4730   -4.0140   -1.5060 h2        1 AIX      0.222000
     33 H14         3.5930   -1.5730   -1.1650 hn        1 AIX      0.237500
     34 H15         7.0700   -4.2030    0.1610 ha        1 AIX      0.245000
     35 H16         5.6940   -9.0760   -2.7260 hc        1 AIX      0.072750
     36 H16A        5.1950  -10.5730   -1.8390 hc        1 AIX      0.072750
     37 H16B        6.0150   -9.2340   -0.9380 hc        1 AIX      0.072750
     38 HN2         3.1430   -0.1700    2.7330 hn        1 AIX      0.189500
     39 HN2A        3.8160    1.3360    2.5550 hn        1 AIX      0.189500
     40 C2          3.0970   -4.7420   -0.8540 c2        1 AIX      0.343000
     41 O1          2.3290   -4.8420    0.2160 oh        1 AIX     -0.365000
     42 O2          3.1360   -3.7410   -1.5750 o         1 AIX     -0.349000
     43 C16         5.3040   -9.4680   -1.7610 c3        1 AIX     -0.286000
     44 H121        5.4470   -0.7940    1.0560 h5        1 AIX      0.134000
     45 H23        -0.4190   -0.8770    3.0340 hc        1 AIX      0.105500
     46 C1          4.9920   -4.5720   -5.1700 c1        1 AIX     -0.049000
@<TRIPOS>BOND
     1    1    8 1   
     2    1   20 1   
     3    1   28 1   
     4    2    6 1   
     5    2    8 1   
     6    2   11 1   
     7    3   19 1   
     8    3   46 1   
     9    4    7 1   
    10    4   21 1   
    11    4   33 1   
    12    5   12 1   
    13    5   13 1   
    14    5   22 1   
    15    6   16 1   
    16    6   23 1   
    17    7   17 1   
    18    7   44 1   
    19    8   27 1   
    20    9   10 1   
    21   10   11 1   
    22   10   29 1   
    23   11   30 1   
    24   11   45 1   
    25   12   31 1   
    26   12   40 1   
    27   13   14 1   
    28   13   19 1   
    29   13   32 1   
    30   14   15 1   
    31   14   34 1   
    32   15   18 1   
    33   16   38 1   
    34   16   39 1   
    35   24   43 1   
    36   25   46 1   
    37   26   41 1   
    38   35   43 1   
    39   36   43 1   
    40   37   43 1   
    41   40   41 1   
    42   40   42 1   
@<TRIPOS>SUBSTRUCTURE
     1 AIX         1 TEMP              0 ****  ****    0 ROOT
