@<TRIPOS>MOLECULE
AIZ
   63    66     1     0     0
SMALL
bcc


@<TRIPOS>ATOM
      1 C1          0.1820   -1.1800    1.5380 cc        1 AIZ      0.378500
      2 C2          1.5000   -0.8660    0.9890 ca        1 AIZ     -0.162900
      3 C3         -1.0330   -1.4240    0.7770 ca        1 AIZ     -0.085900
      4 N4          0.2630   -1.2290    2.8990 nd        1 AIZ     -0.460100
      5 C5          2.3470   -0.7500    2.1590 ca        1 AIZ     -0.049200
      6 C6          2.0480   -0.6640   -0.2770 ca        1 AIZ     -0.028000
      7 C7         -2.2890   -1.1260    1.3280 ca        1 AIZ     -0.078000
      8 C8         -0.9430   -1.9930   -0.5040 ca        1 AIZ     -0.042000
      9 N9          1.5150   -0.9740    3.2640 na        1 AIZ      0.016900
     10 C10         3.7150   -0.4650    2.0570 ca        1 AIZ     -0.091000
     11 C11         3.4010   -0.3810   -0.3890 ca        1 AIZ     -0.147000
     12 C12        -3.4370   -1.3270    0.5430 ca        1 AIZ     -0.082400
     13 C13        -2.0910   -2.1740   -1.2730 ca        1 AIZ     -0.123600
     14 C14         4.2200   -0.2960    0.7650 ca        1 AIZ     -0.009400
     15 C15        -3.3290   -1.7670   -0.7840 ca        1 AIZ     -0.097000
     16 N16        -4.7780   -1.1290    1.1040 n4        1 AIZ     -0.540200
     17 C17        -2.0710   -2.9190   -2.6020 c         1 AIZ      0.933200
     18 N18         5.6580   -0.0380    0.5860 n4        1 AIZ     -0.501800
     19 C19        -5.5470   -2.4460    1.1220 c         1 AIZ      0.554100
     20 O20        -3.2130   -3.3150   -3.0150 o         1 AIZ     -0.815300
     21 C21         6.0420    1.3550    0.8480 ca        1 AIZ     -0.059400
     22 C22        -6.1870   -2.9020   -0.1620 c3        1 AIZ     -0.140400
     23 O23        -5.5880   -3.0030    2.2060 o         1 AIZ     -0.392100
     24 C24         6.7850    1.6840    2.0020 ca        1 AIZ      0.024400
     25 C25         5.6860    2.3570   -0.0710 ca        1 AIZ     -0.085000
     26 C26        -5.4660   -4.1240   -0.7170 c3        1 AIZ     -0.105400
     27 C27         7.1760    3.0080    2.2160 ca        1 AIZ     -0.093000
     28 CL28        7.2210    0.4870    3.1220 cl        1 AIZ     -0.043400
     29 C29         6.0830    3.6720    0.1600 ca        1 AIZ     -0.101000
     30 C30        -5.8320   -4.3120   -2.1900 c3        1 AIZ      0.121800
     31 C31         6.8250    3.9970    1.2960 ca        1 AIZ     -0.061000
     32 N32        -4.9830   -5.3250   -2.8940 n4        1 AIZ     -0.680400
     33 C33        -5.2660   -6.7040   -2.4430 c3        1 AIZ      0.085600
     34 C34        -5.1520   -5.1890   -4.3680 c3        1 AIZ      0.085600
     35 O35        -0.9830   -3.1360   -3.1660 o         1 AIZ     -0.815300
     36 H6          1.4210   -0.7260   -1.1840 ha        1 AIZ      0.183000
     37 H7         -2.3600   -0.7500    2.3620 ha        1 AIZ      0.165000
     38 H8          0.0260   -2.3250   -0.9200 ha        1 AIZ      0.183000
     39 HN9         1.7770   -1.0000    4.2260 hn        1 AIZ      0.354700
     40 H10         4.3450   -0.3800    2.9570 ha        1 AIZ      0.171000
     41 H11         3.8290   -0.2280   -1.3940 ha        1 AIZ      0.161000
     42 H15        -4.1950   -1.8410   -1.4670 ha        1 AIZ      0.166000
     43 H16        -4.6950   -0.7730    2.0670 hn        1 AIZ      0.463800
     44 H18         5.9170   -0.2660   -0.3840 hn        1 AIZ      0.468800
     45 H221       -6.2200   -2.0790   -0.9250 hc        1 AIZ      0.108200
     46 H222       -7.2540   -3.1710    0.0900 hc        1 AIZ      0.108200
     47 H25         5.0970    2.1150   -0.9720 ha        1 AIZ      0.160000
     48 H261       -5.7520   -5.0270   -0.1150 hc        1 AIZ      0.090200
     49 H262       -4.3510   -3.9860   -0.6280 hc        1 AIZ      0.090200
     50 H27         7.7650    3.2680    3.1130 ha        1 AIZ      0.188000
     51 H29         5.8090    4.4580   -0.5650 ha        1 AIZ      0.177000
     52 H301       -5.6600   -3.3330   -2.7340 hx        1 AIZ      0.107200
     53 H302       -6.9100   -4.6200   -2.2890 hx        1 AIZ      0.107200
     54 H31         7.1400    5.0420    1.4710 ha        1 AIZ      0.180000
     55 H331       -4.5630   -7.4120   -2.9600 hx        1 AIZ      0.102700
     56 H332       -6.3230   -6.9810   -2.6990 hx        1 AIZ      0.102700
     57 H333       -5.1150   -6.7760   -1.3340 hx        1 AIZ      0.102700
     58 H341       -6.2400   -5.2210   -4.6340 hx        1 AIZ      0.102700
     59 H342       -4.6880   -4.2100   -4.6840 hx        1 AIZ      0.102700
     60 H343       -4.6090   -6.0300   -4.8750 hx        1 AIZ      0.102700
     61 H162       -5.2830   -0.4410    0.5340 hn        1 AIZ      0.463800
     62 H182        6.1870   -0.6560    1.2240 hn        1 AIZ      0.468800
     63 H321       -3.9800   -5.0770   -2.6930 hn        1 AIZ      0.509800
@<TRIPOS>BOND
     1    1    2 1   
     2    1    3 1   
     3    1    4 2   
     4    2    5 ar  
     5    2    6 ar  
     6    3    7 ar  
     7    3    8 ar  
     8    4    9 1   
     9    5    9 1   
    10    5   10 ar  
    11    6   11 ar  
    12    6   36 1   
    13    7   12 ar  
    14    7   37 1   
    15    8   13 ar  
    16    8   38 1   
    17    9   39 1   
    18   10   14 ar  
    19   10   40 1   
    20   11   14 ar  
    21   11   41 1   
    22   12   15 ar  
    23   12   16 1   
    24   13   15 ar  
    25   13   17 1   
    26   14   18 1   
    27   15   42 1   
    28   16   19 1   
    29   16   43 1   
    30   16   61 1   
    31   17   20 1   
    32   17   35 1   
    33   18   21 1   
    34   18   44 1   
    35   18   62 1   
    36   19   22 1   
    37   19   23 2   
    38   21   24 ar  
    39   21   25 ar  
    40   22   26 1   
    41   22   45 1   
    42   22   46 1   
    43   24   27 ar  
    44   24   28 1   
    45   25   29 ar  
    46   25   47 1   
    47   26   30 1   
    48   26   48 1   
    49   26   49 1   
    50   27   31 ar  
    51   27   50 1   
    52   29   31 ar  
    53   29   51 1   
    54   30   32 1   
    55   30   52 1   
    56   30   53 1   
    57   31   54 1   
    58   32   33 1   
    59   32   34 1   
    60   32   63 1   
    61   33   55 1   
    62   33   56 1   
    63   33   57 1   
    64   34   58 1   
    65   34   59 1   
    66   34   60 1   
@<TRIPOS>SUBSTRUCTURE
     1 AIZ         1 TEMP              0 ****  ****    0 ROOT
