@<TRIPOS>MOLECULE
AIZ
   60    53     1     0     0
SMALL
bcc


@<TRIPOS>ATOM
      1 C1          1.4380    1.9820    1.0100 c2        1 AIZ      0.013000
      2 C2          2.8100    1.7760    0.9260 c1        1 AIZ     -0.094000
      3 C3          0.1880    2.1290    0.3360 c1        1 AIZ     -0.094000
      4 N4          1.1510    2.3830    2.2710 n2        1 AIZ     -0.093000
      5 C5          3.3530    2.0550    2.1450 c1        1 AIZ     -0.008000
      6 C6          3.6250    1.2710   -0.1110 c1        1 AIZ     -0.060000
      7 C7         -0.7320    1.1000    0.5630 c1        1 AIZ     -0.160000
      8 C8         -0.0360    3.0480   -0.6820 c1        1 AIZ     -0.060000
      9 N9          2.3330    2.4310    2.9850 n1        1 AIZ     -0.181000
     10 C10         4.7330    1.8370    2.3720 c1        1 AIZ     -0.201000
     11 C11         4.9820    1.0560    0.1120 c1        1 AIZ     -0.198000
     12 C12        -1.8710    0.9970   -0.2310 c1        1 AIZ      0.019000
     13 C13        -1.1780    2.9450   -1.4760 c1        1 AIZ     -0.098000
     14 C14         5.5350    1.3390    1.3510 c1        1 AIZ      0.090000
     15 C15        -2.0960    1.9180   -1.2500 c1        1 AIZ     -0.087000
     16 N16        -2.8340   -0.0540    0.0200 n         1 AIZ     -0.321000
     17 C17        -1.2670    4.0870   -2.4770 c2        1 AIZ      0.360000
     18 N18         6.9710    1.3670    1.4110 n3        1 AIZ     -0.275000
     19 C19        -3.9760   -0.2270   -0.8770 c2        1 AIZ      0.299000
     20 O20        -1.6560    5.2240   -2.1010 o         1 AIZ     -0.558000
     21 C21         7.6840    0.3060    2.0720 c2        1 AIZ      0.112000
     22 C22        -5.0450   -1.3150   -0.5730 c3        1 AIZ     -0.192000
     23 O23        -4.1160    0.5140   -1.8370 o         1 AIZ     -0.343000
     24 C24         8.3640   -0.5950    1.2630 c2        1 AIZ     -0.136000
     25 C25         7.8160    0.2370    3.4540 c1        1 AIZ     -0.172000
     26 C26        -5.7890   -1.6880   -1.8800 c3        1 AIZ     -0.159000
     27 C27         9.1770   -1.5650    1.8360 c1        1 AIZ     -0.090000
     28 CL28        8.1310   -0.5620   -0.4620 cl        1 AIZ     -0.033000
     29 C29         8.6290   -0.7330    4.0260 c1        1 AIZ     -0.134500
     30 C30        -7.0750   -2.4640   -1.5360 c3        1 AIZ     -0.067000
     31 C31         9.3090   -1.6340    3.2180 c1        1 AIZ     -0.134500
     32 N32        -7.6530   -3.0030   -2.7460 n3        1 AIZ     -0.263000
     33 C33        -7.6820   -4.4310   -2.6650 c3        1 AIZ     -0.119500
     34 C34        -9.0040   -2.5020   -2.9020 c3        1 AIZ     -0.119500
     35 O35        -0.9080    3.9070   -3.6700 o         1 AIZ     -0.558000
     36 H6          3.2200    0.9960   -0.9590 ha        1 AIZ      0.168000
     37 H7         -0.5750    0.4550    1.2770 ha        1 AIZ      0.122000
     38 H8          0.5960    3.7710   -0.8300 ha        1 AIZ      0.168000
     39 HN9         2.4210    2.6720    3.8650 DU        1 AIZ      0.233000
     40 H10         5.1380    2.1130    3.2190 ha        1 AIZ      0.141000
     41 H11         5.5440    0.7080   -0.6060 ha        1 AIZ      0.140000
     42 H15        -2.8920    1.8460   -1.8040 ha        1 AIZ      0.182000
     43 H16        -2.7030   -0.6350    0.7060 hn        1 AIZ      0.217000
     44 H18         7.4320    2.0650    1.0370 hn        1 AIZ      0.237000
     45 H221       -4.6070   -2.1100   -0.2090 hc        1 AIZ      0.105500
     46 H222       -5.6880   -0.9670    0.0820 hc        1 AIZ      0.105500
     47 H25         7.3380    0.8710    4.0220 ha        1 AIZ      0.155000
     48 H261       -6.0200   -0.8750   -2.3660 hc        1 AIZ      0.094000
     49 H262       -5.2080   -2.2490   -2.4370 hc        1 AIZ      0.094000
     50 H27         9.6530   -2.1960    1.2710 ha        1 AIZ      0.139000
     51 H29         8.7220   -0.7810    4.9950 ha        1 AIZ      0.131500
     52 H301       -7.7140   -1.8600   -1.1110 h1        1 AIZ      0.069000
     53 H302       -6.8580   -3.2000   -0.9190 h1        1 AIZ      0.069000
     54 H31         9.8800   -2.3150    3.6200 ha        1 AIZ      0.131500
     55 H331       -6.7730   -4.7690   -2.4830 h1        1 AIZ      0.068667
     56 H332       -8.2860   -4.7060   -1.9400 h1        1 AIZ      0.068667
     57 H333       -8.0040   -4.8010   -3.5160 h1        1 AIZ      0.068667
     58 H341       -8.9750   -1.5510   -3.1410 h1        1 AIZ      0.068667
     59 H342       -9.4570   -3.0020   -3.6090 h1        1 AIZ      0.068667
     60 H343       -9.4930   -2.6130   -2.0590 h1        1 AIZ      0.068667
@<TRIPOS>BOND
     1    1    2 1   
     2    1    3 1   
     3    1    4 1   
     4    2    6 1   
     5    3    8 1   
     6    4    9 1   
     7    5   10 1   
     8    6   36 1   
     9    7   12 1   
    10    7   37 1   
    11    8   38 1   
    12   10   40 1   
    13   11   14 1   
    14   11   41 1   
    15   12   16 1   
    16   13   15 1   
    17   13   17 1   
    18   14   18 1   
    19   15   42 1   
    20   16   19 1   
    21   16   43 1   
    22   17   20 1   
    23   17   35 1   
    24   18   21 1   
    25   18   44 1   
    26   19   22 1   
    27   19   23 1   
    28   21   24 1   
    29   21   25 1   
    30   22   26 1   
    31   22   45 1   
    32   22   46 1   
    33   24   27 1   
    34   24   28 1   
    35   25   47 1   
    36   26   30 1   
    37   26   48 1   
    38   26   49 1   
    39   27   50 1   
    40   29   31 1   
    41   29   51 1   
    42   30   32 1   
    43   30   52 1   
    44   30   53 1   
    45   31   54 1   
    46   32   33 1   
    47   32   34 1   
    48   33   55 1   
    49   33   56 1   
    50   33   57 1   
    51   34   58 1   
    52   34   59 1   
    53   34   60 1   
@<TRIPOS>SUBSTRUCTURE
     1 AIZ         1 TEMP              0 ****  ****    0 ROOT
