@<TRIPOS>MOLECULE
AIZ
   60    63     1     0     0
SMALL
bcc


@<TRIPOS>ATOM
      1 C1         -0.1450   -0.0070   -0.8100 cc        1 AIZ      0.458500
      2 C2         -1.4800    0.1490   -0.2060 ca        1 AIZ     -0.208900
      3 C3          0.9710    0.9040   -0.6060 ca        1 AIZ     -0.135900
      4 N4         -0.1300   -1.1190   -1.5780 nd        1 AIZ     -0.537100
      5 C5         -2.2260   -0.9810   -0.7010 ca        1 AIZ     -0.059200
      6 C6         -2.0890    1.0450    0.6630 ca        1 AIZ     -0.027000
      7 C7          2.2820    0.4070   -0.5480 ca        1 AIZ     -0.127000
      8 C8          0.7230    2.2730   -0.4600 ca        1 AIZ     -0.100000
      9 N9         -1.3160   -1.7590   -1.4590 na        1 AIZ     -0.010100
     10 C10        -3.5570   -1.2000   -0.3450 ca        1 AIZ     -0.167000
     11 C11        -3.4170    0.8420    1.0120 ca        1 AIZ     -0.202000
     12 C12         3.3500    1.2950   -0.3260 ca        1 AIZ      0.012600
     13 C13         1.7800    3.1570   -0.2290 ca        1 AIZ     -0.117600
     14 C14        -4.1600   -0.2650    0.5160 ca        1 AIZ      0.143600
     15 C15         3.0830    2.6760   -0.1620 ca        1 AIZ     -0.134000
     16 N16         4.6980    0.8750   -0.2830 n         1 AIZ     -0.460100
     17 C17         1.5060    4.6440   -0.0330 c         1 AIZ      0.911200
     18 N18        -5.4860   -0.4690    0.9690 nh        1 AIZ     -0.622000
     19 C19         5.1790   -0.4010   -0.0740 c         1 AIZ      0.656100
     20 O20         2.5010    5.4170    0.0590 o         1 AIZ     -0.826300
     21 C21        -6.5710   -0.5350    0.0930 ca        1 AIZ      0.182600
     22 C22         6.6960   -0.5130    0.0450 c3        1 AIZ     -0.157400
     23 O23         4.4540   -1.4110    0.0090 o         1 AIZ     -0.606100
     24 C24        -7.8910   -0.6500    0.6080 ca        1 AIZ     -0.050600
     25 C25        -6.4230   -0.5460   -1.3160 ca        1 AIZ     -0.181000
     26 C26         7.1310   -1.9620    0.0410 c3        1 AIZ     -0.076400
     27 C27        -8.9870   -0.7950   -0.2420 ca        1 AIZ     -0.091000
     28 CL28       -8.1760   -0.6080    2.2910 cl        1 AIZ     -0.110400
     29 C29        -7.5220   -0.6930   -2.1490 ca        1 AIZ     -0.093000
     30 C30         8.6240   -2.0510    0.3440 c3        1 AIZ      0.169800
     31 C31        -8.8070   -0.8220   -1.6210 ca        1 AIZ     -0.175000
     32 N32         9.2080   -3.3710    0.1390 n3        1 AIZ     -0.736600
     33 C33        10.6260   -3.3780    0.4190 c3        1 AIZ      0.156600
     34 C34         8.4980   -4.4340    0.8120 c3        1 AIZ      0.156600
     35 O35         0.3010    5.0140    0.0330 o         1 AIZ     -0.826300
     36 H6         -1.5280    1.9080    1.0630 ha        1 AIZ      0.174000
     37 H7          2.4640   -0.6720   -0.6650 ha        1 AIZ      0.164000
     38 H8         -0.2960    2.6870   -0.5280 ha        1 AIZ      0.157000
     39 HN9        -1.6150   -2.2890   -2.2480 hn        1 AIZ      0.289700
     40 H10        -4.1070   -2.0760   -0.7140 ha        1 AIZ      0.143000
     41 H11        -3.9010    1.5610    1.6910 ha        1 AIZ      0.135000
     42 H15         3.8880    3.4090    0.0150 ha        1 AIZ      0.155000
     43 H16         5.3620    1.6180   -0.2730 hn        1 AIZ      0.310500
     44 H18        -5.6840   -0.0290    1.8450 hn        1 AIZ      0.427800
     45 H221        7.0120   -0.0200    1.0030 hc        1 AIZ      0.058200
     46 H222        7.1890    0.0330   -0.8020 hc        1 AIZ      0.058200
     47 H25        -5.4210   -0.4240   -1.7590 ha        1 AIZ      0.154000
     48 H261        6.8990   -2.4200   -0.9560 hc        1 AIZ      0.066700
     49 H262        6.5400   -2.5280    0.8100 hc        1 AIZ      0.066700
     50 H27        -9.9980   -0.8860    0.1830 ha        1 AIZ      0.139000
     51 H29        -7.3750   -0.7000   -3.2400 ha        1 AIZ      0.131000
     52 H301        8.7920   -1.6880    1.4030 h1        1 AIZ      0.025200
     53 H302        9.1740   -1.3440   -0.3430 h1        1 AIZ      0.025200
     54 H31        -9.6720   -0.9390   -2.2880 ha        1 AIZ      0.131000
     55 H331       11.0440   -4.3810    0.1430 h1        1 AIZ      0.029200
     56 H332       11.1270   -2.5960   -0.2090 h1        1 AIZ      0.029200
     57 H333       10.8700   -3.1760    1.4990 h1        1 AIZ      0.029200
     58 H341        7.4620   -4.5020    0.3860 h1        1 AIZ      0.029200
     59 H342        9.0250   -5.4060    0.6240 h1        1 AIZ      0.029200
     60 H343        8.4190   -4.2820    1.9240 h1        1 AIZ      0.029200
@<TRIPOS>BOND
     1    1    2 1   
     2    1    3 1   
     3    1    4 2   
     4    2    5 ar  
     5    2    6 ar  
     6    3    7 ar  
     7    3    8 ar  
     8    4    9 1   
     9    5    9 1   
    10    5   10 ar  
    11    6   11 ar  
    12    6   36 1   
    13    7   12 ar  
    14    7   37 1   
    15    8   13 ar  
    16    8   38 1   
    17    9   39 1   
    18   10   14 ar  
    19   10   40 1   
    20   11   14 ar  
    21   11   41 1   
    22   12   15 ar  
    23   12   16 1   
    24   13   15 ar  
    25   13   17 1   
    26   14   18 1   
    27   15   42 1   
    28   16   19 1   
    29   16   43 1   
    30   17   20 1   
    31   17   35 1   
    32   18   21 1   
    33   18   44 1   
    34   19   22 1   
    35   19   23 2   
    36   21   24 ar  
    37   21   25 ar  
    38   22   26 1   
    39   22   45 1   
    40   22   46 1   
    41   24   27 ar  
    42   24   28 1   
    43   25   29 ar  
    44   25   47 1   
    45   26   30 1   
    46   26   48 1   
    47   26   49 1   
    48   27   31 ar  
    49   27   50 1   
    50   29   31 ar  
    51   29   51 1   
    52   30   32 1   
    53   30   52 1   
    54   30   53 1   
    55   31   54 1   
    56   32   33 1   
    57   32   34 1   
    58   33   55 1   
    59   33   56 1   
    60   33   57 1   
    61   34   58 1   
    62   34   59 1   
    63   34   60 1   
@<TRIPOS>SUBSTRUCTURE
     1 AIZ         1 TEMP              0 ****  ****    0 ROOT
