@<TRIPOS>MOLECULE
AIZ
   61    64     1     0     0
SMALL
bcc


@<TRIPOS>ATOM
      1 C1          0.2270   -0.0090    0.1990 cc        1 AIZ      0.388500
      2 C2          1.6800    0.1010    0.0800 ca        1 AIZ     -0.228900
      3 C3         -0.6780   -0.5420   -0.8070 ca        1 AIZ     -0.065900
      4 N4         -0.1650    0.4700    1.4110 nd        1 AIZ     -0.495100
      5 C5          2.0940    0.6910    1.3290 ca        1 AIZ     -0.018200
      6 C6          2.6510   -0.2250   -0.8670 ca        1 AIZ     -0.034000
      7 C7         -1.7960   -1.2890   -0.4220 ca        1 AIZ     -0.101000
      8 C8         -0.4240   -0.2920   -2.1630 ca        1 AIZ     -0.088000
      9 N9          0.9150    0.9090    2.0610 na        1 AIZ     -0.015100
     10 C10         3.4350    0.9600    1.6210 ca        1 AIZ     -0.209000
     11 C11         3.9780    0.0400   -0.5920 ca        1 AIZ     -0.196000
     12 C12        -2.6780   -1.8040   -1.3990 ca        1 AIZ      0.068600
     13 C13        -1.2810   -0.8170   -3.1300 ca        1 AIZ     -0.149600
     14 C14         4.3890    0.6440    0.6410 ca        1 AIZ      0.193600
     15 C15        -2.4020   -1.5630   -2.7630 ca        1 AIZ     -0.165000
     16 N16        -3.8360   -2.5260   -1.0670 n         1 AIZ     -0.477100
     17 C17        -0.9940   -0.5500   -4.5530 c         1 AIZ      0.639700
     18 N18         5.7560    0.9140    0.8010 nh        1 AIZ     -0.632000
     19 C19        -4.1090   -3.1620    0.1390 c         1 AIZ      0.667100
     20 O20        -1.2580   -1.5170   -5.4870 oh        1 AIZ     -0.582100
     21 C21         6.2800    1.5910    1.9120 ca        1 AIZ      0.154600
     22 C22        -5.4420   -3.8860    0.2340 c3        1 AIZ     -0.159400
     23 O23        -3.3310   -3.1310    1.1070 o         1 AIZ     -0.579100
     24 C24         7.4220    1.1030    2.5980 ca        1 AIZ     -0.035600
     25 C25         5.7450    2.8340    2.3250 ca        1 AIZ     -0.151000
     26 C26        -5.5850   -4.9760   -0.8060 c3        1 AIZ     -0.081400
     27 C27         7.9970    1.8300    3.6420 ca        1 AIZ     -0.097000
     28 CL28        8.1300   -0.3830    2.1550 cl        1 AIZ     -0.098400
     29 C29         6.3210    3.5410    3.3730 ca        1 AIZ     -0.106000
     30 C30        -6.8070   -5.8370   -0.4760 c3        1 AIZ      0.173800
     31 C31         7.4450    3.0460    4.0350 ca        1 AIZ     -0.146000
     32 N32        -7.0090   -6.9230   -1.4250 n3        1 AIZ     -0.743600
     33 C33        -7.6670   -8.0680   -0.8380 c3        1 AIZ      0.159100
     34 C34        -7.6230   -6.4950   -2.6610 c3        1 AIZ      0.159100
     35 O35        -0.5170    0.4760   -5.0370 o         1 AIZ     -0.481000
     36 H6          2.3620   -0.6880   -1.8220 ha        1 AIZ      0.143000
     37 H7         -1.9830   -1.4750    0.6500 ha        1 AIZ      0.190000
     38 H8          0.4370    0.3250   -2.4670 ha        1 AIZ      0.163000
     39 HN9         0.8490    1.1730    3.0150 hn        1 AIZ      0.326700
     40 H10         3.7210    1.3930    2.5900 ha        1 AIZ      0.151000
     41 H11         4.7400   -0.2140   -1.3450 ha        1 AIZ      0.140000
     42 H15        -3.0800   -1.9400   -3.5460 ha        1 AIZ      0.133000
     43 H16        -4.4840   -2.6670   -1.8110 hn        1 AIZ      0.318500
     44 H18         6.3650    0.2410    0.3830 hn        1 AIZ      0.436800
     45 H221       -6.2740   -3.1390    0.1380 hc        1 AIZ      0.077700
     46 H222       -5.4990   -4.3280    1.2660 hc        1 AIZ      0.077700
     47 H25         4.8700    3.2500    1.8010 ha        1 AIZ      0.152000
     48 H261       -4.6650   -5.6160   -0.8200 hc        1 AIZ      0.053200
     49 H262       -5.6990   -4.5260   -1.8270 hc        1 AIZ      0.053200
     50 H27         8.8860    1.4360    4.1570 ha        1 AIZ      0.149000
     51 H29         5.8870    4.5070    3.6760 ha        1 AIZ      0.138000
     52 H301       -6.6520   -6.2790    0.5500 h1        1 AIZ      0.033700
     53 H302       -7.7130   -5.1640   -0.4170 h1        1 AIZ      0.033700
     54 H31         7.8970    3.6130    4.8610 ha        1 AIZ      0.140000
     55 H331       -8.7070   -7.8440   -0.4730 h1        1 AIZ      0.032367
     56 H332       -7.7290   -8.8830   -1.6070 h1        1 AIZ      0.032367
     57 H333       -7.0560   -8.4380    0.0260 h1        1 AIZ      0.032367
     58 H341       -7.0090   -5.6710   -3.1100 h1        1 AIZ      0.032367
     59 H342       -7.6390   -7.3590   -3.3760 h1        1 AIZ      0.032367
     60 H343       -8.6760   -6.1210   -2.5270 h1        1 AIZ      0.032367
     61 H321       -1.5490   -2.3290   -5.0510 ho        1 AIZ      0.426000
@<TRIPOS>BOND
     1    1    2 1   
     2    1    3 1   
     3    1    4 2   
     4    2    5 ar  
     5    2    6 ar  
     6    3    7 ar  
     7    3    8 ar  
     8    4    9 1   
     9    5    9 1   
    10    5   10 ar  
    11    6   11 ar  
    12    6   36 1   
    13    7   12 ar  
    14    7   37 1   
    15    8   13 ar  
    16    8   38 1   
    17    9   39 1   
    18   10   14 ar  
    19   10   40 1   
    20   11   14 ar  
    21   11   41 1   
    22   12   15 ar  
    23   12   16 1   
    24   13   15 ar  
    25   13   17 1   
    26   14   18 1   
    27   15   42 1   
    28   16   19 1   
    29   16   43 1   
    30   17   20 1   
    31   17   35 2   
    32   18   21 1   
    33   18   44 1   
    34   19   22 1   
    35   19   23 2   
    36   20   61 1   
    37   21   24 ar  
    38   21   25 ar  
    39   22   26 1   
    40   22   45 1   
    41   22   46 1   
    42   24   27 ar  
    43   24   28 1   
    44   25   29 ar  
    45   25   47 1   
    46   26   30 1   
    47   26   48 1   
    48   26   49 1   
    49   27   31 ar  
    50   27   50 1   
    51   29   31 ar  
    52   29   51 1   
    53   30   32 1   
    54   30   52 1   
    55   30   53 1   
    56   31   54 1   
    57   32   33 1   
    58   32   34 1   
    59   33   55 1   
    60   33   56 1   
    61   33   57 1   
    62   34   58 1   
    63   34   59 1   
    64   34   60 1   
@<TRIPOS>SUBSTRUCTURE
     1 AIZ         1 TEMP              0 ****  ****    0 ROOT
