@<TRIPOS>MOLECULE
AIZ
   61    64     1     0     0
SMALL
bcc


@<TRIPOS>ATOM
      1 C1          0.2000   -0.0010    0.2220 cc        1 AIZ      0.388500
      2 C2          1.6480    0.1420    0.0800 ca        1 AIZ     -0.228900
      3 C3         -0.7120   -0.5310   -0.7810 ca        1 AIZ     -0.065900
      4 N4         -0.1810    0.4440    1.4490 nd        1 AIZ     -0.495100
      5 C5          2.0710    0.7150    1.3350 ca        1 AIZ     -0.018200
      6 C6          2.6090   -0.1420   -0.8890 ca        1 AIZ     -0.034000
      7 C7         -1.8060   -1.3100   -0.3940 ca        1 AIZ     -0.100000
      8 C8         -0.4860   -0.2480   -2.1350 ca        1 AIZ     -0.088000
      9 N9          0.9010    0.8920    2.0910 na        1 AIZ     -0.015100
     10 C10         3.4110    1.0060    1.6100 ca        1 AIZ     -0.209000
     11 C11         3.9340    0.1450   -0.6310 ca        1 AIZ     -0.196000
     12 C12        -2.6940   -1.8240   -1.3660 ca        1 AIZ      0.068600
     13 C13        -1.3490   -0.7690   -3.0990 ca        1 AIZ     -0.149600
     14 C14         4.3540    0.7310    0.6080 ca        1 AIZ      0.193600
     15 C15        -2.4470   -1.5470   -2.7290 ca        1 AIZ     -0.165000
     16 N16        -3.8310   -2.5770   -1.0300 ns        1 AIZ     -0.477100
     17 C17        -1.0930   -0.4670   -4.5210 c         1 AIZ      0.639700
     18 N18         5.7180    1.0260    0.7500 nu        1 AIZ     -0.632000
     19 C19        -4.0690   -3.2450    0.1660 c         1 AIZ      0.667100
     20 O20        -1.3520   -1.4180   -5.4700 oh        1 AIZ     -0.582100
     21 C21         6.2470    1.6900    1.8670 ca        1 AIZ      0.154600
     22 C22        -5.3840   -3.9990    0.2680 c3        1 AIZ     -0.159400
     23 O23        -3.2740   -3.2190    1.1210 o         1 AIZ     -0.579100
     24 C24         7.4110    1.2120    2.5220 ca        1 AIZ     -0.035600
     25 C25         5.6940    2.9120    2.3160 ca        1 AIZ     -0.151000
     26 C26        -5.5270   -5.0640   -0.7970 c3        1 AIZ     -0.081400
     27 C27         7.9880    1.9290    3.5720 ca        1 AIZ     -0.097000
     28 Cl28        8.1420   -0.2480    2.0340 cl        1 AIZ     -0.098400
     29 C29         6.2730    3.6090    3.3690 ca        1 AIZ     -0.106000
     30 C30        -6.7220   -5.9620   -0.4620 c3        1 AIZ      0.173800
     31 C31         7.4180    3.1230    4.0000 ca        1 AIZ     -0.146000
     32 N32        -6.9220   -7.0260   -1.4360 n3        1 AIZ     -0.743600
     33 C33        -7.5390   -8.2020   -0.8660 c3        1 AIZ      0.159100
     34 C34        -7.5750   -6.5780   -2.6440 c3        1 AIZ      0.159100
     35 O35        -0.6450    0.5800   -4.9900 o         1 AIZ     -0.481000
     36 H6          2.3130   -0.5910   -1.8500 ha        1 AIZ      0.143000
     37 H7         -1.9700   -1.5230    0.6780 ha        1 AIZ      0.190000
     38 H8          0.3570    0.3940   -2.4400 ha        1 AIZ      0.163000
     39 HN9         0.8450    1.1340    3.0520 hn        1 AIZ      0.326700
     40 H10         3.7040    1.4230    2.5830 ha        1 AIZ      0.151000
     41 H11         4.6880   -0.0770   -1.4030 ha        1 AIZ      0.140000
     42 H15        -3.1310   -1.9220   -3.5080 ha        1 AIZ      0.133000
     43 H16        -4.4880   -2.7160   -1.7650 hn        1 AIZ      0.318500
     44 H18         6.3340    0.3750    0.3070 hn        1 AIZ      0.436800
     45 H221       -5.4110   -4.4690    1.2890 hc        1 AIZ      0.077700
     46 H222       -6.2330   -3.2670    0.2080 hc        1 AIZ      0.077700
     47 H25         4.8010    3.3200    1.8150 ha        1 AIZ      0.152000
     48 H261       -5.6750   -4.5910   -1.8020 hc        1 AIZ      0.053200
     49 H262       -4.5930   -5.6830   -0.8490 hc        1 AIZ      0.053200
     50 H27         8.8950    1.5420    4.0630 ha        1 AIZ      0.149000
     51 H29         5.8240    4.5580    3.7010 ha        1 AIZ      0.138000
     52 H301       -6.5330   -6.4280    0.5470 h1        1 AIZ      0.033700
     53 H302       -7.6400   -5.3110   -0.3640 h1        1 AIZ      0.033700
     54 H31         7.8720    3.6820    4.8310 ha        1 AIZ      0.140000
     55 H331       -6.8990   -8.5810   -0.0270 h1        1 AIZ      0.032367
     56 H332       -7.6010   -8.9960   -1.6550 h1        1 AIZ      0.032367
     57 H333       -8.5750   -8.0120   -0.4700 h1        1 AIZ      0.032367
     58 H341       -6.9920   -5.7280   -3.0850 h1        1 AIZ      0.032367
     59 H342       -7.5900   -7.4230   -3.3830 h1        1 AIZ      0.032367
     60 H343       -8.6330   -6.2340   -2.4760 h1        1 AIZ      0.032367
     61 H321       -1.6180   -2.2460   -5.0470 ho        1 AIZ      0.426000
@<TRIPOS>BOND
     1    1    2 1   
     2    1    3 1   
     3    1    4 2   
     4    2    5 ar  
     5    2    6 ar  
     6    3    7 ar  
     7    3    8 ar  
     8    4    9 1   
     9    5    9 1   
    10    5   10 ar  
    11    6   11 ar  
    12    6   36 1   
    13    7   12 ar  
    14    7   37 1   
    15    8   13 ar  
    16    8   38 1   
    17    9   39 1   
    18   10   14 ar  
    19   10   40 1   
    20   11   14 ar  
    21   11   41 1   
    22   12   15 ar  
    23   12   16 1   
    24   13   15 ar  
    25   13   17 1   
    26   14   18 1   
    27   15   42 1   
    28   16   19 1   
    29   16   43 1   
    30   17   20 1   
    31   17   35 2   
    32   18   21 1   
    33   18   44 1   
    34   19   22 1   
    35   19   23 2   
    36   20   61 1   
    37   21   24 ar  
    38   21   25 ar  
    39   22   26 1   
    40   22   45 1   
    41   22   46 1   
    42   24   27 ar  
    43   24   28 1   
    44   25   29 ar  
    45   25   47 1   
    46   26   30 1   
    47   26   48 1   
    48   26   49 1   
    49   27   31 ar  
    50   27   50 1   
    51   29   31 ar  
    52   29   51 1   
    53   30   32 1   
    54   30   52 1   
    55   30   53 1   
    56   31   54 1   
    57   32   33 1   
    58   32   34 1   
    59   33   55 1   
    60   33   56 1   
    61   33   57 1   
    62   34   58 1   
    63   34   59 1   
    64   34   60 1   
@<TRIPOS>SUBSTRUCTURE
     1 AIZ         1 TEMP              0 ****  ****    0 ROOT
