@<TRIPOS>MOLECULE
AJ1
   26    22     1     0     0
SMALL
bcc


@<TRIPOS>ATOM
      1 C1         -4.2800   -1.3170   -2.8440 c3        1 AJ1     -0.247000
      2 C2         -2.8580   -1.6210   -2.3820 c2        1 AJ1      0.311000
      3 O3         -2.1930   -2.4600   -2.9660 o         1 AJ1     -0.346000
      4 N4         -2.2780   -0.8480   -1.3490 n         1 AJ1     -0.328000
      5 C5         -0.9310   -1.0440   -0.9920 c2        1 AJ1      0.083000
      6 C6          0.0590   -2.0230   -0.8910 c1        1 AJ1     -0.149000
      7 C7          1.2180   -1.7770   -0.1350 c1        1 AJ1     -0.063000
      8 C8          1.3820   -0.5740    0.5070 c1        1 AJ1     -0.052000
      9 C9          0.3670    0.4380    0.4080 c1        1 AJ1     -0.287000
     10 C10        -0.7680    0.1990   -0.3320 c2        1 AJ1     -0.151000
     11 S11         0.8390    1.6570    1.2280 s         1 AJ1      0.355000
     12 C12         2.2060    1.3060    1.8260 c1        1 AJ1     -0.098000
     13 N13         2.5450   -0.0280    1.4020 n1        1 AJ1     -0.152000
     14 N14         2.5220    2.5000    2.5570 n2        1 AJ1     -0.250000
     15 C15         3.8570    2.6740    3.1220 c3        1 AJ1     -0.106000
     16 H11C       -4.4080   -1.6510   -3.7320 hc        1 AJ1      0.108667
     17 H12C       -4.9040   -1.7390   -2.2510 hc        1 AJ1      0.108667
     18 H13C       -4.4270   -0.3350   -2.8350 hc        1 AJ1      0.108667
     19 H4         -2.8060   -0.2710   -0.8560 hn        1 AJ1      0.228000
     20 H6          0.0050   -2.7860   -1.4150 ha        1 AJ1      0.178000
     21 H10        -1.4110    0.8850   -0.4480 ha        1 AJ1      0.135000
     22 H7          1.9110   -2.4650   -0.0660 ha        1 AJ1      0.154000
     23 H14         1.8910    3.1380    2.6800 hn        1 AJ1      0.199000
     24 H151        4.5060    2.7090    2.4090 h1        1 AJ1      0.087667
     25 H152        4.0640    1.9140    3.7180 h1        1 AJ1      0.087667
     26 H153        3.8910    3.5180    3.6390 h1        1 AJ1      0.087667
@<TRIPOS>BOND
     1    1    2 1   
     2    1   16 1   
     3    1   17 1   
     4    1   18 1   
     5    2    3 1   
     6    2    4 1   
     7    4    5 1   
     8    4   19 1   
     9    5    6 1   
    10    5   10 1   
    11    6   20 1   
    12    7    8 1   
    13    7   22 1   
    14    9   10 1   
    15   10   21 1   
    16   11   12 1   
    17   12   13 1   
    18   14   15 1   
    19   14   23 1   
    20   15   24 1   
    21   15   25 1   
    22   15   26 1   
@<TRIPOS>SUBSTRUCTURE
     1 AJ1         1 TEMP              0 ****  ****    0 ROOT
