@<TRIPOS>MOLECULE
AJ1
   28    29     1     0     0
SMALL
bcc


@<TRIPOS>ATOM
      1 C1          0.3980   -0.5920    0.0000 c3        1 AJ1     -0.190100
      2 C2          1.3510    0.5470   -0.0360 c         1 AJ1      0.573100
      3 O3          1.6110    1.3820    0.8100 o         1 AJ1     -0.392100
      4 N4          2.1140    0.7190   -1.3670 n4        1 AJ1     -0.573200
      5 C5          3.5560    0.4980   -1.2220 ca        1 AJ1     -0.005400
      6 C6          4.1500   -0.6140   -1.8800 ca        1 AJ1     -0.114000
      7 C7          5.5060   -0.8460   -1.7800 ca        1 AJ1     -0.011000
      8 C8          6.3020    0.0390   -1.0130 ca        1 AJ1      0.113400
      9 C9          5.6950    1.1630   -0.3480 ca        1 AJ1     -0.115100
     10 C10         4.3160    1.3850   -0.4600 ca        1 AJ1     -0.039000
     11 S11         6.8560    2.0390    0.4860 ss        1 AJ1      0.243900
     12 C12         8.0840    0.9420   -0.0380 cc        1 AJ1      0.321100
     13 N13         7.6750   -0.0700   -0.8230 nd        1 AJ1     -0.453100
     14 N14         9.4870    1.0860    0.3440 n4        1 AJ1     -0.674000
     15 C15        10.3620    1.4280   -0.8130 c3        1 AJ1      0.083100
     16 H11C        0.9140   -1.5640   -0.2100 hc        1 AJ1      0.127367
     17 H12C       -0.4300   -0.4430   -0.7430 hc        1 AJ1      0.127367
     18 H13C       -0.0560   -0.6410    1.0290 hc        1 AJ1      0.127367
     19 H4          1.7360    0.0640   -2.0630 hn        1 AJ1      0.471800
     20 H6          3.5360   -1.3070   -2.4850 ha        1 AJ1      0.179000
     21 H10         3.8540    2.2440    0.0630 ha        1 AJ1      0.191000
     22 H7          5.9730   -1.7090   -2.2920 ha        1 AJ1      0.206000
     23 H14         9.8150    0.1940    0.7570 hn        1 AJ1      0.479300
     24 H151       10.0130    2.3870   -1.2830 hx        1 AJ1      0.124700
     25 H152       10.3250    0.6000   -1.5730 hx        1 AJ1      0.124700
     26 H153       11.4150    1.5490   -0.4330 hx        1 AJ1      0.124700
     27 H42         1.9660    1.6800   -1.7080 hn        1 AJ1      0.471800
     28 H142        9.5560    1.8210    1.0610 hn        1 AJ1      0.479300
@<TRIPOS>BOND
     1    1    2 1   
     2    1   16 1   
     3    1   17 1   
     4    1   18 1   
     5    2    3 2   
     6    2    4 1   
     7    4    5 1   
     8    4   19 1   
     9    4   27 1   
    10    5    6 ar  
    11    5   10 ar  
    12    6    7 ar  
    13    6   20 1   
    14    7    8 ar  
    15    7   22 1   
    16    8    9 ar  
    17    8   13 1   
    18    9   10 ar  
    19    9   11 1   
    20   10   21 1   
    21   11   12 1   
    22   12   13 2   
    23   12   14 1   
    24   14   15 1   
    25   14   23 1   
    26   14   28 1   
    27   15   24 1   
    28   15   25 1   
    29   15   26 1   
@<TRIPOS>SUBSTRUCTURE
     1 AJ1         1 TEMP              0 ****  ****    0 ROOT
