@<TRIPOS>MOLECULE
AJ1
   26    27     1     0     0
SMALL
bcc


@<TRIPOS>ATOM
      1 C1          5.4520   -0.4020   -0.1080 c3        1 AJ1     -0.179100
      2 C2          3.9560   -0.6130   -0.0360 c         1 AJ1      0.665100
      3 O3          3.4760   -1.7520    0.1000 o         1 AJ1     -0.588100
      4 N4          3.1780    0.5340   -0.1320 n         1 AJ1     -0.473100
      5 C5          1.7780    0.6310   -0.0900 ca        1 AJ1      0.066600
      6 C6          1.2010    1.9350   -0.1390 ca        1 AJ1     -0.175000
      7 C7         -0.1670    2.1240   -0.1060 ca        1 AJ1     -0.062000
      8 C8         -1.0200    1.0070   -0.0200 ca        1 AJ1      0.086400
      9 C9         -0.4440   -0.3020    0.0250 ca        1 AJ1     -0.068100
     10 C10         0.9350   -0.4890   -0.0080 ca        1 AJ1     -0.116000
     11 S11        -1.6670   -1.4670    0.1140 ss        1 AJ1     -0.069100
     12 C12        -2.9010   -0.1930    0.1030 cc        1 AJ1      0.559100
     13 N13        -2.4180    1.0520    0.0380 nd        1 AJ1     -0.584100
     14 N14        -4.2420   -0.5760    0.0630 nh        1 AJ1     -0.765200
     15 C15        -5.2520    0.4490    0.0960 c3        1 AJ1      0.171100
     16 H11C        5.7370    0.0620   -1.0820 hc        1 AJ1      0.069033
     17 H12C        5.7980    0.2540    0.7270 hc        1 AJ1      0.069033
     18 H13C        5.9540   -1.3970   -0.0190 hc        1 AJ1      0.069033
     19 H4          3.6630    1.3990   -0.2280 hn        1 AJ1      0.315500
     20 H6          1.8530    2.8200   -0.2060 ha        1 AJ1      0.130000
     21 H10         1.3460   -1.5120    0.0300 ha        1 AJ1      0.181000
     22 H7         -0.5920    3.1380   -0.1460 ha        1 AJ1      0.151000
     23 H14        -4.4310   -1.3420    0.6790 hn        1 AJ1      0.404800
     24 H151       -6.2500   -0.0480   -0.0260 h1        1 AJ1      0.047367
     25 H152       -5.2500    1.0380    1.0530 h1        1 AJ1      0.047367
     26 H153       -5.0880    1.1600   -0.7570 h1        1 AJ1      0.047367
@<TRIPOS>BOND
     1    1    2 1   
     2    1   16 1   
     3    1   17 1   
     4    1   18 1   
     5    2    3 2   
     6    2    4 1   
     7    4    5 1   
     8    4   19 1   
     9    5    6 ar  
    10    5   10 ar  
    11    6    7 ar  
    12    6   20 1   
    13    7    8 ar  
    14    7   22 1   
    15    8    9 ar  
    16    8   13 1   
    17    9   10 ar  
    18    9   11 1   
    19   10   21 1   
    20   11   12 1   
    21   12   13 2   
    22   12   14 1   
    23   14   15 1   
    24   14   23 1   
    25   15   24 1   
    26   15   25 1   
    27   15   26 1   
@<TRIPOS>SUBSTRUCTURE
     1 AJ1         1 TEMP              0 ****  ****    0 ROOT
