@<TRIPOS>MOLECULE
AJ1
   26    27     1     0     0
SMALL
bcc


@<TRIPOS>ATOM
      1 C1         -0.1250    0.0010   -0.1610 c3        1 AJ1     -0.179100
      2 C2          1.3390    0.3050    0.0690 c         1 AJ1      0.665100
      3 O3          1.7200    0.8610    1.1140 o         1 AJ1     -0.588100
      4 N4          2.2030   -0.0750   -0.9500 ns        1 AJ1     -0.473100
      5 C5          3.5980    0.0780   -0.9970 ca        1 AJ1      0.066600
      6 C6          4.2870   -0.4570   -2.1260 ca        1 AJ1     -0.175000
      7 C7          5.6580   -0.3490   -2.2560 ca        1 AJ1     -0.062000
      8 C8          6.4020    0.3020   -1.2540 ca        1 AJ1      0.086400
      9 C9          5.7130    0.8440   -0.1220 ca        1 AJ1     -0.068100
     10 C10         4.3310    0.7330    0.0070 ca        1 AJ1     -0.116000
     11 S11         6.8170    1.5800    0.9260 ss        1 AJ1     -0.069100
     12 C12         8.1560    1.1400   -0.1510 cc        1 AJ1      0.559100
     13 N13         7.7920    0.4680   -1.2480 nd        1 AJ1     -0.584100
     14 N14         9.4340    1.6010    0.1660 nu        1 AJ1     -0.765200
     15 C15        10.5330    1.2140   -0.6790 c3        1 AJ1      0.171100
     16 H11C       -0.2850   -1.0970   -0.2840 hc        1 AJ1      0.069033
     17 H12C       -0.7040    0.3550    0.7270 hc        1 AJ1      0.069033
     18 H13C       -0.4980    0.5300   -1.0710 hc        1 AJ1      0.069033
     19 H4          1.7970   -0.5240   -1.7400 hn        1 AJ1      0.315500
     20 H6          3.7220   -0.9700   -2.9200 ha        1 AJ1      0.130000
     21 H10         3.8320    1.1600    0.8920 ha        1 AJ1      0.181000
     22 H7          6.1700   -0.7680   -3.1350 ha        1 AJ1      0.151000
     23 H14         9.6320    1.5130    1.1430 hn        1 AJ1      0.404800
     24 H151       10.7230    0.1070   -0.6750 h1        1 AJ1      0.047367
     25 H152       10.3220    1.5340   -1.7340 h1        1 AJ1      0.047367
     26 H153       11.4520    1.7440   -0.3110 h1        1 AJ1      0.047367
@<TRIPOS>BOND
     1    1    2 1   
     2    1   16 1   
     3    1   17 1   
     4    1   18 1   
     5    2    3 2   
     6    2    4 1   
     7    4    5 1   
     8    4   19 1   
     9    5    6 ar  
    10    5   10 ar  
    11    6    7 ar  
    12    6   20 1   
    13    7    8 ar  
    14    7   22 1   
    15    8    9 ar  
    16    8   13 1   
    17    9   10 ar  
    18    9   11 1   
    19   10   21 1   
    20   11   12 1   
    21   12   13 2   
    22   12   14 1   
    23   14   15 1   
    24   14   23 1   
    25   15   24 1   
    26   15   25 1   
    27   15   26 1   
@<TRIPOS>SUBSTRUCTURE
     1 AJ1         1 TEMP              0 ****  ****    0 ROOT
