@<TRIPOS>MOLECULE
AJ1
   26    27     1     0     0
SMALL
bcc


@<TRIPOS>ATOM
      1 C1         -0.1250    0.0030   -0.1540 c3        1 AJ1     -0.179100
      2 C2          1.3400    0.3000    0.0770 c         1 AJ1      0.665100
      3 O3          1.7250    0.8400    1.1300 o         1 AJ1     -0.588100
      4 N4          2.2010   -0.0650   -0.9500 n         1 AJ1     -0.473100
      5 C5          3.5970    0.0870   -0.9980 ca        1 AJ1      0.066600
      6 C6          4.2820   -0.4330   -2.1360 ca        1 AJ1     -0.175000
      7 C7          5.6520   -0.3270   -2.2690 ca        1 AJ1     -0.062000
      8 C8          6.4000    0.3090   -1.2590 ca        1 AJ1      0.086400
      9 C9          5.7150    0.8360   -0.1190 ca        1 AJ1     -0.068100
     10 C10         4.3330    0.7260    0.0120 ca        1 AJ1     -0.116000
     11 S11         6.8230    1.5560    0.9370 ss        1 AJ1     -0.069100
     12 C12         8.1580    1.1290   -0.1500 cc        1 AJ1      0.559100
     13 N13         7.7900    0.4730   -1.2550 nd        1 AJ1     -0.584100
     14 N14         9.4380    1.5830    0.1700 nh        1 AJ1     -0.765200
     15 C15        10.5340    1.2070   -0.6820 c3        1 AJ1      0.171100
     16 H11C       -0.4990    0.5470   -1.0540 hc        1 AJ1      0.069033
     17 H12C       -0.7000    0.3430    0.7410 hc        1 AJ1      0.069033
     18 H13C       -0.2860   -1.0930   -0.2940 hc        1 AJ1      0.069033
     19 H4          1.7920   -0.5010   -1.7460 hn        1 AJ1      0.315500
     20 H6          3.7130   -0.9340   -2.9360 ha        1 AJ1      0.130000
     21 H10         3.8370    1.1410    0.9050 ha        1 AJ1      0.181000
     22 H7          6.1620   -0.7340   -3.1550 ha        1 AJ1      0.151000
     23 H14         9.6380    1.4800    1.1460 hn        1 AJ1      0.404800
     24 H151       11.4550    1.7300   -0.3100 h1        1 AJ1      0.047367
     25 H152       10.7220    0.0990   -0.6950 h1        1 AJ1      0.047367
     26 H153       10.3210    1.5410   -1.7320 h1        1 AJ1      0.047367
@<TRIPOS>BOND
     1    1    2 1   
     2    1   16 1   
     3    1   17 1   
     4    1   18 1   
     5    2    3 2   
     6    2    4 1   
     7    4    5 1   
     8    4   19 1   
     9    5    6 ar  
    10    5   10 ar  
    11    6    7 ar  
    12    6   20 1   
    13    7    8 ar  
    14    7   22 1   
    15    8    9 ar  
    16    8   13 1   
    17    9   10 ar  
    18    9   11 1   
    19   10   21 1   
    20   11   12 1   
    21   12   13 2   
    22   12   14 1   
    23   14   15 1   
    24   14   23 1   
    25   15   24 1   
    26   15   25 1   
    27   15   26 1   
@<TRIPOS>SUBSTRUCTURE
     1 AJ1         1 TEMP              0 ****  ****    0 ROOT
