@<TRIPOS>MOLECULE
AJ2
   21    22     1     0     0
SMALL
bcc


@<TRIPOS>ATOM
      1 O          -0.0200    0.1780   -0.1500 oh        1 AJ2     -0.618300
      2 C4          1.3520    0.1240   -0.0520 ca        1 AJ2      0.646600
      3 N           1.9400    0.1370    1.1450 nb        1 AJ2     -0.751000
      4 C5          3.3200    0.0800    1.1610 ca        1 AJ2      0.436600
      5 C6          4.0980    0.0110   -0.0360 ca        1 AJ2     -0.173300
      6 C2          3.4130   -0.0000   -1.2960 ca        1 AJ2     -0.003300
      7 C1          4.1800   -0.0710   -2.5620 c3        1 AJ2     -0.064800
      8 C3          2.0400    0.0570   -1.3130 ca        1 AJ2     -0.252300
      9 C7          5.5110   -0.0450    0.0590 ca        1 AJ2     -0.100000
     10 C8          6.1360   -0.0330    1.2830 ca        1 AJ2     -0.141000
     11 C9          5.3720    0.0360    2.4700 ca        1 AJ2     -0.113000
     12 C10         4.0010    0.0910    2.4210 ca        1 AJ2     -0.179300
     13 H2          3.4980   -0.0710   -3.4480 hc        1 AJ2      0.053700
     14 H3          4.7940   -1.0070   -2.5900 hc        1 AJ2      0.053700
     15 H4          4.8690    0.8060   -2.6460 hc        1 AJ2      0.053700
     16 H5          1.4520    0.0520   -2.2390 ha        1 AJ2      0.160000
     17 H6          6.1050   -0.0990   -0.8670 ha        1 AJ2      0.133000
     18 H7          7.2320   -0.0760    1.3530 ha        1 AJ2      0.134000
     19 H8          5.8920    0.0440    3.4400 ha        1 AJ2      0.135000
     20 H9          3.4070    0.1450    3.3470 ha        1 AJ2      0.150000
     21 H1         -0.4090    0.2220    0.7390 ho        1 AJ2      0.441000
@<TRIPOS>BOND
     1    1    2 1   
     2    1   21 1   
     3    2    3 ar  
     4    2    8 ar  
     5    3    4 ar  
     6    4    5 ar  
     7    4   12 ar  
     8    5    6 ar  
     9    5    9 ar  
    10    6    7 1   
    11    6    8 ar  
    12    7   13 1   
    13    7   14 1   
    14    7   15 1   
    15    8   16 1   
    16    9   10 ar  
    17    9   17 1   
    18   10   11 ar  
    19   10   18 1   
    20   11   12 ar  
    21   11   19 1   
    22   12   20 1   
@<TRIPOS>SUBSTRUCTURE
     1 AJ2         1 TEMP              0 ****  ****    0 ROOT
