@<TRIPOS>MOLECULE
AJ2
   21    17     1     0     0
SMALL
bcc


@<TRIPOS>ATOM
      1 O          -3.6420    0.0480   -0.7310 oh        1 AJ2     -0.247000
      2 C4         -2.2350    0.0480   -0.7310 c1        1 AJ2      0.148000
      3 N          -1.9560    0.0480    0.6050 n1        1 AJ2     -0.225000
      4 C5         -0.6420    0.0480    1.0400 c1        1 AJ2      0.043000
      5 C6          0.3850    0.0480    0.1250 c1        1 AJ2     -0.108000
      6 C2          0.1020    0.0480   -1.2330 c1        1 AJ2      0.004000
      7 C1          1.0330   -0.0190   -2.4230 c2        1 AJ2     -0.190000
      8 C3         -1.1980    0.0480   -1.6600 c2        1 AJ2     -0.187000
      9 C7          1.7210    0.0480    0.5680 c1        1 AJ2     -0.117000
     10 C8          2.0030    0.0480    1.9280 c1        1 AJ2     -0.117000
     11 C9          0.9640    0.0480    2.8540 c1        1 AJ2     -0.117000
     12 C10        -0.3550    0.0480    2.4190 c1        1 AJ2     -0.117000
     13 H2          1.4650   -0.8940   -2.4490 ha        1 AJ2      0.093000
     14 H3          0.5220    0.1150   -3.2440 ha        1 AJ2      0.093000
     15 H4          1.7120    0.6780   -2.3450 ha        1 AJ2      0.093000
     16 H5         -1.3980    0.0750   -2.6150 ha        1 AJ2      0.160000
     17 H6          2.4510    0.0480   -0.0810 ha        1 AJ2      0.138000
     18 H7          2.9300    0.0480    2.2350 ha        1 AJ2      0.138000
     19 H8          1.1620    0.0480    3.8100 ha        1 AJ2      0.138000
     20 H9         -1.0840    0.0480    3.0680 ha        1 AJ2      0.138000
     21 H1         -3.9380   -0.6830   -1.1380 ho        1 AJ2      0.240000
@<TRIPOS>BOND
     1    1    2 1   
     2    1   21 1   
     3    2    8 1   
     4    3    4 1   
     5    4    5 1   
     6    5    6 1   
     7    6    8 1   
     8    7   13 1   
     9    7   14 1   
    10    7   15 1   
    11    8   16 1   
    12    9   10 1   
    13    9   17 1   
    14   10   18 1   
    15   11   12 1   
    16   11   19 1   
    17   12   20 1   
@<TRIPOS>SUBSTRUCTURE
     1 AJ2         1 TEMP              0 ****  ****    0 ROOT
