@<TRIPOS>MOLECULE
AJ2
   21    22     1     0     0
SMALL
bcc


@<TRIPOS>ATOM
      1 O          -3.2940    0.9640    0.1360 oh        1 AJ2     -0.618300
      2 C4         -1.9960    0.5100    0.1020 ca        1 AJ2      0.646600
      3 N          -0.9800    1.3750    0.1400 nb        1 AJ2     -0.751000
      4 C5          0.2930    0.8430    0.1020 ca        1 AJ2      0.436600
      5 C6          0.5330   -0.5650    0.0270 ca        1 AJ2     -0.173300
      6 C2         -0.5950   -1.4490   -0.0110 ca        1 AJ2     -0.003300
      7 C1         -0.3930   -2.9150   -0.0890 c3        1 AJ2     -0.064800
      8 C3         -1.8630   -0.9200    0.0260 ca        1 AJ2     -0.252300
      9 C7          1.8690   -1.0380   -0.0080 ca        1 AJ2     -0.100000
     10 C8          2.9270   -0.1630    0.0300 ca        1 AJ2     -0.141000
     11 C9          2.6960    1.2290    0.1040 ca        1 AJ2     -0.113000
     12 C10         1.4180    1.7290    0.1400 ca        1 AJ2     -0.179300
     13 H2          0.1910   -3.2720    0.7960 hc        1 AJ2      0.053700
     14 H3         -1.3700   -3.4570   -0.1100 hc        1 AJ2      0.053700
     15 H4          0.1770   -3.1770   -1.0160 hc        1 AJ2      0.053700
     16 H5         -2.7700   -1.5360    0.0010 ha        1 AJ2      0.160000
     17 H6          2.0470   -2.1230   -0.0660 ha        1 AJ2      0.133000
     18 H7          3.9620   -0.5340    0.0020 ha        1 AJ2      0.134000
     19 H8          3.5580    1.9130    0.1340 ha        1 AJ2      0.135000
     20 H9          1.2390    2.8140    0.1990 ha        1 AJ2      0.150000
     21 H1         -3.2990    1.9340    0.1870 ho        1 AJ2      0.441000
@<TRIPOS>BOND
     1    1    2 1   
     2    1   21 1   
     3    2    3 ar  
     4    2    8 ar  
     5    3    4 ar  
     6    4    5 ar  
     7    4   12 ar  
     8    5    6 ar  
     9    5    9 ar  
    10    6    7 1   
    11    6    8 ar  
    12    7   13 1   
    13    7   14 1   
    14    7   15 1   
    15    8   16 1   
    16    9   10 ar  
    17    9   17 1   
    18   10   11 ar  
    19   10   18 1   
    20   11   12 ar  
    21   11   19 1   
    22   12   20 1   
@<TRIPOS>SUBSTRUCTURE
     1 AJ2         1 TEMP              0 ****  ****    0 ROOT
