@<TRIPOS>MOLECULE
AJ2
   21    22     1     0     0
SMALL
bcc


@<TRIPOS>ATOM
      1 O          -0.0180    0.2010   -0.1560 oh        1 AJ2     -0.618300
      2 C4          1.3520    0.1390   -0.0560 ca        1 AJ2      0.646600
      3 N           1.9390    0.1410    1.1430 nb        1 AJ2     -0.751000
      4 C5          3.3180    0.0760    1.1610 ca        1 AJ2      0.436600
      5 C6          4.0980    0.0090   -0.0360 ca        1 AJ2     -0.173300
      6 C2          3.4150    0.0090   -1.2970 ca        1 AJ2     -0.003300
      7 C1          4.1840   -0.0590   -2.5610 c3        1 AJ2     -0.064800
      8 C3          2.0430    0.0740   -1.3150 ca        1 AJ2     -0.252300
      9 C7          5.5110   -0.0560    0.0620 ca        1 AJ2     -0.100000
     10 C8          6.1330   -0.0550    1.2870 ca        1 AJ2     -0.141000
     11 C9          5.3670    0.0110    2.4730 ca        1 AJ2     -0.113000
     12 C10         3.9970    0.0750    2.4220 ca        1 AJ2     -0.179300
     13 H2          3.5040   -0.0490   -3.4490 hc        1 AJ2      0.053700
     14 H3          4.7920   -0.9970   -2.5940 hc        1 AJ2      0.053700
     15 H4          4.8780    0.8150   -2.6390 hc        1 AJ2      0.053700
     16 H5          1.4560    0.0790   -2.2430 ha        1 AJ2      0.160000
     17 H6          6.1060   -0.1070   -0.8630 ha        1 AJ2      0.133000
     18 H7          7.2290   -0.1050    1.3580 ha        1 AJ2      0.134000
     19 H8          5.8860    0.0110    3.4430 ha        1 AJ2      0.135000
     20 H9          3.4020    0.1270    3.3470 ha        1 AJ2      0.150000
     21 H1         -0.4090    0.2420    0.7330 ho        1 AJ2      0.441000
@<TRIPOS>BOND
     1    1    2 1   
     2    1   21 1   
     3    2    3 ar  
     4    2    8 ar  
     5    3    4 ar  
     6    4    5 ar  
     7    4   12 ar  
     8    5    6 ar  
     9    5    9 ar  
    10    6    7 1   
    11    6    8 ar  
    12    7   13 1   
    13    7   14 1   
    14    7   15 1   
    15    8   16 1   
    16    9   10 ar  
    17    9   17 1   
    18   10   11 ar  
    19   10   18 1   
    20   11   12 ar  
    21   11   19 1   
    22   12   20 1   
@<TRIPOS>SUBSTRUCTURE
     1 AJ2         1 TEMP              0 ****  ****    0 ROOT
