@<TRIPOS>MOLECULE
AJ3
   19    18     1     0     0
SMALL
bcc


@<TRIPOS>ATOM
      1 S5          0.9880    0.8470   -0.3320 sh        1 AJ3     -0.267400
      2 C6B         1.4880   -0.3300    0.7450 c2        1 AJ3     -0.056400
      3 C7          2.7000   -0.6690    1.2060 c2        1 AJ3     -0.199200
      4 C8B         3.9800   -0.0770    0.7900 c3        1 AJ3     -0.047900
      5 S9          4.3090    1.3730    1.7520 s4        1 AJ3      0.254600
      6 C10         6.0670    1.4000    1.6130 c3        1 AJ3     -0.053900
      7 C11         6.5810    2.5810    2.3320 c2        1 AJ3     -0.160200
      8 C12         7.4200    2.5220    3.3640 c2        1 AJ3     -0.210000
      9 O13         3.8240    2.4880    0.8840 o         1 AJ3     -0.508200
     10 HS5         2.1020    1.5620   -0.4960 hs        1 AJ3      0.230800
     11 H6B         0.6130   -0.9040    1.1070 h4        1 AJ3      0.155000
     12 H7          2.7840   -1.4900    1.9400 ha        1 AJ3      0.132000
     13 H8B1        3.9620    0.1690   -0.3050 h1        1 AJ3      0.090700
     14 H8B2        4.8010   -0.8250    0.9350 h1        1 AJ3      0.090700
     15 H101        6.4810    0.4520    2.0390 h1        1 AJ3      0.088700
     16 H102        6.4020    1.4530    0.5450 h1        1 AJ3      0.088700
     17 H11         6.2270    3.5500    1.9340 ha        1 AJ3      0.142000
     18 H121        7.8010    1.5770    3.7720 ha        1 AJ3      0.114500
     19 H122        7.7840    3.4260    3.8700 ha        1 AJ3      0.114500
@<TRIPOS>BOND
     1    1    2 1   
     2    1   10 1   
     3    2    3 2   
     4    2   11 1   
     5    3    4 1   
     6    3   12 1   
     7    4    5 1   
     8    4   13 1   
     9    4   14 1   
    10    5    6 1   
    11    5    9 2   
    12    6    7 1   
    13    6   15 1   
    14    6   16 1   
    15    7    8 2   
    16    7   17 1   
    17    8   18 1   
    18    8   19 1   
@<TRIPOS>SUBSTRUCTURE
     1 AJ3         1 TEMP              0 ****  ****    0 ROOT
