@<TRIPOS>MOLECULE
AJ3
   19    16     1     0     0
SMALL
bcc


@<TRIPOS>ATOM
      1 S5         -2.1570    0.1640   -3.7100 sh        1 AJ3      0.130000
      2 C6B        -0.4760    0.6950   -3.5240 c2        1 AJ3     -0.323000
      3 C7          0.1200    0.6350   -2.3170 c1        1 AJ3     -0.136000
      4 C8B        -0.6460    0.1160   -1.1200 c2        1 AJ3     -0.564000
      5 S9          0.4910   -0.2960    0.1760 s4        1 AJ3      1.392000
      6 C10         0.1170    0.1380    1.8540 c3        1 AJ3     -0.571000
      7 C11         0.6880   -0.9090    2.7850 c2        1 AJ3     -0.154000
      8 C12         1.1030   -0.5600    4.0190 c1        1 AJ3     -0.208000
      9 O13         1.7180   -0.9760   -0.1330 o         1 AJ3     -0.774000
     10 HS5        -2.5330    0.4240   -4.7960 hs        1 AJ3      0.022000
     11 H6B         0.0190    1.0300   -4.2960 h4        1 AJ3      0.141000
     12 H7          1.0460    0.9280   -2.2140 ha        1 AJ3      0.146000
     13 H8B1       -1.1500   -0.6820   -1.3770 h4        1 AJ3      0.136000
     14 H8B2       -1.2640    0.8050   -0.8050 h4        1 AJ3      0.136000
     15 H101       -0.8530    0.1830    1.9710 h1        1 AJ3      0.136000
     16 H102        0.5120    1.0090    2.0620 h1        1 AJ3      0.136000
     17 H11         0.7570   -1.8380    2.4920 ha        1 AJ3      0.123000
     18 H121        1.0350    0.3700    4.3130 DU        1 AJ3      0.115000
     19 H122        1.4720   -1.2370    4.6200 ha        1 AJ3      0.117000
@<TRIPOS>BOND
     1    1    2 1   
     2    1   10 1   
     3    2    3 1   
     4    2   11 1   
     5    3   12 1   
     6    4    5 1   
     7    4   13 1   
     8    4   14 1   
     9    5    6 1   
    10    5    9 1   
    11    6    7 1   
    12    6   15 1   
    13    6   16 1   
    14    7    8 1   
    15    7   17 1   
    16    8   19 1   
@<TRIPOS>SUBSTRUCTURE
     1 AJ3         1 TEMP              0 ****  ****    0 ROOT
