@<TRIPOS>MOLECULE
AJ3
   19    18     1     0     0
SMALL
bcc


@<TRIPOS>ATOM
      1 S5          3.8410   -0.0180   -0.8180 sh        1 AJ3     -0.264400
      2 C6B         2.5470   -0.1940    0.2490 c2        1 AJ3     -0.072400
      3 C7          1.3780   -0.7210   -0.1400 c2        1 AJ3     -0.155200
      4 C8B         0.2270   -0.8970    0.7610 c3        1 AJ3     -0.048900
      5 S9         -0.9780    0.3400    0.3610 s4        1 AJ3      0.261600
      6 C10        -2.4360   -0.6550    0.4220 c3        1 AJ3     -0.056900
      7 C11        -3.6010    0.1940    0.1100 c2        1 AJ3     -0.159200
      8 C12        -4.4150   -0.0030   -0.9250 c2        1 AJ3     -0.212000
      9 O13        -1.0370    1.2040    1.5710 o         1 AJ3     -0.497200
     10 HS5         4.7060    0.5720   -0.0110 hs        1 AJ3      0.192800
     11 H6B         2.6870    0.1380    1.2890 h4        1 AJ3      0.145000
     12 H7          1.2300   -1.0690   -1.1770 ha        1 AJ3      0.133000
     13 H8B1       -0.1890   -1.9290    0.6360 h1        1 AJ3      0.094700
     14 H8B2        0.5340   -0.8010    1.8350 h1        1 AJ3      0.094700
     15 H101       -2.3350   -1.4940   -0.3100 h1        1 AJ3      0.087700
     16 H102       -2.5860   -1.1170    1.4320 h1        1 AJ3      0.087700
     17 H11        -3.7690    1.0220    0.8230 ha        1 AJ3      0.141000
     18 H121       -4.2830   -0.8240   -1.6420 ha        1 AJ3      0.114000
     19 H122       -5.2760    0.6500   -1.1200 ha        1 AJ3      0.114000
@<TRIPOS>BOND
     1    1    2 1   
     2    1   10 1   
     3    2    3 2   
     4    2   11 1   
     5    3    4 1   
     6    3   12 1   
     7    4    5 1   
     8    4   13 1   
     9    4   14 1   
    10    5    6 1   
    11    5    9 2   
    12    6    7 1   
    13    6   15 1   
    14    6   16 1   
    15    7    8 2   
    16    7   17 1   
    17    8   18 1   
    18    8   19 1   
@<TRIPOS>SUBSTRUCTURE
     1 AJ3         1 TEMP              0 ****  ****    0 ROOT
