@<TRIPOS>MOLECULE
AJ3
   19    18     1     0     0
SMALL
bcc


@<TRIPOS>ATOM
      1 S5          1.0690    0.9260   -0.4870 sh        1 AJ3     -0.267400
      2 C6B         1.4700   -0.2320    0.6500 c2        1 AJ3     -0.056400
      3 C7          2.6450   -0.6020    1.1770 c2        1 AJ3     -0.199200
      4 C8B         3.9660   -0.0770    0.8010 c3        1 AJ3     -0.047900
      5 S9          4.3110    1.3920    1.7290 s4        1 AJ3      0.254600
      6 C10         6.0740    1.3430    1.6700 c3        1 AJ3     -0.053900
      7 C11         6.6030    2.5280    2.3710 c2        1 AJ3     -0.160200
      8 C12         7.3920    2.4740    3.4430 c2        1 AJ3     -0.210000
      9 O13         3.9120    2.4940    0.8030 o         1 AJ3     -0.508200
     10 HS5         2.2170    1.5900   -0.6240 hs        1 AJ3      0.230800
     11 H6B         0.5570   -0.7570    0.9900 h4        1 AJ3      0.155000
     12 H7          2.6620   -1.3990    1.9410 ha        1 AJ3      0.132000
     13 H8B1        4.0080    0.1310   -0.3000 h1        1 AJ3      0.090700
     14 H8B2        4.7480   -0.8510    1.0080 h1        1 AJ3      0.090700
     15 H101        6.4280    0.3960    2.1470 h1        1 AJ3      0.088700
     16 H102        6.4580    1.3440    0.6180 h1        1 AJ3      0.088700
     17 H11         6.3070    3.4950    1.9250 ha        1 AJ3      0.142000
     18 H121        7.7150    1.5290    3.9000 ha        1 AJ3      0.114500
     19 H122        7.7710    3.3800    3.9330 ha        1 AJ3      0.114500
@<TRIPOS>BOND
     1    1    2 1   
     2    1   10 1   
     3    2    3 2   
     4    2   11 1   
     5    3    4 1   
     6    3   12 1   
     7    4    5 1   
     8    4   13 1   
     9    4   14 1   
    10    5    6 1   
    11    5    9 2   
    12    6    7 1   
    13    6   15 1   
    14    6   16 1   
    15    7    8 2   
    16    7   17 1   
    17    8   18 1   
    18    8   19 1   
@<TRIPOS>SUBSTRUCTURE
     1 AJ3         1 TEMP              0 ****  ****    0 ROOT
