@<TRIPOS>MOLECULE
AJ4
   31    27     1     0     0
SMALL
bcc


@<TRIPOS>ATOM
      1 CAA        -3.3510   -0.0120    2.8740 c3        1 AJ4     -0.193000
      2 CAM        -1.8370   -0.0120    2.8740 c2        1 AJ4      0.018000
      3 CAJ        -1.1130   -0.0120    4.1300 c1        1 AJ4     -0.219000
      4 CAQ         0.3620   -0.0120    4.1250 c1        1 AJ4      0.333000
      5 OAB         0.9720   -0.0120    5.1760 o         1 AJ4     -0.359000
      6 NAL         1.0800   -0.0120    2.8730 n3        1 AJ4     -0.299000
      7 CAR         0.3270   -0.0120    1.5710 c2        1 AJ4      0.107000
      8 CAK         1.0270   -0.0120    0.3620 c1        1 AJ4     -0.167000
      9 CAS        -1.0790   -0.0120    1.5680 c2        1 AJ4     -0.116000
     10 CAI        -1.7740   -0.0120    0.3560 c1        1 AJ4     -0.075000
     11 CAH        -1.0730   -0.0120   -0.8510 c1        1 AJ4     -0.158000
     12 CAO         0.3310   -0.0120   -0.8480 c1        1 AJ4      0.015000
     13 CAP         1.0140   -0.0120   -2.1980 c2        1 AJ4     -0.079000
     14 CAG         1.2560   -1.2100   -2.8510 c2        1 AJ4     -0.094000
     15 CAE         1.8820   -1.2100   -4.0880 c1        1 AJ4     -0.145000
     16 CAD         2.2650   -0.0120   -4.6710 c1        1 AJ4     -0.133000
     17 CAF         2.0220    1.1850   -4.0180 c1        1 AJ4     -0.133000
     18 CAN         1.3970    1.1860   -2.7810 c1        1 AJ4      0.104000
     19 FAC         1.1990    2.3400   -2.1310 f         1 AJ4     -0.102000
     20 H1         -3.6760    0.7880    2.4200 hc        1 AJ4      0.093667
     21 H2         -3.6760   -0.8060    2.4080 hc        1 AJ4      0.093667
     22 H3         -3.6760   -0.0190    3.7950 hc        1 AJ4      0.093667
     23 H4         -1.5980    0.0550    4.9740 ha        1 AJ4      0.164000
     24 H5          1.9920   -0.0120    2.8710 hn        1 AJ4      0.248000
     25 H6          2.0030   -0.0120    0.3630 ha        1 AJ4      0.149000
     26 H7         -2.7510   -0.0120    0.3530 ha        1 AJ4      0.138000
     27 H8         -1.5590   -0.0120   -1.6970 ha        1 AJ4      0.140000
     28 H9          0.9860   -2.0540   -2.4410 ha        1 AJ4      0.143000
     29 H10         2.0520   -2.0540   -4.5490 ha        1 AJ4      0.140000
     30 H11         2.7050   -0.0130   -5.5430 ha        1 AJ4      0.145500
     31 H12         2.2920    2.0290   -4.4280 ha        1 AJ4      0.145500
@<TRIPOS>BOND
     1    1    2 1   
     2    1   20 1   
     3    1   21 1   
     4    1   22 1   
     5    2    3 1   
     6    2    9 1   
     7    3   23 1   
     8    4    5 1   
     9    4    6 1   
    10    6    7 1   
    11    6   24 1   
    12    7    8 1   
    13    7    9 1   
    14    8   25 1   
    15    9   10 1   
    16   10   26 1   
    17   11   12 1   
    18   11   27 1   
    19   12   13 1   
    20   13   14 1   
    21   13   18 1   
    22   14   15 1   
    23   14   28 1   
    24   15   29 1   
    25   16   17 1   
    26   16   30 1   
    27   17   31 1   
@<TRIPOS>SUBSTRUCTURE
     1 AJ4         1 TEMP              0 ****  ****    0 ROOT
