@<TRIPOS>MOLECULE
AJ4
   31    33     1     0     0
SMALL
bcc


@<TRIPOS>ATOM
      1 CAA         0.0140   -0.0060    0.0100 c3        1 AJ4     -0.070900
      2 CAM         1.4970    0.0100    0.0280 cc        1 AJ4      0.026600
      3 CAJ         2.1800    0.0450    1.1990 cd        1 AJ4     -0.239200
      4 CAQ         3.6460    0.0600    1.2380 c         1 AJ4      0.695700
      5 OAB         4.3230    0.0910    2.2840 o         1 AJ4     -0.635500
      6 NAL         4.3180    0.0390    0.0100 n         1 AJ4     -0.447100
      7 CAR         3.6420    0.0040   -1.2030 ca        1 AJ4      0.097600
      8 CAK         4.3610   -0.0150   -2.4250 ca        1 AJ4     -0.177000
      9 CAS         2.2180   -0.0120   -1.2300 ca        1 AJ4     -0.126800
     10 CAI         1.5660   -0.0520   -2.4740 ca        1 AJ4     -0.074000
     11 CAH         2.2790   -0.0740   -3.6580 ca        1 AJ4     -0.149000
     12 CAO         3.6870   -0.0530   -3.6400 cp        1 AJ4      0.016000
     13 CAP         4.4450   -0.0470   -4.8910 cp        1 AJ4     -0.080000
     14 CAG         5.5180    0.8440   -5.0440 ca        1 AJ4     -0.095000
     15 CAE         6.2620    0.8810   -6.2190 ca        1 AJ4     -0.145000
     16 CAD         5.9500    0.0210   -7.2720 ca        1 AJ4     -0.099000
     17 CAF         4.8950   -0.8760   -7.1520 ca        1 AJ4     -0.167000
     18 CAN         4.1360   -0.9140   -5.9650 ca        1 AJ4      0.140900
     19 FAC         3.1170   -1.8010   -5.8770 f         1 AJ4     -0.135900
     20 H1         -0.3550   -0.9320   -0.4990 hc        1 AJ4      0.055033
     21 H2         -0.3750    0.8830   -0.5470 hc        1 AJ4      0.055033
     22 H3         -0.4030    0.0170    1.0460 hc        1 AJ4      0.055033
     23 H4          1.6850    0.0630    2.1810 ha        1 AJ4      0.164000
     24 H5          5.3140    0.0410    0.0080 hn        1 AJ4      0.332500
     25 H6          5.4620   -0.0070   -2.4140 ha        1 AJ4      0.142000
     26 H7          0.4650   -0.0680   -2.5020 ha        1 AJ4      0.139000
     27 H8          1.7520   -0.1170   -4.6240 ha        1 AJ4      0.147000
     28 H9          5.7640    1.5280   -4.2160 ha        1 AJ4      0.142000
     29 H10         7.0960    1.5920   -6.3170 ha        1 AJ4      0.140000
     30 H11         6.5390    0.0490   -8.2010 ha        1 AJ4      0.140000
     31 H12         4.6410   -1.5620   -7.9730 ha        1 AJ4      0.151000
@<TRIPOS>BOND
     1    1    2 1   
     2    1   20 1   
     3    1   21 1   
     4    1   22 1   
     5    2    3 2   
     6    2    9 1   
     7    3    4 1   
     8    3   23 1   
     9    4    5 2   
    10    4    6 1   
    11    6    7 1   
    12    6   24 1   
    13    7    8 ar  
    14    7    9 ar  
    15    8   12 ar  
    16    8   25 1   
    17    9   10 ar  
    18   10   11 ar  
    19   10   26 1   
    20   11   12 ar  
    21   11   27 1   
    22   12   13 1   
    23   13   14 ar  
    24   13   18 ar  
    25   14   15 ar  
    26   14   28 1   
    27   15   16 ar  
    28   15   29 1   
    29   16   17 ar  
    30   16   30 1   
    31   17   18 ar  
    32   17   31 1   
    33   18   19 1   
@<TRIPOS>SUBSTRUCTURE
     1 AJ4         1 TEMP              0 ****  ****    0 ROOT
