@<TRIPOS>MOLECULE
AJ4
   31    33     1     0     0
SMALL
bcc


@<TRIPOS>ATOM
      1 CAA        -3.7570    2.3980    0.5620 c3        1 AJ4     -0.070900
      2 CAM        -3.2920    1.0200    0.2710 cc        1 AJ4      0.026600
      3 CAJ        -4.1760    0.0200    0.0370 cd        1 AJ4     -0.239200
      4 CAQ        -3.7360   -1.3490   -0.2550 c         1 AJ4      0.695700
      5 OAB        -4.5040   -2.3040   -0.4770 o         1 AJ4     -0.635500
      6 NAL        -2.3550   -1.5840   -0.2800 n         1 AJ4     -0.447100
      7 CAR        -1.4290   -0.5760   -0.0440 ca        1 AJ4      0.097600
      8 CAK        -0.0390   -0.8570   -0.0780 ca        1 AJ4     -0.177000
      9 CAS        -1.8670    0.7500    0.2360 ca        1 AJ4     -0.126800
     10 CAI        -0.9030    1.7460    0.4660 ca        1 AJ4     -0.074000
     11 CAH         0.4490    1.4600    0.4260 ca        1 AJ4     -0.149000
     12 CAO         0.8910    0.1510    0.1550 cp        1 AJ4      0.016000
     13 CAP         2.3200   -0.1630    0.1390 cp        1 AJ4     -0.080000
     14 CAG         2.7810   -1.3100    0.8010 ca        1 AJ4     -0.095000
     15 CAE         4.1320   -1.6420    0.8120 ca        1 AJ4     -0.145000
     16 CAD         5.0560   -0.8300    0.1530 ca        1 AJ4     -0.099000
     17 CAF         4.6320    0.3120   -0.5140 ca        1 AJ4     -0.167000
     18 CAN         3.2640    0.6540   -0.5240 ca        1 AJ4      0.140900
     19 FAC         2.8800    1.7710   -1.1860 f         1 AJ4     -0.135900
     20 H1         -3.3640    3.1080   -0.2080 hc        1 AJ4      0.055033
     21 H2         -4.8730    2.4560    0.5580 hc        1 AJ4      0.055033
     22 H3         -3.3900    2.7250    1.5670 hc        1 AJ4      0.055033
     23 H4         -5.2650    0.1680    0.0500 ha        1 AJ4      0.164000
     24 H5         -2.0290   -2.5030   -0.4830 hn        1 AJ4      0.332500
     25 H6          0.3090   -1.8780   -0.2990 ha        1 AJ4      0.142000
     26 H7         -1.2340    2.7750    0.6810 ha        1 AJ4      0.139000
     27 H8          1.1910    2.2550    0.5970 ha        1 AJ4      0.147000
     28 H9          2.0550   -1.9510    1.3270 ha        1 AJ4      0.142000
     29 H10         4.4710   -2.5440    1.3420 ha        1 AJ4      0.140000
     30 H11         6.1250   -1.0930    0.1600 ha        1 AJ4      0.140000
     31 H12         5.3490    0.9590   -1.0400 ha        1 AJ4      0.151000
@<TRIPOS>BOND
     1    1    2 1   
     2    1   20 1   
     3    1   21 1   
     4    1   22 1   
     5    2    3 2   
     6    2    9 1   
     7    3    4 1   
     8    3   23 1   
     9    4    5 2   
    10    4    6 1   
    11    6    7 1   
    12    6   24 1   
    13    7    8 ar  
    14    7    9 ar  
    15    8   12 ar  
    16    8   25 1   
    17    9   10 ar  
    18   10   11 ar  
    19   10   26 1   
    20   11   12 ar  
    21   11   27 1   
    22   12   13 1   
    23   13   14 ar  
    24   13   18 ar  
    25   14   15 ar  
    26   14   28 1   
    27   15   16 ar  
    28   15   29 1   
    29   16   17 ar  
    30   16   30 1   
    31   17   18 ar  
    32   17   31 1   
    33   18   19 1   
@<TRIPOS>SUBSTRUCTURE
     1 AJ4         1 TEMP              0 ****  ****    0 ROOT
