@<TRIPOS>MOLECULE
AJ4
   31    33     1     0     0
SMALL
bcc


@<TRIPOS>ATOM
      1 CAA         0.0150   -0.0090    0.0100 c3        1 AJ4     -0.070900
      2 CAM         1.4970    0.0090    0.0290 cc        1 AJ4      0.026600
      3 CAJ         2.1800    0.0440    1.1990 cd        1 AJ4     -0.239200
      4 CAQ         3.6460    0.0590    1.2380 c         1 AJ4      0.695700
      5 OAB         4.3240    0.0900    2.2840 o         1 AJ4     -0.635500
      6 NAL         4.3190    0.0390    0.0100 n         1 AJ4     -0.447100
      7 CAR         3.6420    0.0030   -1.2030 ca        1 AJ4      0.097600
      8 CAK         4.3610   -0.0140   -2.4250 ca        1 AJ4     -0.177000
      9 CAS         2.2180   -0.0130   -1.2290 ca        1 AJ4     -0.126800
     10 CAI         1.5660   -0.0540   -2.4730 ca        1 AJ4     -0.074000
     11 CAH         2.2790   -0.0750   -3.6580 ca        1 AJ4     -0.149000
     12 CAO         3.6870   -0.0530   -3.6410 cp        1 AJ4      0.016000
     13 CAP         4.4450   -0.0460   -4.8920 cp        1 AJ4     -0.080000
     14 CAG         5.5170    0.8450   -5.0440 ca        1 AJ4     -0.095000
     15 CAE         6.2610    0.8840   -6.2190 ca        1 AJ4     -0.145000
     16 CAD         5.9490    0.0230   -7.2720 ca        1 AJ4     -0.099000
     17 CAF         4.8950   -0.8740   -7.1530 ca        1 AJ4     -0.167000
     18 CAN         4.1360   -0.9130   -5.9660 ca        1 AJ4      0.140900
     19 FAC         3.1170   -1.8000   -5.8770 f         1 AJ4     -0.135900
     20 H1         -0.3540   -0.9350   -0.4980 hc        1 AJ4      0.055033
     21 H2         -0.3750    0.8810   -0.5460 hc        1 AJ4      0.055033
     22 H3         -0.4020    0.0140    1.0470 hc        1 AJ4      0.055033
     23 H4          1.6860    0.0610    2.1810 ha        1 AJ4      0.164000
     24 H5          5.3150    0.0410    0.0080 hn        1 AJ4      0.332500
     25 H6          5.4630   -0.0060   -2.4140 ha        1 AJ4      0.142000
     26 H7          0.4650   -0.0700   -2.5020 ha        1 AJ4      0.139000
     27 H8          1.7520   -0.1170   -4.6230 ha        1 AJ4      0.147000
     28 H9          5.7630    1.5300   -4.2160 ha        1 AJ4      0.142000
     29 H10         7.0950    1.5950   -6.3170 ha        1 AJ4      0.140000
     30 H11         6.5390    0.0530   -8.2010 ha        1 AJ4      0.140000
     31 H12         4.6410   -1.5600   -7.9740 ha        1 AJ4      0.151000
@<TRIPOS>BOND
     1    1    2 1   
     2    1   20 1   
     3    1   21 1   
     4    1   22 1   
     5    2    3 2   
     6    2    9 1   
     7    3    4 1   
     8    3   23 1   
     9    4    5 2   
    10    4    6 1   
    11    6    7 1   
    12    6   24 1   
    13    7    8 ar  
    14    7    9 ar  
    15    8   12 ar  
    16    8   25 1   
    17    9   10 ar  
    18   10   11 ar  
    19   10   26 1   
    20   11   12 ar  
    21   11   27 1   
    22   12   13 1   
    23   13   14 ar  
    24   13   18 ar  
    25   14   15 ar  
    26   14   28 1   
    27   15   16 ar  
    28   15   29 1   
    29   16   17 ar  
    30   16   30 1   
    31   17   18 ar  
    32   17   31 1   
    33   18   19 1   
@<TRIPOS>SUBSTRUCTURE
     1 AJ4         1 TEMP              0 ****  ****    0 ROOT
