@<TRIPOS>MOLECULE
AJ5
   46    48     1     0     0
SMALL
bcc


@<TRIPOS>ATOM
      1 C4          0.0450   -0.0580   -0.0080 c3        1 AJ5      0.104800
      2 C6         -1.7830    0.0660    1.7190 c         1 AJ5      0.574700
      3 C8         -2.1840    0.0580    3.1230 ca        1 AJ5     -0.206600
      4 C10        -4.0250   -0.0510    4.6920 ca        1 AJ5     -0.122000
      5 C13        -3.2530   -0.9830    8.0510 ca        1 AJ5     -0.142000
      6 C15        -4.7530   -0.0780    9.7370 ca        1 AJ5     -0.099800
      7 C17        -4.8860   -1.1190   12.0390 c3        1 AJ5     -0.073900
      8 C24        -4.6360    0.9340    7.5050 ca        1 AJ5     -0.163000
      9 C1          3.4710   -1.3250    0.2910 c3        1 AJ5      0.118700
     10 O2          2.1440   -0.9530    0.6500 os        1 AJ5     -0.466600
     11 C3          1.5560   -0.0250   -0.2530 c3        1 AJ5      0.102400
     12 N5         -0.2920    0.0910    1.4380 n4        1 AJ5     -0.670800
     13 O7         -2.5070    0.0530    0.7310 o         1 AJ5     -0.429100
     14 C9         -3.5640   -0.0370    3.3810 ca        1 AJ5     -0.036000
     15 C11        -3.1370    0.0240    5.7750 cp        1 AJ5      0.069000
     16 C12        -3.6760   -0.0030    7.1360 cp        1 AJ5     -0.047000
     17 C14        -3.7930   -1.0140    9.3270 ca        1 AJ5     -0.067000
     18 C16        -5.3270   -0.0860   11.0720 cc        1 AJ5      0.012600
     19 C18        -6.2500    0.8440   11.4140 cd        1 AJ5     -0.214200
     20 C19        -6.7000    1.8760   10.4720 c         1 AJ5      0.693700
     21 O20        -7.5420    2.7540   10.7300 o         1 AJ5     -0.602500
     22 N21        -6.1310    1.8590    9.1870 n         1 AJ5     -0.451100
     23 C23        -5.1850    0.9190    8.8120 ca        1 AJ5      0.102600
     24 C25        -1.7540    0.1320    5.5090 ca        1 AJ5      0.015400
     25 CL         -0.6230    0.2710    6.7600 cl        1 AJ5     -0.024400
     26 C27        -1.2830    0.1460    4.1950 ca        1 AJ5     -0.095000
     27 H1         -0.3820   -1.0420   -0.3550 hx        1 AJ5      0.120200
     28 H2         -0.4520    0.7740   -0.5830 hx        1 AJ5      0.120200
     29 H3         -5.1090   -0.1270    4.8900 ha        1 AJ5      0.178000
     30 H4         -2.5010   -1.7270    7.7530 ha        1 AJ5      0.144000
     31 H5         -5.1080   -2.1410   11.6420 hc        1 AJ5      0.060033
     32 H6         -5.4090   -1.0020   13.0210 hc        1 AJ5      0.060033
     33 H7         -3.7840   -1.0380   12.2170 hc        1 AJ5      0.060033
     34 H8         -4.9640    1.6960    6.7800 ha        1 AJ5      0.142000
     35 H9          3.7810   -2.0330    1.1010 h1        1 AJ5      0.058033
     36 H10         3.4750   -1.8350   -0.7040 h1        1 AJ5      0.058033
     37 H11         4.1330   -0.4250    0.2730 h1        1 AJ5      0.058033
     38 H12         1.7450   -0.3190   -1.3210 h1        1 AJ5      0.074700
     39 H13         1.9840    0.9960   -0.0650 h1        1 AJ5      0.074700
     40 H14         0.0950    0.9730    1.7890 hn        1 AJ5      0.465800
     41 H15        -4.2770   -0.1020    2.5400 ha        1 AJ5      0.175000
     42 H16        -3.4590   -1.7900   10.0360 ha        1 AJ5      0.152000
     43 H17        -6.7180    0.8860   12.4100 ha        1 AJ5      0.176000
     44 H18        -6.4170    2.5520    8.5300 hn        1 AJ5      0.335500
     45 H19        -0.1970    0.2370    4.0390 ha        1 AJ5      0.138000
     46 H52         0.1610   -0.6780    1.9530 hn        1 AJ5      0.465800
@<TRIPOS>BOND
     1    1   11 1   
     2    1   12 1   
     3    1   27 1   
     4    1   28 1   
     5    2    3 1   
     6    2   12 1   
     7    2   13 2   
     8    3   14 ar  
     9    3   26 ar  
    10    4   14 ar  
    11    4   15 ar  
    12    4   29 1   
    13    5   16 ar  
    14    5   17 ar  
    15    5   30 1   
    16    6   17 ar  
    17    6   18 1   
    18    6   23 ar  
    19    7   18 1   
    20    7   31 1   
    21    7   32 1   
    22    7   33 1   
    23    8   16 ar  
    24    8   23 ar  
    25    8   34 1   
    26    9   10 1   
    27    9   35 1   
    28    9   36 1   
    29    9   37 1   
    30   10   11 1   
    31   11   38 1   
    32   11   39 1   
    33   12   40 1   
    34   12   46 1   
    35   14   41 1   
    36   15   16 1   
    37   15   24 ar  
    38   17   42 1   
    39   18   19 2   
    40   19   20 1   
    41   19   43 1   
    42   20   21 2   
    43   20   22 1   
    44   22   23 1   
    45   22   44 1   
    46   24   25 1   
    47   24   26 ar  
    48   26   45 1   
@<TRIPOS>SUBSTRUCTURE
     1 AJ5         1 TEMP              0 ****  ****    0 ROOT
