@<TRIPOS>MOLECULE
AJ5
   46    48     1     0     0
SMALL
bcc


@<TRIPOS>ATOM
      1 C4          0.0450   -0.0730   -0.0070 c3        1 AJ5      0.104800
      2 C6         -1.7800    0.1520    1.7130 c         1 AJ5      0.574700
      3 C8         -2.1800    0.1310    3.1180 ca        1 AJ5     -0.206600
      4 C10        -4.0170   -0.0290    4.6870 ca        1 AJ5     -0.122000
      5 C13        -3.2170   -0.9410    8.0450 ca        1 AJ5     -0.142000
      6 C15        -4.7420   -0.0820    9.7320 ca        1 AJ5     -0.099800
      7 C17        -4.8430   -1.1280   12.0330 c3        1 AJ5     -0.073900
      8 C24        -4.6560    0.9330    7.5000 ca        1 AJ5     -0.163000
      9 C1          3.4390   -1.4140    0.3320 c3        1 AJ5      0.118700
     10 O2          2.1200   -1.0000    0.6790 os        1 AJ5     -0.466600
     11 C3          1.5560   -0.0860   -0.2530 c3        1 AJ5      0.102400
     12 N5         -0.2880    0.1300    1.4330 n4        1 AJ5     -0.670800
     13 O7         -2.5020    0.1820    0.7250 o         1 AJ5     -0.429100
     14 C9         -3.5570   -0.0010    3.3750 ca        1 AJ5     -0.036000
     15 C11        -3.1310    0.0700    5.7700 cp        1 AJ5      0.069000
     16 C12        -3.6680    0.0250    7.1310 cp        1 AJ5     -0.047000
     17 C14        -3.7540   -0.9890    9.3210 ca        1 AJ5     -0.067000
     18 C16        -5.3150   -0.1080   11.0670 cc        1 AJ5      0.012600
     19 C18        -6.2650    0.7940   11.4100 cd        1 AJ5     -0.214200
     20 C19        -6.7460    1.8130   10.4690 c         1 AJ5      0.693700
     21 O20        -7.6120    2.6650   10.7270 o         1 AJ5     -0.602500
     22 N21        -6.1770    1.8140    9.1830 n         1 AJ5     -0.451100
     23 C23        -5.2030    0.9020    8.8080 ca        1 AJ5      0.102600
     24 C25        -1.7520    0.2160    5.5030 ca        1 AJ5      0.015400
     25 CL         -0.6240    0.3890    6.7530 cl        1 AJ5     -0.024400
     26 C27        -1.2820    0.2450    4.1890 ca        1 AJ5     -0.095000
     27 H1         -0.4310    0.7530   -0.6090 hx        1 AJ5      0.120200
     28 H2         -0.4070   -1.0570   -0.3230 hx        1 AJ5      0.120200
     29 H3         -5.0980   -0.1350    4.8850 ha        1 AJ5      0.178000
     30 H4         -2.4430   -1.6630    7.7460 ha        1 AJ5      0.144000
     31 H5         -3.7440   -1.0150   12.2110 hc        1 AJ5      0.060033
     32 H6         -5.0360   -2.1570   11.6360 hc        1 AJ5      0.060033
     33 H7         -5.3700   -1.0280   13.0150 hc        1 AJ5      0.060033
     34 H8         -5.0060    1.6860    6.7760 ha        1 AJ5      0.142000
     35 H9          3.7310   -2.1040    1.1640 h1        1 AJ5      0.058033
     36 H10         3.4300   -1.9540   -0.6460 h1        1 AJ5      0.058033
     37 H11         4.1220   -0.5310    0.2880 h1        1 AJ5      0.058033
     38 H12         1.7370   -0.4170   -1.3110 h1        1 AJ5      0.074700
     39 H13         2.0090    0.9300   -0.0960 h1        1 AJ5      0.074700
     40 H14         0.1460   -0.6330    1.9740 hn        1 AJ5      0.466300
     41 H15        -4.2690   -0.0830    2.5350 ha        1 AJ5      0.175000
     42 H16        -3.3980   -1.7550   10.0300 ha        1 AJ5      0.152000
     43 H17        -6.7340    0.8220   12.4060 ha        1 AJ5      0.176000
     44 H18        -6.4820    2.4990    8.5270 hn        1 AJ5      0.335500
     45 H19        -0.1990    0.3720    4.0320 ha        1 AJ5      0.138000
     46 H52         0.1210    1.0130    1.7560 hn        1 AJ5      0.466300
@<TRIPOS>BOND
     1    1   11 1   
     2    1   12 1   
     3    1   27 1   
     4    1   28 1   
     5    2    3 1   
     6    2   12 1   
     7    2   13 2   
     8    3   14 ar  
     9    3   26 ar  
    10    4   14 ar  
    11    4   15 ar  
    12    4   29 1   
    13    5   16 ar  
    14    5   17 ar  
    15    5   30 1   
    16    6   17 ar  
    17    6   18 1   
    18    6   23 ar  
    19    7   18 1   
    20    7   31 1   
    21    7   32 1   
    22    7   33 1   
    23    8   16 ar  
    24    8   23 ar  
    25    8   34 1   
    26    9   10 1   
    27    9   35 1   
    28    9   36 1   
    29    9   37 1   
    30   10   11 1   
    31   11   38 1   
    32   11   39 1   
    33   12   40 1   
    34   12   46 1   
    35   14   41 1   
    36   15   16 1   
    37   15   24 ar  
    38   17   42 1   
    39   18   19 2   
    40   19   20 1   
    41   19   43 1   
    42   20   21 2   
    43   20   22 1   
    44   22   23 1   
    45   22   44 1   
    46   24   25 1   
    47   24   26 ar  
    48   26   45 1   
@<TRIPOS>SUBSTRUCTURE
     1 AJ5         1 TEMP              0 ****  ****    0 ROOT
