@<TRIPOS>MOLECULE
AJ5
   45    38     1     0     0
SMALL
bcc


@<TRIPOS>ATOM
      1 C4          1.8130   -0.6720   -5.5440 c3        1 AJ5     -0.033000
      2 C6          1.1790    0.7680   -3.6090 c1        1 AJ5      0.340000
      3 C8          0.6600    0.7780   -2.1450 c1        1 AJ5     -0.110000
      4 C10        -1.1310    0.4260   -0.5590 c1        1 AJ5     -0.112000
      5 C13        -1.4160    2.0040    2.3580 c1        1 AJ5     -0.144000
      6 C15        -1.8620    0.9680    4.4800 c1        1 AJ5     -0.112000
      7 C17        -3.0090    2.3770    6.4290 c3        1 AJ5     -0.193000
      8 C24        -0.7250   -0.3010    2.7590 c1        1 AJ5     -0.172000
      9 C1          3.2350   -3.1530   -7.7700 c3        1 AJ5     -0.072000
     10 O2          2.2890   -2.3130   -7.2330 os        1 AJ5     -0.277000
     11 C3          2.5570   -1.9180   -5.8430 c3        1 AJ5     -0.051000
     12 N5          1.8070   -0.4420   -4.1500 n3        1 AJ5     -0.372000
     13 O7          1.1670    1.8410   -4.2940 o         1 AJ5     -0.351000
     14 C9         -0.6510    0.4020   -1.8740 c1        1 AJ5     -0.112000
     15 C11        -0.3000    0.8230    0.4700 c1        1 AJ5     -0.020000
     16 C12        -0.8000    0.8000    1.9120 c1        1 AJ5      0.004000
     17 C14        -1.9360    2.0820    3.6190 c2        1 AJ5     -0.074000
     18 C16        -2.4810    1.0400    5.8840 c1        1 AJ5      0.018000
     19 C18        -2.4410   -0.0960    6.7280 c1        1 AJ5     -0.218000
     20 C19        -1.7730   -1.3350    6.2620 c1        1 AJ5      0.334000
     21 O20        -1.7360   -2.3440    7.0060 o         1 AJ5     -0.357000
     22 N21        -1.1830   -1.3920    4.9130 n3        1 AJ5     -0.301000
     23 C23        -1.2490   -0.2290    4.0350 c1        1 AJ5      0.104000
     24 C25         0.9860    1.1910    0.1970 c1        1 AJ5     -0.057000
     25 CL          2.0640    1.6690    1.5060 cl        1 AJ5      0.005000
     26 C27         1.4670    1.1630   -1.1560 c2        1 AJ5     -0.079000
     27 H1          0.9000   -0.7560   -5.8630 h1        1 AJ5      0.117000
     28 H2          2.2420    0.0720   -5.9910 h1        1 AJ5      0.117000
     29 H3         -2.0930    0.1510   -0.3610 ha        1 AJ5      0.146500
     30 H4         -1.4700    2.8180    1.7290 ha        1 AJ5      0.148000
     31 H5         -3.7460    2.7200    5.8170 hc        1 AJ5      0.094667
     32 H6         -2.2940    3.0170    6.4660 hc        1 AJ5      0.094667
     33 H7         -3.3630    2.2460    7.3160 hc        1 AJ5      0.094667
     34 H8         -0.2960   -1.1450    2.4400 ha        1 AJ5      0.142000
     35 H9          3.4220   -3.9070   -7.1240 h1        1 AJ5      0.074333
     36 H10         2.9050   -3.5180   -8.6050 h1        1 AJ5      0.074333
     37 H11         4.0510   -2.6560   -7.9350 h1        1 AJ5      0.074333
     38 H12         3.5730   -1.7540   -5.7190 h1        1 AJ5      0.071500
     39 H13         2.2720   -2.6090   -5.2550 h1        1 AJ5      0.071500
     40 H14         2.1360   -1.1040   -3.5600 hn        1 AJ5      0.222000
     41 H15        -1.2090    0.1310   -2.5720 ha        1 AJ5      0.146500
     42 H16        -2.3690    2.9250    3.9310 ha        1 AJ5      0.141000
     43 H17        -2.8260   -0.0520    7.6400 ha        1 AJ5      0.165000
     44 H18        -0.7760   -2.1460    4.6280 hn        1 AJ5      0.246000
     45 H19         2.4100    1.4310   -1.3600 ha        1 AJ5      0.171000
@<TRIPOS>BOND
     1    1   11 1   
     2    1   12 1   
     3    1   27 1   
     4    1   28 1   
     5    2   12 1   
     6    2   13 1   
     7    3   26 1   
     8    4   14 1   
     9    4   29 1   
    10    5   17 1   
    11    5   30 1   
    12    6   17 1   
    13    6   23 1   
    14    7   18 1   
    15    7   31 1   
    16    7   32 1   
    17    7   33 1   
    18    8   16 1   
    19    8   34 1   
    20    9   10 1   
    21    9   35 1   
    22    9   36 1   
    23    9   37 1   
    24   10   11 1   
    25   11   38 1   
    26   11   39 1   
    27   12   40 1   
    28   14   41 1   
    29   15   24 1   
    30   17   42 1   
    31   18   19 1   
    32   19   43 1   
    33   20   21 1   
    34   20   22 1   
    35   22   23 1   
    36   22   44 1   
    37   24   26 1   
    38   26   45 1   
@<TRIPOS>SUBSTRUCTURE
     1 AJ5         1 TEMP              0 ****  ****    0 ROOT
