@<TRIPOS>MOLECULE
AJ5
   45    47     1     0     0
SMALL
bcc


@<TRIPOS>ATOM
      1 C4         -6.4050    0.7850    0.6320 c3        1 AJ5      0.085000
      2 C6         -4.0540    1.4420    0.2830 c         1 AJ5      0.662700
      3 C8         -2.6250    1.0080    0.2870 ca        1 AJ5     -0.125600
      4 C10        -0.3120    1.5740    0.6950 ca        1 AJ5     -0.119000
      5 C13         1.9810   -1.1020    1.1410 ca        1 AJ5     -0.145000
      6 C15         4.2660   -0.6640    0.4370 ca        1 AJ5     -0.124800
      7 C17         6.1780   -2.0660    1.3140 c3        1 AJ5     -0.070900
      8 C24         2.4160    0.7030   -0.4170 ca        1 AJ5     -0.170000
      9 C1         -7.6080   -2.1130   -1.2970 c3        1 AJ5      0.116700
     10 O2         -6.9590   -1.3320   -0.3080 os        1 AJ5     -0.433600
     11 C3         -7.1070    0.0680   -0.5300 c3        1 AJ5      0.095400
     12 N5         -4.9950    0.5330    0.7310 n         1 AJ5     -0.548900
     13 O7         -4.3740    2.6030   -0.0450 o         1 AJ5     -0.602100
     14 C9         -1.6550    1.9340    0.6890 ca        1 AJ5     -0.079000
     15 C11         0.0910    0.2890    0.2990 cp        1 AJ5     -0.020000
     16 C12         1.5170   -0.0460    0.3330 cp        1 AJ5      0.004000
     17 C14         3.3310   -1.3970    1.1870 ca        1 AJ5     -0.075000
     18 C16         5.6870   -0.9550    0.4650 cc        1 AJ5      0.024600
     19 C18         6.5430   -0.2150   -0.2810 cd        1 AJ5     -0.237200
     20 C19         6.0760    0.8870   -1.1290 c         1 AJ5      0.695700
     21 O20         6.8190    1.5970   -1.8350 o         1 AJ5     -0.632500
     22 N21         4.7000    1.1490   -1.1370 n         1 AJ5     -0.446100
     23 C23         3.8030    0.4040   -0.3820 ca        1 AJ5      0.097600
     24 C25        -0.8890   -0.6250   -0.1210 ca        1 AJ5      0.021400
     25 CL         -0.4700   -2.1840   -0.6540 cl        1 AJ5     -0.078400
     26 C27        -2.2430   -0.2680   -0.1260 ca        1 AJ5     -0.104000
     27 H1         -6.5790    1.8920    0.5090 h1        1 AJ5      0.074700
     28 H2         -6.8800    0.4420    1.5960 h1        1 AJ5      0.074700
     29 H3          0.4510    2.3010    1.0130 ha        1 AJ5      0.149000
     30 H4          1.2630   -1.6890    1.7320 ha        1 AJ5      0.146000
     31 H5          5.7080   -3.0310    0.9990 hc        1 AJ5      0.055033
     32 H6          7.2890   -2.1730    1.2360 hc        1 AJ5      0.055033
     33 H7          5.9170   -1.8780    2.3860 hc        1 AJ5      0.055033
     34 H8          2.0450    1.5280   -1.0450 ha        1 AJ5      0.145000
     35 H9         -7.4090   -3.1710   -0.9930 h1        1 AJ5      0.035033
     36 H10        -8.7070   -1.9070   -1.3020 h1        1 AJ5      0.035033
     37 H11        -7.1770   -1.9070   -2.3080 h1        1 AJ5      0.035033
     38 H12        -8.1950    0.3410   -0.5290 h1        1 AJ5      0.039200
     39 H13        -6.6570    0.3430   -1.5200 h1        1 AJ5      0.039200
     40 H14        -4.7290   -0.4180    0.8420 hn        1 AJ5      0.318500
     41 H15        -1.9670    2.9490    0.9880 ha        1 AJ5      0.163000
     42 H16         3.6840   -2.2240    1.8240 ha        1 AJ5      0.140000
     43 H17         7.6280   -0.3910   -0.2990 ha        1 AJ5      0.165000
     44 H18         4.3550    1.8870   -1.7090 hn        1 AJ5      0.333500
     45 H19        -2.9910   -0.9970   -0.4750 ha        1 AJ5      0.153000
@<TRIPOS>BOND
     1    1   11 1   
     2    1   12 1   
     3    1   27 1   
     4    1   28 1   
     5    2    3 1   
     6    2   12 1   
     7    2   13 2   
     8    3   14 ar  
     9    3   26 ar  
    10    4   14 ar  
    11    4   15 ar  
    12    4   29 1   
    13    5   16 ar  
    14    5   17 ar  
    15    5   30 1   
    16    6   17 ar  
    17    6   18 1   
    18    6   23 ar  
    19    7   18 1   
    20    7   31 1   
    21    7   32 1   
    22    7   33 1   
    23    8   16 ar  
    24    8   23 ar  
    25    8   34 1   
    26    9   10 1   
    27    9   35 1   
    28    9   36 1   
    29    9   37 1   
    30   10   11 1   
    31   11   38 1   
    32   11   39 1   
    33   12   40 1   
    34   14   41 1   
    35   15   16 1   
    36   15   24 ar  
    37   17   42 1   
    38   18   19 2   
    39   19   20 1   
    40   19   43 1   
    41   20   21 2   
    42   20   22 1   
    43   22   23 1   
    44   22   44 1   
    45   24   25 1   
    46   24   26 ar  
    47   26   45 1   
@<TRIPOS>SUBSTRUCTURE
     1 AJ5         1 TEMP              0 ****  ****    0 ROOT
