@<TRIPOS>MOLECULE
AJ5
   46    48     1     0     0
SMALL
bcc


@<TRIPOS>ATOM
      1 C4          0.0430   -0.0730   -0.0080 c3        1 AJ5      0.104800
      2 C6         -1.7810    0.1440    1.7140 c         1 AJ5      0.574700
      3 C8         -2.1810    0.1240    3.1180 ca        1 AJ5     -0.206600
      4 C10        -4.0180   -0.0270    4.6880 ca        1 AJ5     -0.122000
      5 C13        -3.2220   -0.9460    8.0450 ca        1 AJ5     -0.142000
      6 C15        -4.7420   -0.0800    9.7330 ca        1 AJ5     -0.099800
      7 C17        -4.8480   -1.1270   12.0340 c3        1 AJ5     -0.073900
      8 C24        -4.6510    0.9370    7.5020 ca        1 AJ5     -0.163000
      9 C1          3.4380   -1.4130    0.3250 c3        1 AJ5      0.118700
     10 O2          2.1200   -1.0010    0.6740 os        1 AJ5     -0.466600
     11 C3          1.5540   -0.0840   -0.2550 c3        1 AJ5      0.102400
     12 N5         -0.2900    0.1240    1.4330 ny        1 AJ5     -0.670800
     13 O7         -2.5040    0.1710    0.7260 o         1 AJ5     -0.429100
     14 C9         -3.5580   -0.0010    3.3760 ca        1 AJ5     -0.036000
     15 C11        -3.1310    0.0660    5.7710 cp        1 AJ5      0.069000
     16 C12        -3.6680    0.0240    7.1320 cp        1 AJ5     -0.047000
     17 C14        -3.7590   -0.9920    9.3220 ca        1 AJ5     -0.067000
     18 C16        -5.3150   -0.1030   11.0680 cc        1 AJ5      0.012600
     19 C18        -6.2600    0.8030   11.4120 cd        1 AJ5     -0.214200
     20 C19        -6.7350    1.8260   10.4720 c         1 AJ5      0.693700
     21 O20        -7.5970    2.6820   10.7310 o         1 AJ5     -0.602500
     22 N21        -6.1670    1.8250    9.1860 ns        1 AJ5     -0.451100
     23 C23        -5.1980    0.9080    8.8100 ca        1 AJ5      0.102600
     24 C25        -1.7510    0.2060    5.5040 ca        1 AJ5      0.015400
     25 Cl         -0.6230    0.3720    6.7530 cl        1 AJ5     -0.024400
     26 C27        -1.2820    0.2330    4.1890 ca        1 AJ5     -0.095000
     27 H1         -0.4340    0.7540   -0.6070 hx        1 AJ5      0.120200
     28 H2         -0.4080   -1.0560   -0.3270 hx        1 AJ5      0.120200
     29 H3         -5.1000   -0.1280    4.8870 ha        1 AJ5      0.178000
     30 H4         -2.4520   -1.6720    7.7460 ha        1 AJ5      0.144000
     31 H5         -3.7490   -1.0190   12.2120 hc        1 AJ5      0.060033
     32 H6         -5.0460   -2.1540   11.6360 hc        1 AJ5      0.060033
     33 H7         -5.3740   -1.0240   13.0150 hc        1 AJ5      0.060033
     34 H8         -4.9970    1.6920    6.7790 ha        1 AJ5      0.142000
     35 H9          3.7310   -2.1060    1.1550 h1        1 AJ5      0.058033
     36 H10         3.4300   -1.9490   -0.6550 h1        1 AJ5      0.058033
     37 H11         4.1210   -0.5300    0.2840 h1        1 AJ5      0.058033
     38 H12         1.7350   -0.4110   -1.3140 h1        1 AJ5      0.074700
     39 H13         2.0060    0.9310   -0.0950 h1        1 AJ5      0.074700
     40 H14         0.1450   -0.6410    1.9700 hn        1 AJ5      0.466300
     41 H15        -4.2710   -0.0800    2.5360 ha        1 AJ5      0.175000
     42 H16        -3.4070   -1.7600   10.0290 ha        1 AJ5      0.152000
     43 H17        -6.7290    0.8330   12.4080 ha        1 AJ5      0.176000
     44 H18        -6.4690    2.5110    8.5310 hn        1 AJ5      0.335500
     45 H19        -0.1980    0.3540    4.0320 ha        1 AJ5      0.138000
     46 H52         0.1200    1.0060    1.7590 hn        1 AJ5      0.466300
@<TRIPOS>BOND
     1    1   11 1   
     2    1   12 1   
     3    1   27 1   
     4    1   28 1   
     5    2    3 1   
     6    2   12 1   
     7    2   13 2   
     8    3   14 ar  
     9    3   26 ar  
    10    4   14 ar  
    11    4   15 ar  
    12    4   29 1   
    13    5   16 ar  
    14    5   17 ar  
    15    5   30 1   
    16    6   17 ar  
    17    6   18 1   
    18    6   23 ar  
    19    7   18 1   
    20    7   31 1   
    21    7   32 1   
    22    7   33 1   
    23    8   16 ar  
    24    8   23 ar  
    25    8   34 1   
    26    9   10 1   
    27    9   35 1   
    28    9   36 1   
    29    9   37 1   
    30   10   11 1   
    31   11   38 1   
    32   11   39 1   
    33   12   40 1   
    34   12   46 1   
    35   14   41 1   
    36   15   16 1   
    37   15   24 ar  
    38   17   42 1   
    39   18   19 2   
    40   19   20 1   
    41   19   43 1   
    42   20   21 2   
    43   20   22 1   
    44   22   23 1   
    45   22   44 1   
    46   24   25 1   
    47   24   26 ar  
    48   26   45 1   
@<TRIPOS>SUBSTRUCTURE
     1 AJ5         1 TEMP              0 ****  ****    0 ROOT
