@<TRIPOS>MOLECULE
AJ6
   34    36     1     0     0
SMALL
bcc


@<TRIPOS>ATOM
      1 C4          0.3520   -0.2910   -0.1740 c2        1 AJ6      0.340000
      2 C8          0.1420   -0.1600    2.2510 c2        1 AJ6      0.178000
      3 C10        -0.1620   -0.0470    4.6820 c2        1 AJ6     -0.094000
      4 C13        -2.6080    1.0170    7.4120 c1        1 AJ6     -0.095000
      5 C17        -0.9270   -1.1920    6.7640 c2        1 AJ6     -0.162000
      6 C20         2.0820    0.3790    3.6500 c1        1 AJ6     -0.077000
      7 C21         1.5240    0.1330    2.3950 c2        1 AJ6     -0.221000
      8 C2          2.3400    0.1940    1.1990 c2        1 AJ6      0.093000
      9 C3          1.7710   -0.0070   -0.0210 c2        1 AJ6     -0.261000
     10 O5         -0.2610   -0.4830   -1.2330 o         1 AJ6     -0.306000
     11 N6         -0.4220   -0.3560    1.0300 n         1 AJ6     -0.269000
     12 C9         -0.6900   -0.2450    3.4550 c2        1 AJ6     -0.138000
     13 C11        -0.9700   -0.1220    5.8950 c2        1 AJ6      0.079000
     14 C12        -1.8330    1.0480    6.1950 c3        1 AJ6     -0.201000
     15 C14        -2.5010   -0.1110    8.2520 c2        1 AJ6     -0.267000
     16 N15        -3.3190   -0.0400    9.4640 n4        1 AJ6      0.005000
     17 C16        -1.6970   -1.2020    7.9640 c2        1 AJ6      0.083000
     18 C19         1.2880    0.2820    4.8610 c3        1 AJ6     -0.167000
     19 H1         -1.2000    1.9960    6.2180 hc        1 AJ6      0.217000
     20 H2          1.7760   -0.5030    5.5120 hc        1 AJ6      0.161500
     21 H3          3.9830    1.1290    2.2180 hc        1 AJ6      0.109000
     22 H4          4.3270   -0.5060    1.5200 hc        1 AJ6      0.109000
     23 H5          4.2040    0.9310    0.4160 hc        1 AJ6      0.109000
     24 H6          2.3450    0.0330   -0.9590 ha        1 AJ6      0.181000
     25 H7         -1.3970   -0.5560    0.9450 hn        1 AJ6      0.249000
     26 H8         -1.7570   -0.4970    3.3250 ha        1 AJ6      0.143000
     27 H9         -2.5510    1.2240    5.3280 hc        1 AJ6      0.217000
     28 H10        -3.9930   -0.8100    9.4900 hn        1 AJ6      0.259000
     29 H11        -3.8260    0.8620    9.4370 hn        1 AJ6      0.259000
     30 H12        -1.6250   -2.0890    8.6230 ha        1 AJ6      0.174000
     31 H13         1.3870    1.2660    5.4070 hc        1 AJ6      0.161500
     32 C1          3.7890    0.4600    1.3410 c3        1 AJ6     -0.196000
     33 H153       -2.7280   -0.0750   10.2990 hn        1 AJ6      0.259000
     34 CL          0.0230   -2.5590    6.4570 cl        1 AJ6      0.070000
@<TRIPOS>BOND
     1    1    9 1   
     2    1   10 1   
     3    1   11 1   
     4    2    7 1   
     5    2   11 1   
     6    2   12 1   
     7    3   12 1   
     8    3   13 1   
     9    3   18 1   
    10    4   14 1   
    11    4   15 1   
    12    5   13 1   
    13    5   17 1   
    14    5   34 1   
    15    6    7 1   
    16    6   18 1   
    17    7    8 1   
    18    8    9 1   
    19    8   32 1   
    20    9   24 1   
    21   11   25 1   
    22   12   26 1   
    23   13   14 1   
    24   14   19 1   
    25   14   27 1   
    26   15   16 1   
    27   15   17 1   
    28   16   28 1   
    29   16   29 1   
    30   16   33 1   
    31   17   30 1   
    32   18   20 1   
    33   18   31 1   
    34   21   32 1   
    35   22   32 1   
    36   23   32 1   
@<TRIPOS>SUBSTRUCTURE
     1 AJ6         1 TEMP              0 ****  ****    0 ROOT
