@<TRIPOS>MOLECULE
AJ6
   33    34     1     0     0
SMALL
bcc


@<TRIPOS>ATOM
      1 C4          0.1120    0.6180    0.5340 c2        1 AJ6      0.338000
      2 C8         -0.4050   -0.9770    2.3620 c2        1 AJ6      0.031000
      3 C10        -0.0290   -0.2240    4.8320 c2        1 AJ6      0.003000
      4 C13        -2.9200    0.8290    7.1090 c1        1 AJ6     -0.082000
      5 C17        -0.8320   -1.0990    7.0210 c2        1 AJ6     -0.042000
      6 C20         2.0090    0.4320    3.7710 c1        1 AJ6     -0.126000
      7 C21         2.3030    0.3880    2.6080 c1        1 AJ6     -0.139000
      8 C2          2.5290    0.2180    1.2300 c2        1 AJ6      0.060000
      9 C3          1.5270    0.2270    0.3290 c2        1 AJ6     -0.181000
     10 O5         -0.3570    1.5830   -0.1060 o         1 AJ6     -0.354000
     11 N6         -0.7840   -0.1140    1.3150 n         1 AJ6     -0.330000
     12 C9         -0.3400   -0.6340    3.6280 c1        1 AJ6     -0.188000
     13 C11        -0.9290   -0.2300    5.9800 c2        1 AJ6     -0.087000
     14 C12        -2.0110    0.7890    5.9840 c3        1 AJ6     -0.183000
     15 C14        -2.7160   -0.0850    8.2110 c2        1 AJ6     -0.017000
     16 N15        -3.5100    0.0880    9.3400 n3        1 AJ6     -0.315000
     17 C16        -1.7270   -1.0470    8.1450 c2        1 AJ6     -0.154000
     18 C19         1.3650    0.3390    5.0500 c3        1 AJ6     -0.013000
     19 H1         -1.5610    1.8270    5.9010 hc        1 AJ6      0.176000
     20 H2          1.9390   -0.3360    5.7450 hc        1 AJ6      0.124000
     21 H3          4.5620    0.8670    1.0550 hc        1 AJ6      0.094000
     22 H4          4.3530   -0.9060    1.3710 hc        1 AJ6      0.094000
     23 H5          4.0090   -0.2320   -0.2810 hc        1 AJ6      0.094000
     24 H6          1.7430    0.0360   -0.7380 ha        1 AJ6      0.160000
     25 H7         -1.6850    0.3100    1.4160 hn        1 AJ6      0.228000
     26 H8         -0.1830   -2.0140    2.0350 h4        1 AJ6      0.161000
     27 H9         -2.6460    0.6630    5.0530 hc        1 AJ6      0.176000
     28 H10        -3.6560   -0.7220    9.8970 hn        1 AJ6      0.199500
     29 H11        -4.3210    0.6470    9.1910 hn        1 AJ6      0.199500
     30 H12        -1.5850   -1.7930    8.9430 ha        1 AJ6      0.150000
     31 H13         1.2820    1.3500    5.5360 hc        1 AJ6      0.124000
     32 C1          3.9370   -0.0290    0.8150 c3        1 AJ6     -0.187000
     33 CL          0.3580   -2.3190    7.0700 cl        1 AJ6     -0.013000
@<TRIPOS>BOND
     1    1    9 1   
     2    1   10 1   
     3    1   11 1   
     4    2   11 1   
     5    2   12 1   
     6    2   26 1   
     7    3   12 1   
     8    3   13 1   
     9    3   18 1   
    10    4   14 1   
    11    4   15 1   
    12    5   13 1   
    13    5   17 1   
    14    5   33 1   
    15    6    7 1   
    16    6   18 1   
    17    7    8 1   
    18    8    9 1   
    19    8   32 1   
    20    9   24 1   
    21   11   25 1   
    22   13   14 1   
    23   14   19 1   
    24   14   27 1   
    25   15   16 1   
    26   15   17 1   
    27   16   28 1   
    28   16   29 1   
    29   17   30 1   
    30   18   20 1   
    31   18   31 1   
    32   21   32 1   
    33   22   32 1   
    34   23   32 1   
@<TRIPOS>SUBSTRUCTURE
     1 AJ6         1 TEMP              0 ****  ****    0 ROOT
