@<TRIPOS>MOLECULE
AJ6
   33    27     1     0     0
SMALL
bcc


@<TRIPOS>ATOM
      1 C4         -0.4180   -0.4960   -4.5100 c1        1 AJ6      0.333000
      2 C8         -0.3110   -0.3960   -1.9600 c1        1 AJ6      0.106000
      3 C10        -0.2450   -0.3100    0.4550 c1        1 AJ6      0.024000
      4 C13        -1.6340   -0.5370    3.9720 c1        1 AJ6     -0.132000
      5 C17        -0.8580    1.4210    2.1690 c1        1 AJ6     -0.003000
      6 C20         1.8240   -0.4230   -0.8040 c1        1 AJ6     -0.076000
      7 C21         1.0950   -0.4430   -1.9960 c1        1 AJ6     -0.119000
      8 C1          3.3250   -0.5300   -3.3610 c3        1 AJ6     -0.192000
      9 C2          1.8140   -0.5200   -3.3200 c2        1 AJ6      0.019000
     10 C3          1.0550   -0.5460   -4.5540 c2        1 AJ6     -0.222000
     11 O5         -1.0580   -0.5420   -5.5400 o         1 AJ6     -0.362000
     12 N6         -1.1000   -0.4220   -3.2400 n2        1 AJ6     -0.299000
     13 C9         -0.9750   -0.3300   -0.7330 c1        1 AJ6     -0.168000
     14 C11        -0.7780    0.0830    1.8160 c1        1 AJ6     -0.093000
     15 C12        -1.1660   -0.8960    2.7180 c1        1 AJ6     -0.132000
     16 C14        -1.7140    0.8010    4.3250 c1        1 AJ6      0.084000
     17 N15        -2.1990    1.1680    5.6060 n2        1 AJ6     -0.334000
     18 C16        -1.3260    1.7790    3.4230 c1        1 AJ6     -0.200000
     19 CL         -0.3640    2.8770    1.3500 cl        1 AJ6     -0.010000
     20 C19         1.1580   -0.3570    0.4200 c2        1 AJ6     -0.158000
     21 H1         -1.9070   -1.2260    4.6060 ha        1 AJ6      0.140000
     22 H2          2.7990   -0.4560   -0.8280 ha        1 AJ6      0.137000
     23 H3          3.6270   -0.4790   -4.2910 hc        1 AJ6      0.093333
     24 H4          3.6580   -1.3580   -2.9540 hc        1 AJ6      0.093333
     25 H5          3.6700    0.2400   -2.8630 hc        1 AJ6      0.093333
     26 H6          1.5180   -0.5290   -5.4130 ha        1 AJ6      0.163000
     27 H7         -2.0100   -0.3910   -3.2140 hn        1 AJ6      0.247000
     28 H8         -1.9490   -0.2930   -0.7080 ha        1 AJ6      0.148000
     29 H9         -1.1100   -1.8380    2.4690 ha        1 AJ6      0.140000
     30 H10        -2.3560    2.0470    5.8000 hn        1 AJ6      0.195000
     31 H11        -2.3510    0.5260    6.2380 hn        1 AJ6      0.195000
     32 H12        -1.3820    2.7220    3.6720 ha        1 AJ6      0.149000
     33 H13         1.6670   -0.3430    1.2520 ha        1 AJ6      0.140000
@<TRIPOS>BOND
     1    1   10 1   
     2    1   11 1   
     3    2    7 1   
     4    2   12 1   
     5    3   13 1   
     6    3   20 1   
     7    4   15 1   
     8    4   21 1   
     9    5   14 1   
    10    5   19 1   
    11    6   20 1   
    12    6   22 1   
    13    7    9 1   
    14    8    9 1   
    15    8   23 1   
    16    8   24 1   
    17    8   25 1   
    18    9   10 1   
    19   10   26 1   
    20   12   27 1   
    21   13   28 1   
    22   15   29 1   
    23   16   18 1   
    24   17   30 1   
    25   17   31 1   
    26   18   32 1   
    27   20   33 1   
@<TRIPOS>SUBSTRUCTURE
     1 AJ6         1 TEMP              0 ****  ****    0 ROOT
