@<TRIPOS>MOLECULE
AJ6
   33    35     1     0     0
SMALL
bcc


@<TRIPOS>ATOM
      1 C4          4.1870    1.3800   -0.5400 c         1 AJ6      0.695700
      2 C8          1.8980    0.6390   -0.1270 ca        1 AJ6      0.096600
      3 C10        -0.4040   -0.0610    0.2630 cp        1 AJ6      0.025000
      4 C13        -3.6720    1.6780    0.9020 ca        1 AJ6     -0.197000
      5 C17        -2.7580   -0.5720   -0.4720 ca        1 AJ6      0.076400
      6 C20         1.4190   -1.5440    0.8400 ca        1 AJ6     -0.076000
      7 C21         2.3620   -0.6030    0.3940 ca        1 AJ6     -0.129800
      8 C2          3.7900   -0.8470    0.4440 cc        1 AJ6      0.027600
      9 C3          4.6540    0.0990   -0.0010 cd        1 AJ6     -0.241200
     10 O5          4.9360    2.2830   -0.9620 o         1 AJ6     -0.637500
     11 N6          2.8030    1.5920   -0.5760 n         1 AJ6     -0.446100
     12 C9          0.5030    0.8930   -0.1800 ca        1 AJ6     -0.178000
     13 C11        -1.8390    0.2290    0.2210 cp        1 AJ6     -0.093000
     14 C12        -2.3240    1.3590    0.8970 ca        1 AJ6     -0.068000
     15 C14        -4.6040    0.8600    0.2180 ca        1 AJ6      0.165600
     16 N15        -5.9710    1.1170    0.2930 nh        1 AJ6     -0.825200
     17 C16        -4.1190   -0.2680   -0.4820 ca        1 AJ6     -0.200000
     18 C19         0.0610   -1.2860    0.7790 ca        1 AJ6     -0.148000
     19 H1         -4.0160    2.5670    1.4520 ha        1 AJ6      0.138000
     20 H2          1.7710   -2.5060    1.2460 ha        1 AJ6      0.138000
     21 H3          3.8810   -2.9870    0.3780 hc        1 AJ6      0.054367
     22 H4          5.3990   -2.1840    0.9600 hc        1 AJ6      0.054367
     23 H5          3.9460   -2.2650    2.0430 hc        1 AJ6      0.054367
     24 H6          5.7460   -0.0330    0.0130 ha        1 AJ6      0.163000
     25 H7          2.4580    2.4500   -0.9440 hn        1 AJ6      0.331500
     26 H8          0.1320    1.8490   -0.5810 ha        1 AJ6      0.142000
     27 H9         -1.6110    2.0020    1.4380 ha        1 AJ6      0.142000
     28 H10        -6.5210    0.7100   -0.4290 hn        1 AJ6      0.399800
     29 H11        -6.2140    2.0560    0.5110 hn        1 AJ6      0.399800
     30 H12        -4.8160   -0.9180   -1.0340 ha        1 AJ6      0.149000
     31 H13        -0.6630   -2.0360    1.1310 ha        1 AJ6      0.146000
     32 C1          4.2830   -2.1370    0.9840 c3        1 AJ6     -0.070900
     33 CL         -2.2470   -1.9380   -1.3520 cl        1 AJ6     -0.088400
@<TRIPOS>BOND
     1    1    9 1   
     2    1   10 2   
     3    1   11 1   
     4    2    7 ar  
     5    2   11 1   
     6    2   12 ar  
     7    3   12 ar  
     8    3   13 1   
     9    3   18 ar  
    10    4   14 ar  
    11    4   15 ar  
    12    4   19 1   
    13    5   13 ar  
    14    5   17 ar  
    15    5   33 1   
    16    6    7 ar  
    17    6   18 ar  
    18    6   20 1   
    19    7    8 1   
    20    8    9 2   
    21    8   32 1   
    22    9   24 1   
    23   11   25 1   
    24   12   26 1   
    25   13   14 ar  
    26   14   27 1   
    27   15   16 1   
    28   15   17 ar  
    29   16   28 1   
    30   16   29 1   
    31   17   30 1   
    32   18   31 1   
    33   21   32 1   
    34   22   32 1   
    35   23   32 1   
@<TRIPOS>SUBSTRUCTURE
     1 AJ6         1 TEMP              0 ****  ****    0 ROOT
