@<TRIPOS>MOLECULE
AJ6
   33    34     1     0     0
SMALL
bcc


@<TRIPOS>ATOM
      1 C4          0.0960    0.6400    0.5380 c2        1 AJ6      0.338000
      2 C8         -0.4150   -0.9640    2.3580 c2        1 AJ6      0.031000
      3 C10        -0.0260   -0.2270    4.8320 c2        1 AJ6      0.003000
      4 C13        -2.9040    0.8170    7.1280 c1        1 AJ6     -0.082000
      5 C17        -0.8220   -1.1150    7.0180 c2        1 AJ6     -0.042000
      6 C20         2.0070    0.4320    3.7640 c1        1 AJ6     -0.126000
      7 C21         2.2960    0.3940    2.6000 c1        1 AJ6     -0.139000
      8 C2          2.5150    0.2330    1.2190 c2        1 AJ6      0.060000
      9 C3          1.5100    0.2480    0.3240 c2        1 AJ6     -0.181000
     10 O5         -0.3750    1.6090   -0.0940 o         1 AJ6     -0.354000
     11 N6         -0.7980   -0.0950    1.3180 ns        1 AJ6     -0.330000
     12 C9         -0.3440   -0.6290    3.6260 c1        1 AJ6     -0.188000
     13 C11        -0.9210   -0.2380    5.9830 c2        1 AJ6     -0.087000
     14 C12        -2.0020    0.7820    5.9990 c3        1 AJ6     -0.183000
     15 C14        -2.6980   -0.1050    8.2240 c2        1 AJ6     -0.017000
     16 N15        -3.4860    0.0620    9.3580 n8        1 AJ6     -0.315000
     17 C16        -1.7100   -1.0680    8.1460 c2        1 AJ6     -0.154000
     18 C19         1.3690    0.3320    5.0460 c3        1 AJ6     -0.013000
     19 H1         -1.5490    1.8200    5.9210 hc        1 AJ6      0.176000
     20 H2          1.9450   -0.3470    5.7340 hc        1 AJ6      0.124000
     21 H3          4.5490    0.8790    1.0390 hc        1 AJ6      0.094000
     22 H4          4.3380   -0.8960    1.3460 hc        1 AJ6      0.094000
     23 H5          3.9880   -0.2110   -0.3000 hc        1 AJ6      0.094000
     24 H6          1.7200    0.0630   -0.7460 ha        1 AJ6      0.160000
     25 H7         -1.6980    0.3310    1.4260 hn        1 AJ6      0.228000
     26 H8         -0.1960   -2.0000    2.0240 h4        1 AJ6      0.161000
     27 H9         -2.6400    0.6630    5.0700 hc        1 AJ6      0.176000
     28 H10        -3.6310   -0.7510    9.9090 hn        1 AJ6      0.199500
     29 H11        -4.2960    0.6240    9.2150 hn        1 AJ6      0.199500
     30 H12        -1.5670   -1.8200    8.9390 ha        1 AJ6      0.150000
     31 H13         1.2900    1.3400    5.5390 hc        1 AJ6      0.124000
     32 C1          3.9210   -0.0150    0.7970 c3        1 AJ6     -0.187000
     33 Cl          0.3660   -2.3370    7.0530 cl        1 AJ6     -0.013000
@<TRIPOS>BOND
     1    1    9 1   
     2    1   10 1   
     3    1   11 1   
     4    2   11 1   
     5    2   12 1   
     6    2   26 1   
     7    3   12 1   
     8    3   13 1   
     9    3   18 1   
    10    4   14 1   
    11    4   15 1   
    12    5   13 1   
    13    5   17 1   
    14    5   33 1   
    15    6    7 1   
    16    6   18 1   
    17    7    8 1   
    18    8    9 1   
    19    8   32 1   
    20    9   24 1   
    21   11   25 1   
    22   13   14 1   
    23   14   19 1   
    24   14   27 1   
    25   15   16 1   
    26   15   17 1   
    27   16   28 1   
    28   16   29 1   
    29   17   30 1   
    30   18   20 1   
    31   18   31 1   
    32   21   32 1   
    33   22   32 1   
    34   23   32 1   
@<TRIPOS>SUBSTRUCTURE
     1 AJ6         1 TEMP              0 ****  ****    0 ROOT
