@<TRIPOS>MOLECULE
AJ7
   55    56     1     0     0
SMALL
bcc


@<TRIPOS>ATOM
      1 C4          1.1340    0.3670   -1.4640 c1        1 AJ7      0.306000
      2 C8          0.3000    1.3470    2.5480 ca        1 AJ7      0.057000
      3 C10         0.2380    0.4180    4.8350 ca        1 AJ7     -0.077000
      4 C13        -1.1940    1.5150    8.2160 c1        1 AJ7     -0.074000
      5 C15        -2.0890    0.2410   10.1000 c2        1 AJ7      0.290000
      6 C21        -4.9600   -3.4890   14.7590 c3        1 AJ7     -0.123500
      7 C22        -6.4170   -3.2700   15.2020 c3        1 AJ7     -0.041500
      8 C24        -6.1920   -0.9290   15.0770 c3        1 AJ7     -0.041500
      9 C26        -1.2560   -0.9230    8.0670 c2        1 AJ7      0.088000
     10 C2          1.5180   -0.1000    0.9030 c2        1 AJ7      0.072000
     11 C3          0.7150    0.3470   -0.2070 c2        1 AJ7     -0.371000
     12 O5          1.4790    0.4300   -2.5960 o         1 AJ7     -0.110000
     13 N6          0.0130    2.4030    1.8630 n2        1 AJ7     -0.221000
     14 C9         -0.3360    1.1810    3.8740 ca        1 AJ7     -0.073000
     15 C11        -0.3540    0.3040    6.1640 c2        1 AJ7      0.067000
     16 C12        -0.5990    1.5770    6.8960 c3        1 AJ7     -0.213000
     17 C14        -1.4990    0.2420    8.7620 c2        1 AJ7     -0.303000
     18 O16        -2.4290   -0.7880   10.7110 o         1 AJ7     -0.440000
     19 N17        -2.4570   -3.6170   11.1180 n8        1 AJ7     -0.320000
     20 C18        -3.2950   -3.7370   12.2610 c3        1 AJ7     -0.070000
     21 C19        -3.6870   -2.4390   12.9490 c2        1 AJ7      0.040000
     22 N20        -4.4140   -2.3400   14.0320 n3        1 AJ7     -0.077000
     23 O23        -6.5600   -2.0350   15.8870 os        1 AJ7     -0.231000
     24 C25        -4.7220   -1.0390   14.6410 c3        1 AJ7     -0.123500
     25 C27        -0.6810   -0.8890    6.7570 c2        1 AJ7     -0.164000
     26 Cl         -0.4580   -2.3860    5.9860 cl        1 AJ7      0.021000
     27 C29         1.4740   -0.2900    4.5600 ca        1 AJ7     -0.148000
     28 C30         1.9640   -0.3360    3.3040 ca        1 AJ7     -0.075000
     29 C31         1.2770    0.2900    2.1890 ca        1 AJ7     -0.162000
     30 H1          0.3850    2.1360    7.0040 hc        1 AJ7      0.192500
     31 H4         -7.1120   -3.3130   14.3230 h1        1 AJ7      0.131000
     32 H5         -6.6980   -4.0510   15.9600 h1        1 AJ7      0.131000
     33 H6         -6.8710   -0.8500   14.1880 h1        1 AJ7      0.131000
     34 H7         -6.3160   -0.0330   15.7440 h1        1 AJ7      0.131000
     35 H8         -1.5080   -1.9060    8.5080 ha        1 AJ7      0.152000
     36 H12        -0.3390    0.6260   -0.0280 ha        1 AJ7      0.196000
     37 H13         0.4970    2.5010    0.9940 hn        1 AJ7      0.156000
     38 H14        -1.2810    1.7230    4.0450 ha        1 AJ7      0.150000
     39 H15        -1.2450    2.2590    6.2580 hc        1 AJ7      0.192500
     40 H16        -2.2220    1.2500   10.5540 h4        1 AJ7      0.132000
     41 H17        -2.8780   -3.0870   10.3780 hn        1 AJ7      0.183500
     42 H18        -4.2520   -4.2590   11.9480 h1        1 AJ7      0.142500
     43 H19        -2.7740   -4.3930   13.0230 h1        1 AJ7      0.142500
     44 H20        -3.3110   -1.4900   12.4790 h4        1 AJ7      0.228000
     45 H21        -4.4860   -0.2090   13.9170 h1        1 AJ7      0.144000
     46 H22        -4.0570   -0.9360   15.5480 h1        1 AJ7      0.144000
     47 H23         1.9840   -0.7850    5.3980 ha        1 AJ7      0.141000
     48 H24         2.8980   -0.8820    3.0890 ha        1 AJ7      0.139000
     49 C1          2.6060   -1.0690    0.5940 c3        1 AJ7     -0.208000
     50 H2         -4.9080   -4.4130   14.1180 h1        1 AJ7      0.144000
     51 H9          2.3950   -2.0540    1.0820 hc        1 AJ7      0.097333
     52 H10         2.7070   -1.2450   -0.5050 hc        1 AJ7      0.097333
     53 H11         3.5880   -0.6890    0.9770 hc        1 AJ7      0.097333
     54 H172       -1.5560   -3.2390   11.3330 hn        1 AJ7      0.183500
     55 H3         -4.3140   -3.6390   15.6730 h1        1 AJ7      0.144000
@<TRIPOS>BOND
     1    1   11 1   
     2    1   12 1   
     3    2   13 1   
     4    2   14 1   
     5    2   29 1   
     6    3   14 1   
     7    3   15 1   
     8    3   27 1   
     9    4   16 1   
    10    4   17 1   
    11    5   17 1   
    12    5   18 1   
    13    5   40 1   
    14    6    7 1   
    15    6   22 1   
    16    6   50 1   
    17    6   55 1   
    18    7   23 1   
    19    7   31 1   
    20    7   32 1   
    21    8   23 1   
    22    8   24 1   
    23    8   33 1   
    24    8   34 1   
    25    9   17 1   
    26    9   25 1   
    27    9   35 1   
    28   10   11 1   
    29   10   29 1   
    30   10   49 1   
    31   11   36 1   
    32   13   37 1   
    33   14   38 1   
    34   15   16 1   
    35   15   25 1   
    36   16   30 1   
    37   16   39 1   
    38   19   20 1   
    39   19   41 1   
    40   19   54 1   
    41   20   21 1   
    42   20   42 1   
    43   20   43 1   
    44   21   22 1   
    45   21   44 1   
    46   22   24 1   
    47   24   45 1   
    48   24   46 1   
    49   25   26 1   
    50   27   28 1   
    51   27   47 1   
    52   28   29 1   
    53   28   48 1   
    54   49   51 1   
    55   49   52 1   
    56   49   53 1   
@<TRIPOS>SUBSTRUCTURE
     1 AJ7         1 TEMP              0 ****  ****    0 ROOT
