@<TRIPOS>MOLECULE
AJ7
   54    53     1     0     0
SMALL
bcc


@<TRIPOS>ATOM
      1 C4          2.2380   -0.1320   -0.8590 c1        1 AJ7      0.293000
      2 C8         -0.1220    0.3620    2.5820 ca        1 AJ7      0.059000
      3 C10        -0.1840   -0.0630    5.0110 ca        1 AJ7     -0.055000
      4 C13        -2.8160    0.0180    7.7980 c1        1 AJ7     -0.100000
      5 C15        -3.0560   -1.3850    9.8620 c2        1 AJ7      0.362000
      6 C21        -4.3400   -1.5400   15.2670 c2        1 AJ7     -0.028500
      7 C22        -4.9850   -0.3700   15.1340 c2        1 AJ7     -0.311500
      8 C24        -1.6930   -2.6670   13.6830 c2        1 AJ7      0.153000
      9 C26        -1.2020   -1.7490    8.2740 c2        1 AJ7      0.066000
     10 C2          2.1560    0.0760    1.5740 c2        1 AJ7      0.048000
     11 C3          1.6230   -0.3320    0.2950 c2        1 AJ7     -0.359000
     12 O5          2.7420    0.0540   -1.9170 o         1 AJ7     -0.127000
     13 N6         -0.8320    0.7920    1.5920 n2        1 AJ7     -0.226000
     14 C9         -0.8160   -0.0720    3.8140 ca        1 AJ7     -0.091000
     15 C11        -0.8780   -0.4340    6.2430 c2        1 AJ7      0.008000
     16 C12        -2.0930    0.3570    6.5860 c3        1 AJ7     -0.196000
     17 C14        -2.3270   -1.0360    8.6080 c2        1 AJ7     -0.225000
     18 O16        -2.6510   -2.3040   10.6180 o         1 AJ7     -0.441000
     19 N17        -4.1820   -0.6780   10.1690 n         1 AJ7     -0.408000
     20 C18        -6.0110   -2.0690   12.7870 c2        1 AJ7     -0.311500
     21 C19        -4.7700   -2.5150   13.0490 c2        1 AJ7     -0.028500
     22 N20        -4.1270   -2.5230   14.2930 n3        1 AJ7     -0.235000
     23 O23        -0.5590   -2.8110   14.1400 o         1 AJ7     -0.294000
     24 C25        -2.8970   -3.2770   14.3840 c3        1 AJ7     -0.094000
     25 C27        -0.4740   -1.4400    7.0720 c2        1 AJ7     -0.132000
     26 CL          0.8870   -2.4040    6.7430 cl        1 AJ7      0.009000
     27 C29         1.2080    0.3400    5.0970 ca        1 AJ7     -0.130000
     28 C30         1.9310    0.5300    3.9740 ca        1 AJ7     -0.096000
     29 C31         1.3610    0.3210    2.6540 ca        1 AJ7     -0.141000
     30 H1         -1.8100    1.4520    6.6690 hc        1 AJ7      0.178500
     31 H3         -9.3440   -1.8000   12.2110 ha        1 AJ7     -0.000500
     32 H4         -3.9160   -1.8270   16.2520 h4        1 AJ7      0.144500
     33 H5         -5.1220    0.2840   16.0030 ha        1 AJ7      0.122750
     34 H6         -5.4060    0.0000   14.1940 ha        1 AJ7      0.122750
     35 H7         -1.8920   -2.1280   12.7300 h4        1 AJ7      0.133000
     36 H8         -0.8410   -2.5710    8.9230 ha        1 AJ7      0.180000
     37 H12         0.6800   -0.9060    0.2720 ha        1 AJ7      0.196000
     38 H13        -0.3150    1.1140    0.8000 hn        1 AJ7      0.150000
     39 H14        -1.8700   -0.3770    3.7130 ha        1 AJ7      0.152000
     40 H15        -2.8280    0.3030    5.7250 hc        1 AJ7      0.178500
     41 H16        -4.4850    0.0510    9.5690 hn        1 AJ7      0.243500
     42 H17        -4.6830   -0.8840   11.0000 hn        1 AJ7      0.243500
     43 H18        -6.4330   -2.1790   11.7810 ha        1 AJ7      0.122750
     44 H19        -6.6760   -1.6150   13.5300 ha        1 AJ7      0.122750
     45 H20        -4.1670   -2.9820   12.2360 h4        1 AJ7      0.144500
     46 H21        -3.0630   -4.2900   13.9130 h1        1 AJ7      0.118500
     47 H22        -2.6490   -3.4420   15.4720 h1        1 AJ7      0.118500
     48 H23         1.6450    0.4700    6.0980 ha        1 AJ7      0.144000
     49 H24         2.9910    0.8250    4.0340 ha        1 AJ7      0.136000
     50 C1          3.6380    0.1610    1.6840 c3        1 AJ7     -0.202000
     51 H2         -8.6820   -1.8600   12.3410 ha        1 AJ7     -0.000500
     52 H9          4.0140   -0.6010    2.4130 hc        1 AJ7      0.093667
     53 H10         3.9460    1.1750    2.0440 hc        1 AJ7      0.093667
     54 H11         4.1380   -0.0270    0.7020 hc        1 AJ7      0.093667
@<TRIPOS>BOND
     1    1   11 1   
     2    1   12 1   
     3    2   13 1   
     4    2   14 1   
     5    2   29 1   
     6    3   14 1   
     7    3   15 1   
     8    3   27 1   
     9    4   16 1   
    10    4   17 1   
    11    5   17 1   
    12    5   18 1   
    13    5   19 1   
    14    6    7 1   
    15    6   22 1   
    16    6   32 1   
    17    7   33 1   
    18    7   34 1   
    19    8   23 1   
    20    8   24 1   
    21    8   35 1   
    22    9   17 1   
    23    9   25 1   
    24    9   36 1   
    25   10   11 1   
    26   10   29 1   
    27   10   50 1   
    28   11   37 1   
    29   13   38 1   
    30   14   39 1   
    31   15   16 1   
    32   15   25 1   
    33   16   30 1   
    34   16   40 1   
    35   19   41 1   
    36   19   42 1   
    37   20   21 1   
    38   20   43 1   
    39   20   44 1   
    40   21   22 1   
    41   21   45 1   
    42   22   24 1   
    43   24   46 1   
    44   24   47 1   
    45   25   26 1   
    46   27   28 1   
    47   27   48 1   
    48   28   29 1   
    49   28   49 1   
    50   31   51 1   
    51   50   52 1   
    52   50   53 1   
    53   50   54 1   
@<TRIPOS>SUBSTRUCTURE
     1 AJ7         1 TEMP              0 ****  ****    0 ROOT
