@<TRIPOS>MOLECULE
AJ7
   54    49     1     0     0
SMALL
bcc


@<TRIPOS>ATOM
      1 C4          4.2790    3.0520   -6.5340 c1        1 AJ7      0.333000
      2 C8          2.5540    1.7980   -5.1090 c1        1 AJ7      0.106000
      3 C10         0.9060    0.6660   -3.7220 c1        1 AJ7      0.002000
      4 C13        -1.3170    1.1070   -0.6460 c1        1 AJ7     -0.079000
      5 C15        -1.7170    0.1180    1.4640 c1        1 AJ7      0.341000
      6 C21        -2.5560   -2.3810    6.8720 c3        1 AJ7     -0.102500
      7 C22        -2.6790   -2.0360    8.3380 c3        1 AJ7     -0.039000
      8 C24        -0.5710   -1.2070    8.3370 c3        1 AJ7     -0.039000
      9 C26         0.0190   -0.8830   -0.3420 c1        1 AJ7     -0.106000
     10 C1          1.5740    1.4180   -8.8960 c3        1 AJ7     -0.193000
     11 C2          2.3220    1.8730   -7.6300 c2        1 AJ7      0.017000
     12 C3          3.5300    2.6720   -7.7460 c1        1 AJ7     -0.217000
     13 O5          5.2900    3.7190   -6.6280 o         1 AJ7     -0.356000
     14 N6          3.8100    2.6290   -5.2300 n2        1 AJ7     -0.300000
     15 C9          2.0880    1.4140   -3.8390 c2        1 AJ7     -0.161000
     16 C11         0.1790    0.3800   -2.3960 c2        1 AJ7     -0.018000
     17 C12        -0.7660    1.2860   -1.9120 c2        1 AJ7     -0.116000
     18 C14        -0.9240    0.0210    0.1410 c1        1 AJ7     -0.107000
     19 O16        -2.5050    1.0370    1.6370 o         1 AJ7     -0.353000
     20 N17        -1.6100   -0.9380    2.4480 n3        1 AJ7     -0.376000
     21 C18        -2.1810   -0.7670    3.7470 c3        1 AJ7     -0.030000
     22 C19        -1.5600   -1.7910    4.7150 c3        1 AJ7     -0.091000
     23 N20        -1.7360   -1.3390    6.0800 n3        1 AJ7     -0.253000
     24 O23        -1.7800   -1.2160    8.6950 os        1 AJ7     -0.278000
     25 C25        -0.4300   -1.5450    6.8640 c3        1 AJ7     -0.102500
     26 C27         0.5700   -0.7040   -1.6090 c1        1 AJ7     -0.058000
     27 CL          1.7290   -1.8590   -2.2280 cl        1 AJ7     -0.000000
     28 C29         0.1870    0.3000   -4.8740 c1        1 AJ7     -0.114000
     29 C30         0.6490    0.6810   -6.1410 c1        1 AJ7     -0.114000
     30 C31         1.8350    1.4320   -6.2610 c1        1 AJ7     -0.112000
     31 H1         -1.9800    1.7440   -0.3060 ha        1 AJ7      0.163000
     32 H2         -2.1250   -3.2470    6.7890 h1        1 AJ7      0.093250
     33 H3         -3.4520   -2.4370    6.4850 h1        1 AJ7      0.093250
     34 H4         -3.5560   -1.6390    8.5000 h1        1 AJ7      0.090500
     35 H5         -2.5960   -2.8470    8.8620 h1        1 AJ7      0.090500
     36 H6         -0.1930   -0.3130    8.4990 h1        1 AJ7      0.090500
     37 H7         -0.0740   -1.8670    8.8660 h1        1 AJ7      0.090500
     38 H8          0.2970   -1.6500    0.2140 ha        1 AJ7      0.148000
     39 H9          0.6710    1.8280   -8.9130 hc        1 AJ7      0.094667
     40 H10         2.0810    1.7030   -9.6980 hc        1 AJ7      0.094667
     41 H11         1.4890    0.4400   -8.8930 hc        1 AJ7      0.094667
     42 H12         3.8100    3.0100   -8.6190 ha        1 AJ7      0.165000
     43 H13         4.2630    2.8590   -4.4990 hn        1 AJ7      0.248000
     44 H14         2.5540    1.7080   -3.0460 ha        1 AJ7      0.148000
     45 H15        -1.0440    2.0520   -2.4670 ha        1 AJ7      0.150000
     46 H16        -1.2300   -1.7520    2.2140 hn        1 AJ7      0.222000
     47 H17        -3.1300   -0.9060    3.7000 h1        1 AJ7      0.110500
     48 H18        -1.9960    0.1590    4.0760 h1        1 AJ7      0.110500
     49 H19        -1.9920   -2.6420    4.6000 h1        1 AJ7      0.076500
     50 H20        -0.5930   -1.8820    4.5200 h1        1 AJ7      0.076500
     51 H21         0.2600   -0.9800    6.4780 h1        1 AJ7      0.093250
     52 H22        -0.1580   -2.4780    6.7800 h1        1 AJ7      0.093250
     53 H23        -0.6410   -0.2230   -4.7910 ha        1 AJ7      0.141000
     54 H24         0.1470    0.4250   -6.9430 ha        1 AJ7      0.141000
@<TRIPOS>BOND
     1    1   13 1   
     2    1   14 1   
     3    2   15 1   
     4    2   30 1   
     5    3   15 1   
     6    3   16 1   
     7    4   17 1   
     8    4   31 1   
     9    5   19 1   
    10    5   20 1   
    11    6    7 1   
    12    6   23 1   
    13    6   32 1   
    14    6   33 1   
    15    7   24 1   
    16    7   34 1   
    17    7   35 1   
    18    8   24 1   
    19    8   25 1   
    20    8   36 1   
    21    8   37 1   
    22    9   18 1   
    23    9   38 1   
    24   10   11 1   
    25   10   39 1   
    26   10   40 1   
    27   10   41 1   
    28   11   12 1   
    29   11   30 1   
    30   12   42 1   
    31   14   43 1   
    32   15   44 1   
    33   16   17 1   
    34   16   26 1   
    35   17   45 1   
    36   20   21 1   
    37   20   46 1   
    38   21   22 1   
    39   21   47 1   
    40   21   48 1   
    41   22   23 1   
    42   22   49 1   
    43   22   50 1   
    44   23   25 1   
    45   25   51 1   
    46   25   52 1   
    47   28   29 1   
    48   28   53 1   
    49   29   54 1   
@<TRIPOS>SUBSTRUCTURE
     1 AJ7         1 TEMP              0 ****  ****    0 ROOT
