@<TRIPOS>MOLECULE
AJ7
   54    57     1     0     0
SMALL
bcc


@<TRIPOS>ATOM
      1 C4          7.4790   -0.9620    1.3720 c         1 AJ7      0.694700
      2 C8          5.2610   -0.4070    0.5170 ca        1 AJ7      0.097600
      3 C10         3.0290    0.1180   -0.3050 cp        1 AJ7      0.003000
      4 C13        -0.2170   -1.7300   -0.7170 ca        1 AJ7     -0.079000
      5 C15        -2.6040   -1.1170   -0.4250 c         1 AJ7      0.667700
      6 C21        -7.6620   -0.9890    0.1260 c3        1 AJ7      0.130300
      7 C22        -9.1920   -0.9790    0.0420 c3        1 AJ7      0.126400
      8 C24        -9.2640    1.2540    0.7990 c3        1 AJ7      0.126400
      9 C26        -0.7320    0.5250   -0.0040 ca        1 AJ7     -0.106000
     10 C2          7.2370    0.8330   -0.3020 cc        1 AJ7      0.024600
     11 C3          8.0290    0.0850    0.5040 cd        1 AJ7     -0.236200
     12 O5          8.1600   -1.6770    2.1320 o         1 AJ7     -0.631500
     13 N6          6.0930   -1.1610    1.3340 n         1 AJ7     -0.446100
     14 C9          3.8610   -0.6420    0.5070 ca        1 AJ7     -0.170000
     15 C11         1.5880   -0.1520   -0.3170 cp        1 AJ7     -0.019000
     16 C12         1.1410   -1.4310   -0.6820 ca        1 AJ7     -0.117000
     17 C14        -1.1570   -0.7480   -0.3870 ca        1 AJ7     -0.126600
     18 O16        -2.9920   -2.2450   -0.0600 o         1 AJ7     -0.597100
     19 N17        -3.4830   -0.1810   -0.9360 n         1 AJ7     -0.564900
     20 C18        -4.9030   -0.3860   -0.9530 c3        1 AJ7      0.085000
     21 C19        -5.6390    0.3510    0.1930 c3        1 AJ7      0.142800
     22 N20        -7.0850    0.3460    0.0140 n3        1 AJ7     -0.724600
     23 O23        -9.7670   -0.0650    0.9690 os        1 AJ7     -0.414600
     24 C25        -7.7360    1.2970    0.9100 c3        1 AJ7      0.130300
     25 C27         0.6360    0.8210    0.0310 ca        1 AJ7      0.021400
     26 CL          1.1060    2.3780    0.5250 cl        1 AJ7     -0.077400
     27 C29         3.5710    1.1190   -1.1320 ca        1 AJ7     -0.146000
     28 C30         4.9350    1.3530   -1.1350 ca        1 AJ7     -0.075000
     29 C31         5.8050    0.6080   -0.3220 ca        1 AJ7     -0.123800
     30 H1         -0.5630   -2.7400   -0.9920 ha        1 AJ7      0.163000
     31 H3         -7.2660   -1.6060   -0.7280 h1        1 AJ7      0.042950
     32 H4         -9.5310   -0.7230   -0.9960 h1        1 AJ7      0.054450
     33 H5         -9.6010   -1.9780    0.3460 h1        1 AJ7      0.054450
     34 H6         -9.6010    1.6610   -0.1910 h1        1 AJ7      0.054450
     35 H7         -9.7270    1.8410    1.6350 h1        1 AJ7      0.054450
     36 H8         -1.4580    1.2970    0.2930 ha        1 AJ7      0.149000
     37 H12         9.1200    0.2120    0.5590 ha        1 AJ7      0.165000
     38 H13         5.6920   -1.8610    1.9190 hn        1 AJ7      0.333500
     39 H14         3.4290   -1.4250    1.1490 ha        1 AJ7      0.145000
     40 H15         1.8810   -2.2030   -0.9450 ha        1 AJ7      0.150000
     41 H16        -3.1500    0.7300   -1.1410 hn        1 AJ7      0.310500
     42 H17        -5.2950   -0.0190   -1.9450 h1        1 AJ7      0.071700
     43 H18        -5.1070   -1.4920   -0.8740 h1        1 AJ7      0.071700
     44 H19        -5.3340   -0.1150    1.1750 h1        1 AJ7      0.037200
     45 H20        -5.3070    1.4280    0.2090 h1        1 AJ7      0.037200
     46 H21        -7.3870    2.3290    0.6280 h1        1 AJ7      0.042950
     47 H22        -7.4520    1.1140    1.9870 h1        1 AJ7      0.042950
     48 H23         2.9050    1.7150   -1.7730 ha        1 AJ7      0.146000
     49 H24         5.3490    2.1380   -1.7880 ha        1 AJ7      0.140000
     50 C1          7.8130    1.8880   -1.1720 c3        1 AJ7     -0.070900
     51 H2         -7.3590   -1.4930    1.0900 h1        1 AJ7      0.042950
     52 H9          7.3760    2.8840   -0.9110 hc        1 AJ7      0.055033
     53 H10         8.9230    1.9480   -1.0530 hc        1 AJ7      0.055033
     54 H11         7.5850    1.6700   -2.2460 hc        1 AJ7      0.055033
@<TRIPOS>BOND
     1    1   11 1   
     2    1   12 2   
     3    1   13 1   
     4    2   13 1   
     5    2   14 ar  
     6    2   29 ar  
     7    3   14 ar  
     8    3   15 1   
     9    3   27 ar  
    10    4   16 ar  
    11    4   17 ar  
    12    4   30 1   
    13    5   17 1   
    14    5   18 2   
    15    5   19 1   
    16    6    7 1   
    17    6   22 1   
    18    6   31 1   
    19    6   51 1   
    20    7   23 1   
    21    7   32 1   
    22    7   33 1   
    23    8   23 1   
    24    8   24 1   
    25    8   34 1   
    26    8   35 1   
    27    9   17 ar  
    28    9   25 ar  
    29    9   36 1   
    30   10   11 2   
    31   10   29 1   
    32   10   50 1   
    33   11   37 1   
    34   13   38 1   
    35   14   39 1   
    36   15   16 ar  
    37   15   25 ar  
    38   16   40 1   
    39   19   20 1   
    40   19   41 1   
    41   20   21 1   
    42   20   42 1   
    43   20   43 1   
    44   21   22 1   
    45   21   44 1   
    46   21   45 1   
    47   22   24 1   
    48   24   46 1   
    49   24   47 1   
    50   25   26 1   
    51   27   28 ar  
    52   27   48 1   
    53   28   29 ar  
    54   28   49 1   
    55   50   52 1   
    56   50   53 1   
    57   50   54 1   
@<TRIPOS>SUBSTRUCTURE
     1 AJ7         1 TEMP              0 ****  ****    0 ROOT
