@<TRIPOS>MOLECULE
AJ8
   33    35     1     0     0
SMALL
bcc


@<TRIPOS>ATOM
      1 C4          0.5170    1.2240   -0.3020 c1        1 AJ8      0.580600
      2 C8         -0.2080   -0.5020    2.3080 cc        1 AJ8      0.518900
      3 C10        -0.2210   -0.1090    4.7490 cd        1 AJ8      0.009000
      4 C13        -1.4080   -0.0320    8.2380 cu        1 AJ8     -0.259400
      5 C15        -3.9240   -0.4890    9.2160 c         1 AJ8      0.942800
      6 C21         1.2050   -0.4070    4.7650 cd        1 AJ8     -0.094000
      7 C22         1.9040   -0.5170    3.6190 cc        1 AJ8     -0.150000
      8 C2          2.0000   -0.0020    1.2240 cf        1 AJ8     -0.008200
      9 C3          1.4440    0.3140   -0.0790 cf        1 AJ8     -0.423100
     10 O5         -0.3030    2.0470   -0.5530 o         1 AJ8     -0.369500
     11 N6         -0.8960   -0.9680    1.3170 n2        1 AJ8     -0.763100
     12 C9         -0.8890   -0.1540    3.5700 cc        1 AJ8     -0.217600
     13 C11        -0.8560    0.2130    6.0060 cf        1 AJ8     -0.160200
     14 C12        -0.3880   -0.4860    7.2950 c3        1 AJ8      0.085000
     15 C14        -2.7060    0.0120    8.5090 ce        1 AJ8      0.008600
     16 O16        -4.8900   -0.8660    8.5020 o         1 AJ8     -0.801300
     17 O17        -3.8950   -0.4980   10.4760 o         1 AJ8     -0.801300
     18 C18        -2.1730    1.1800    7.7160 cx        1 AJ8     -0.141100
     19 C19        -1.8800    1.0870    6.2540 c2        1 AJ8      0.069200
     20 CL         -2.6580    2.0860    5.1470 cl        1 AJ8     -0.098400
     21 C23         1.2720   -0.3290    2.3220 cc        1 AJ8     -0.186600
     22 H1          0.6430   -0.1500    7.5710 hc        1 AJ8      0.053200
     23 H2          1.6920   -0.5290    5.7450 ha        1 AJ8      0.139000
     24 H3          2.9840   -0.7280    3.6310 ha        1 AJ8      0.124000
     25 H4          3.9090   -0.9340    1.5580 hc        1 AJ8      0.044367
     26 H5          3.9150    0.3550    0.2830 hc        1 AJ8      0.044367
     27 H6          3.8160    0.8150    2.0330 hc        1 AJ8      0.044367
     28 H7          1.8800   -0.2080   -0.9470 ha        1 AJ8      0.180000
     29 H8         -0.3620   -1.2100    0.5080 hn        1 AJ8      0.378400
     30 H9         -1.9760    0.0240    3.5180 ha        1 AJ8      0.167000
     31 H10        -0.3900   -1.5970    7.1710 hc        1 AJ8      0.053200
     32 H12        -2.1930    2.1950    8.1340 hc        1 AJ8      0.090700
     33 C1          3.4870    0.0620    1.2730 c3        1 AJ8     -0.058900
@<TRIPOS>BOND
     1    1    9 2   
     2    1   10 2   
     3    2   11 2   
     4    2   12 1   
     5    2   21 1   
     6    3    6 1   
     7    3   12 2   
     8    3   13 1   
     9    4   14 1   
    10    4   15 2   
    11    4   18 1   
    12    5   15 1   
    13    5   16 1   
    14    5   17 1   
    15    6    7 2   
    16    6   23 1   
    17    7   21 1   
    18    7   24 1   
    19    8    9 1   
    20    8   21 2   
    21    8   33 1   
    22    9   28 1   
    23   11   29 1   
    24   12   30 1   
    25   13   14 1   
    26   13   19 2   
    27   14   22 1   
    28   14   31 1   
    29   15   18 1   
    30   18   19 1   
    31   18   32 1   
    32   19   20 1   
    33   25   33 1   
    34   26   33 1   
    35   27   33 1   
@<TRIPOS>SUBSTRUCTURE
     1 AJ8         1 TEMP              0 ****  ****    0 ROOT
