@<TRIPOS>MOLECULE
AJ8
   33    35     1     0     0
SMALL
bcc


@<TRIPOS>ATOM
      1 C4          4.6870    1.1900   -0.7700 c         1 AJ8      0.695700
      2 C8          2.4560    0.2940   -0.3430 ca        1 AJ8      0.094600
      3 C10         0.2050   -0.5500    0.0620 cp        1 AJ8      0.057000
      4 C13        -3.3650   -1.3550   -0.7620 ca        1 AJ8     -0.110000
      5 C15        -5.5770   -0.1810   -0.3500 c         1 AJ8      0.908200
      6 C21         0.7610   -1.7360    0.5920 ca        1 AJ8     -0.155000
      7 C22         2.1290   -1.9000    0.6580 ca        1 AJ8     -0.086000
      8 C2          4.4460   -1.0410    0.2530 cc        1 AJ8      0.035600
      9 C3          5.2440   -0.0450   -0.2090 cd        1 AJ8     -0.260200
     10 O5          5.3770    2.1350   -1.2080 o         1 AJ8     -0.662500
     11 N6          3.2950    1.3010   -0.8110 n         1 AJ8     -0.440100
     12 C9          1.0470    0.4510   -0.4060 ca        1 AJ8     -0.175000
     13 C11        -1.2490   -0.4170   -0.0170 cp        1 AJ8     -0.097000
     14 C12        -1.9810   -1.4350   -0.6520 ca        1 AJ8     -0.133000
     15 C14        -4.0570   -0.2620   -0.2310 ca        1 AJ8     -0.103600
     16 O16        -6.1490    0.8320    0.1390 o         1 AJ8     -0.819800
     17 O17        -6.1660   -1.1330   -0.9310 o         1 AJ8     -0.819800
     18 C18        -3.3440    0.7510    0.4140 ca        1 AJ8     -0.105000
     19 C19        -1.9530    0.6730    0.5190 ca        1 AJ8      0.021400
     20 CL         -1.1330    1.9290    1.3450 cl        1 AJ8     -0.142400
     21 C23         3.0080   -0.9010    0.1980 ca        1 AJ8     -0.147800
     22 H1         -3.9460   -2.1460   -1.2640 ha        1 AJ8      0.161000
     23 H2          0.0840   -2.5240    0.9560 ha        1 AJ8      0.145000
     24 H3          2.5480   -2.8270    1.0790 ha        1 AJ8      0.127000
     25 H4          6.1470   -2.2490    0.7980 hc        1 AJ8      0.049700
     26 H5          4.6990   -2.4130    1.8790 hc        1 AJ8      0.049700
     27 H6          4.6910   -3.1700    0.2290 hc        1 AJ8      0.049700
     28 H7          6.3400   -0.0990   -0.1910 ha        1 AJ8      0.154000
     29 H8          2.8880    2.1320   -1.1790 hn        1 AJ8      0.332500
     30 H9          0.6120    1.3720   -0.8240 ha        1 AJ8      0.152000
     31 H10        -1.4420   -2.2970   -1.0710 ha        1 AJ8      0.117000
     32 H12        -3.9090    1.6010    0.8330 ha        1 AJ8      0.173000
     33 C1          5.0300   -2.2820    0.8180 c3        1 AJ8     -0.067900
@<TRIPOS>BOND
     1    1    9 1   
     2    1   10 2   
     3    1   11 1   
     4    2   11 1   
     5    2   12 ar  
     6    2   21 ar  
     7    3    6 ar  
     8    3   12 ar  
     9    3   13 1   
    10    4   14 ar  
    11    4   15 ar  
    12    4   22 1   
    13    5   15 1   
    14    5   16 1   
    15    5   17 1   
    16    6    7 ar  
    17    6   23 1   
    18    7   21 ar  
    19    7   24 1   
    20    8    9 2   
    21    8   21 1   
    22    8   33 1   
    23    9   28 1   
    24   11   29 1   
    25   12   30 1   
    26   13   14 ar  
    27   13   19 ar  
    28   14   31 1   
    29   15   18 ar  
    30   18   19 ar  
    31   18   32 1   
    32   19   20 1   
    33   25   33 1   
    34   26   33 1   
    35   27   33 1   
@<TRIPOS>SUBSTRUCTURE
     1 AJ8         1 TEMP              0 ****  ****    0 ROOT
