@<TRIPOS>MOLECULE
AJ8
   33    26     1     0     0
SMALL
bcc


@<TRIPOS>ATOM
      1 C4         -0.2460   -0.2700   -4.5890 c1        1 AJ8      0.334000
      2 C8         -0.2680   -0.2480   -2.0350 c1        1 AJ8      0.102000
      3 C10        -0.3240   -0.1910    0.3820 c1        1 AJ8      0.057000
      4 C13        -1.6850   -0.7470    3.8700 c1        1 AJ8     -0.121500
      5 C15        -2.2220    0.8500    5.7480 c1        1 AJ8      0.357000
      6 C21         1.0780   -0.2740    0.4160 c2        1 AJ8     -0.155000
      7 C22         1.8030   -0.3440   -0.7730 c1        1 AJ8     -0.086000
      8 C1          3.4290   -0.4950   -3.2520 c3        1 AJ8     -0.190000
      9 C2          1.9200   -0.3880   -3.2880 c1        1 AJ8      0.028000
     10 C3          1.2250   -0.3570   -4.5600 c2        1 AJ8     -0.241000
     11 O5         -0.8320   -0.2580   -5.6530 o         1 AJ8     -0.387000
     12 N6         -0.9910   -0.2160   -3.3540 n2        1 AJ8     -0.294000
     13 C9         -0.9930   -0.1780   -0.8420 c1        1 AJ8     -0.175000
     14 C11        -0.8480    0.0720    1.7750 c1        1 AJ8     -0.097000
     15 C12        -1.1780   -0.9890    2.6030 c1        1 AJ8     -0.121500
     16 C14        -1.8620    0.5560    4.3090 c1        1 AJ8     -0.083000
     17 O16        -3.4130    1.1110    6.0590 os        1 AJ8     -0.553000
     18 O17        -1.3270    0.8450    6.6340 o         1 AJ8     -0.556000
     19 C18        -1.5320    1.6170    3.4810 c1        1 AJ8     -0.105000
     20 C19        -1.0250    1.3750    2.2140 c1        1 AJ8     -0.057000
     21 CL         -0.6410    2.7100    1.1600 cl        1 AJ8     -0.064000
     22 C23         1.1350   -0.3310   -2.0010 c1        1 AJ8     -0.136000
     23 H1         -1.9330   -1.4950    4.4470 ha        1 AJ8      0.139000
     24 H2          1.5450   -0.2720    1.2730 ha        1 AJ8      0.145000
     25 H3          2.7770   -0.4010   -0.7480 ha        1 AJ8      0.127000
     26 H4          3.7960    0.2430   -2.7210 hc        1 AJ8      0.089000
     27 H5          3.7820   -0.4480   -4.1650 hc        1 AJ8      0.089000
     28 H6          3.6860   -1.3490   -2.8460 hc        1 AJ8      0.089000
     29 H7          1.7250   -0.4620   -5.3910 ha        1 AJ8      0.154000
     30 H8         -1.9010   -0.1620   -3.3730 hn        1 AJ8      0.246000
     31 H9         -1.9670   -0.1320   -0.8650 ha        1 AJ8      0.152000
     32 H10        -1.0540   -1.9060    2.2940 ha        1 AJ8      0.139000
     33 H12        -1.6570    2.5340    3.7900 ha        1 AJ8      0.173000
@<TRIPOS>BOND
     1    1   10 1   
     2    1   11 1   
     3    2   12 1   
     4    2   22 1   
     5    3    6 1   
     6    3   13 1   
     7    4   15 1   
     8    4   23 1   
     9    5   16 1   
    10    5   18 1   
    11    6    7 1   
    12    6   24 1   
    13    7   25 1   
    14    8    9 1   
    15    8   26 1   
    16    8   27 1   
    17    8   28 1   
    18    9   10 1   
    19   10   29 1   
    20   12   30 1   
    21   13   31 1   
    22   14   20 1   
    23   15   32 1   
    24   16   19 1   
    25   19   33 1   
    26   20   21 1   
@<TRIPOS>SUBSTRUCTURE
     1 AJ8         1 TEMP              0 ****  ****    0 ROOT
