@<TRIPOS>MOLECULE
AJ8
   33    35     1     0     0
SMALL
bcc


@<TRIPOS>ATOM
      1 C4          2.7890   -0.3520   -0.5560 c1        1 AJ8      0.560600
      2 C8         -0.5070   -0.2690    2.0090 cc        1 AJ8      0.527900
      3 C10        -1.1770   -0.1850    4.3820 cd        1 AJ8     -0.032200
      4 C13        -1.3500   -0.7010    7.8080 cc        1 AJ8     -0.254300
      5 C15        -1.4190    0.4610   10.2970 c         1 AJ8      0.947200
      6 C21        -0.1290    0.7930    4.6180 cd        1 AJ8     -0.087000
      7 C22         0.7930    1.0540    3.6700 cc        1 AJ8     -0.151000
      8 C2          1.9210    0.2460    1.6490 cf        1 AJ8     -0.014200
      9 C3          2.0050   -0.5990    0.4750 cf        1 AJ8     -0.392100
     10 O5          3.4720   -0.1560   -1.5120 o         1 AJ8     -0.393500
     11 N6         -0.9520   -0.4000    0.8020 n2        1 AJ8     -0.777100
     12 C9         -1.3510   -0.6980    3.1430 cc        1 AJ8     -0.237600
     13 C11        -2.0310   -0.5950    5.5330 c3        1 AJ8      0.021700
     14 C12        -1.1890   -1.4510    6.5680 c3        1 AJ8      0.043900
     15 C14        -1.5980    0.1080    8.8440 cd        1 AJ8      0.097400
     16 O16        -2.2300   -0.0490   11.1090 o         1 AJ8     -0.787800
     17 O17        -0.4610    1.2270   10.5750 o         1 AJ8     -0.787800
     18 C18        -2.1900    0.5000    7.5870 cc        1 AJ8     -0.122000
     19 C19        -2.5880    0.6020    6.3170 c2        1 AJ8     -0.123800
     20 Cl         -3.5680    1.7470    5.5800 cl        1 AJ8     -0.110400
     21 C23         0.7900    0.3500    2.3970 cc        1 AJ8     -0.181600
     22 H1         -1.6110   -2.4830    6.6400 hc        1 AJ8      0.056200
     23 H2         -0.1300    1.3020    5.5970 ha        1 AJ8      0.166000
     24 H3          1.5930    1.7880    3.8470 ha        1 AJ8      0.130000
     25 H4          3.5100    0.6060    3.0500 hc        1 AJ8      0.046700
     26 H5          3.9960    0.7730    1.3140 hc        1 AJ8      0.046700
     27 H6          2.9890    2.0590    2.1000 hc        1 AJ8      0.046700
     28 H7          1.4170   -1.5340    0.4600 ha        1 AJ8      0.192000
     29 H8         -0.3470   -0.0490    0.0880 hn        1 AJ8      0.378400
     30 H9         -2.1550   -1.4170    2.9230 ha        1 AJ8      0.146000
     31 H10        -2.8900   -1.2180    5.1670 hc        1 AJ8      0.054700
     32 H12        -0.1190   -1.5180    6.2520 hc        1 AJ8      0.056200
     33 C1          3.1680    0.9560    2.0430 c3        1 AJ8     -0.066900
@<TRIPOS>BOND
     1    1    9 2   
     2    1   10 2   
     3    2   11 2   
     4    2   12 1   
     5    2   21 1   
     6    3    6 1   
     7    3   12 2   
     8    3   13 1   
     9    4   14 1   
    10    4   15 2   
    11    4   18 1   
    12    5   15 1   
    13    5   16 1   
    14    5   17 1   
    15    6    7 2   
    16    6   23 1   
    17    7   21 1   
    18    7   24 1   
    19    8    9 1   
    20    8   21 2   
    21    8   33 1   
    22    9   28 1   
    23   11   29 1   
    24   12   30 1   
    25   13   14 1   
    26   13   19 1   
    27   13   31 1   
    28   14   22 1   
    29   14   32 1   
    30   15   18 1   
    31   18   19 2   
    32   19   20 1   
    33   25   33 1   
    34   26   33 1   
    35   27   33 1   
@<TRIPOS>SUBSTRUCTURE
     1 AJ8         1 TEMP              0 ****  ****    0 ROOT
