@<TRIPOS>MOLECULE
AJ8
   33    35     1     0     0
SMALL
bcc


@<TRIPOS>ATOM
      1 C4          2.7900   -0.3530   -0.5550 c1        1 AJ8      0.560600
      2 C8         -0.5070   -0.2700    2.0090 cc        1 AJ8      0.527900
      3 C10        -1.1780   -0.1840    4.3810 cd        1 AJ8     -0.032200
      4 C13        -1.3500   -0.7010    7.8080 cc        1 AJ8     -0.254300
      5 C15        -1.4170    0.4600   10.2970 c         1 AJ8      0.947200
      6 C21        -0.1300    0.7940    4.6170 cd        1 AJ8     -0.087000
      7 C22         0.7920    1.0550    3.6690 cc        1 AJ8     -0.151000
      8 C2          1.9210    0.2460    1.6490 cf        1 AJ8     -0.014200
      9 C3          2.0060   -0.6000    0.4760 cf        1 AJ8     -0.392100
     10 O5          3.4730   -0.1570   -1.5110 o         1 AJ8     -0.393500
     11 N6         -0.9510   -0.4020    0.8020 n2        1 AJ8     -0.777100
     12 C9         -1.3510   -0.6980    3.1430 cc        1 AJ8     -0.237600
     13 C11        -2.0320   -0.5940    5.5330 c3        1 AJ8      0.021700
     14 C12        -1.1900   -1.4520    6.5670 c3        1 AJ8      0.043900
     15 C14        -1.5980    0.1070    8.8440 cd        1 AJ8      0.097400
     16 O16        -2.2290   -0.0510   11.1100 o         1 AJ8     -0.787800
     17 O17        -0.4590    1.2240   10.5750 o         1 AJ8     -0.787800
     18 C18        -2.1890    0.5000    7.5870 cc        1 AJ8     -0.122000
     19 C19        -2.5870    0.6030    6.3180 c2        1 AJ8     -0.123800
     20 CL         -3.5670    1.7490    5.5810 cl        1 AJ8     -0.110400
     21 C23         0.7900    0.3500    2.3970 cc        1 AJ8     -0.181600
     22 H1         -1.6120   -2.4830    6.6390 hc        1 AJ8      0.056200
     23 H2         -0.1310    1.3030    5.5960 ha        1 AJ8      0.166000
     24 H3          1.5920    1.7890    3.8460 ha        1 AJ8      0.130000
     25 H4          3.5090    0.6080    3.0510 hc        1 AJ8      0.046700
     26 H5          3.9950    0.7740    1.3150 hc        1 AJ8      0.046700
     27 H6          2.9880    2.0600    2.0990 hc        1 AJ8      0.046700
     28 H7          1.4180   -1.5350    0.4620 ha        1 AJ8      0.192000
     29 H8         -0.3460   -0.0510    0.0880 hn        1 AJ8      0.378400
     30 H9         -2.1540   -1.4180    2.9240 ha        1 AJ8      0.146000
     31 H10        -2.8910   -1.2160    5.1670 hc        1 AJ8      0.054700
     32 H12        -0.1200   -1.5180    6.2510 hc        1 AJ8      0.056200
     33 C1          3.1680    0.9570    2.0430 c3        1 AJ8     -0.066900
@<TRIPOS>BOND
     1    1    9 2   
     2    1   10 2   
     3    2   11 2   
     4    2   12 1   
     5    2   21 1   
     6    3    6 1   
     7    3   12 2   
     8    3   13 1   
     9    4   14 1   
    10    4   15 2   
    11    4   18 1   
    12    5   15 1   
    13    5   16 1   
    14    5   17 1   
    15    6    7 2   
    16    6   23 1   
    17    7   21 1   
    18    7   24 1   
    19    8    9 1   
    20    8   21 2   
    21    8   33 1   
    22    9   28 1   
    23   11   29 1   
    24   12   30 1   
    25   13   14 1   
    26   13   19 1   
    27   13   31 1   
    28   14   22 1   
    29   14   32 1   
    30   15   18 1   
    31   18   19 2   
    32   19   20 1   
    33   25   33 1   
    34   26   33 1   
    35   27   33 1   
@<TRIPOS>SUBSTRUCTURE
     1 AJ8         1 TEMP              0 ****  ****    0 ROOT
