@<TRIPOS>MOLECULE
AJA
   64    66     1     0     0
SMALL
bcc


@<TRIPOS>ATOM
      1 O27         0.5510   -0.9790    0.2720 o         1 AJA     -0.836800
      2 C16         1.5890   -0.2620    0.2000 c         1 AJA      0.902800
      3 O26         2.0560    0.3990    1.1730 o         1 AJA     -0.836800
      4 C10         2.3220   -0.1860   -1.1330 ce        1 AJA     -0.146400
      5 C9          3.6150    0.5490   -1.1190 c3        1 AJA     -0.033200
      6 C8          4.0980    0.9040   -2.5260 c3        1 AJA     -0.004400
      7 C7          5.4950    1.4240   -2.5550 ca        1 AJA     -0.143300
      8 C6          5.9570    2.4170   -1.6710 ca        1 AJA      0.157100
      9 O15         5.0310    3.0210   -0.8520 oh        1 AJA     -0.481100
     10 C5          7.3000    2.8300   -1.6520 ca        1 AJA     -0.248000
     11 C4          8.2170    2.2860   -2.5530 ca        1 AJA     -0.019300
     12 C19         9.6690    2.6920   -2.5600 c3        1 AJA     -0.002700
     13 C25         9.9950    3.7100   -1.4740 c3        1 AJA     -0.085100
     14 C20        10.5680    1.4610   -2.3850 c3        1 AJA     -0.065400
     15 C21        10.3640    0.7450   -1.0680 c3        1 AJA     -0.082400
     16 C22        11.1280   -0.5620   -1.0360 c3        1 AJA     -0.076400
     17 C23        10.9500   -1.2670    0.2920 c3        1 AJA     -0.080400
     18 C28        11.7050   -2.5790    0.3260 c3        1 AJA     -0.079400
     19 C29        11.5280   -3.2840    1.6460 c3        1 AJA     -0.092100
     20 C24         9.9950    3.3320   -3.9110 c3        1 AJA     -0.085100
     21 C3          7.7670    1.3600   -3.4970 ca        1 AJA     -0.200000
     22 C2          6.4230    0.9500   -3.5010 ca        1 AJA      0.156100
     23 O1          6.1120    0.0400   -4.4890 os        1 AJA     -0.340900
     24 C14         4.6950   -0.1660   -4.7420 c3        1 AJA      0.156800
     25 C18         4.6610   -1.4500   -5.5660 c3        1 AJA     -0.099100
     26 C17         4.1790    1.0020   -5.5700 c3        1 AJA     -0.099100
     27 C13         3.9700   -0.3430   -3.4070 c3        1 AJA     -0.084700
     28 C12         2.5010   -0.7120   -3.5590 c3        1 AJA     -0.022200
     29 C11         1.8250   -0.7540   -2.2390 c2        1 AJA     -0.222200
     30 H91         4.3830   -0.0820   -0.5980 hc        1 AJA      0.070700
     31 H92         3.4850    1.4820   -0.5050 hc        1 AJA      0.070700
     32 H8          3.4190    1.7100   -2.9300 hc        1 AJA      0.060700
     33 HO15        5.5020    3.3980   -0.0950 ho        1 AJA      0.414000
     34 H5          7.6020    3.5870   -0.9160 ha        1 AJA      0.128000
     35 H251        9.4370    4.6610   -1.6500 hc        1 AJA      0.033867
     36 H252       11.0890    3.9360   -1.4860 hc        1 AJA      0.033867
     37 H253        9.7270    3.3150   -0.4650 hc        1 AJA      0.033867
     38 H201       10.3690    0.7470   -3.2280 hc        1 AJA      0.036700
     39 H202       11.6390    1.7880   -2.4700 hc        1 AJA      0.036700
     40 H211        9.2700    0.5470   -0.9140 hc        1 AJA      0.049200
     41 H212       10.7090    1.3970   -0.2220 hc        1 AJA      0.049200
     42 H221       10.7690   -1.2280   -1.8640 hc        1 AJA      0.034700
     43 H222       12.2180   -0.3680   -1.2160 hc        1 AJA      0.034700
     44 H231        9.8580   -1.4570    0.4710 hc        1 AJA      0.043700
     45 H232       11.3100   -0.6050    1.1220 hc        1 AJA      0.043700
     46 H281       12.7950   -2.3880    0.1430 hc        1 AJA      0.035200
     47 H282       11.3410   -3.2400   -0.5050 hc        1 AJA      0.035200
     48 H291       11.9080   -2.6510    2.4850 hc        1 AJA      0.031367
     49 H292       10.4490   -3.5020    1.8340 hc        1 AJA      0.031367
     50 H293       12.0900   -4.2490    1.6500 hc        1 AJA      0.031367
     51 H241        9.8310    2.6030   -4.7400 hc        1 AJA      0.033867
     52 H242       11.0610    3.6630   -3.9300 hc        1 AJA      0.033867
     53 H243        9.3400    4.2200   -4.0830 hc        1 AJA      0.033867
     54 H3          8.4490    0.9330   -4.2460 ha        1 AJA      0.138000
     55 H181        5.3700   -1.3710   -6.4240 hc        1 AJA      0.043033
     56 H182        3.6280   -1.6080   -5.9550 hc        1 AJA      0.043033
     57 H183        4.9550   -2.3210   -4.9350 hc        1 AJA      0.043033
     58 H171        3.1070    0.8400   -5.8300 hc        1 AJA      0.043033
     59 H172        4.2750    1.9540   -4.9970 hc        1 AJA      0.043033
     60 H173        4.7730    1.0900   -6.5110 hc        1 AJA      0.043033
     61 H13         4.4860   -1.1920   -2.8710 hc        1 AJA      0.067700
     62 H121        2.4210   -1.7130   -4.0610 hc        1 AJA      0.025200
     63 H122        1.9820    0.0350   -4.2190 hc        1 AJA      0.025200
     64 H11         0.8630   -1.2880   -2.1980 ha        1 AJA      0.142000
@<TRIPOS>BOND
     1    1    2 1   
     2    2    3 1   
     3    2    4 1   
     4    4    5 1   
     5    4   29 2   
     6    5    6 1   
     7    5   30 1   
     8    5   31 1   
     9    6    7 1   
    10    6   27 1   
    11    6   32 1   
    12    7    8 ar  
    13    7   22 ar  
    14    8    9 1   
    15    8   10 ar  
    16    9   33 1   
    17   10   11 ar  
    18   10   34 1   
    19   11   12 1   
    20   11   21 ar  
    21   12   13 1   
    22   12   14 1   
    23   12   20 1   
    24   13   35 1   
    25   13   36 1   
    26   13   37 1   
    27   14   15 1   
    28   14   38 1   
    29   14   39 1   
    30   15   16 1   
    31   15   40 1   
    32   15   41 1   
    33   16   17 1   
    34   16   42 1   
    35   16   43 1   
    36   17   18 1   
    37   17   44 1   
    38   17   45 1   
    39   18   19 1   
    40   18   46 1   
    41   18   47 1   
    42   19   48 1   
    43   19   49 1   
    44   19   50 1   
    45   20   51 1   
    46   20   52 1   
    47   20   53 1   
    48   21   22 ar  
    49   21   54 1   
    50   22   23 1   
    51   23   24 1   
    52   24   25 1   
    53   24   26 1   
    54   24   27 1   
    55   25   55 1   
    56   25   56 1   
    57   25   57 1   
    58   26   58 1   
    59   26   59 1   
    60   26   60 1   
    61   27   28 1   
    62   27   61 1   
    63   28   29 1   
    64   28   62 1   
    65   28   63 1   
    66   29   64 1   
@<TRIPOS>SUBSTRUCTURE
     1 AJA         1 TEMP              0 ****  ****    0 ROOT
