@<TRIPOS>MOLECULE
AJA
   64    63     1     0     0
SMALL
bcc


@<TRIPOS>ATOM
      1 O27        -3.6590   -3.8080    4.2260 o         1 AJA     -0.568000
      2 C16        -4.2870   -3.4770    3.1840 c1        1 AJA      0.353000
      3 O26        -5.7880   -3.5350    3.1780 os        1 AJA     -0.572000
      4 C10        -3.5020   -3.3360    1.7890 c2        1 AJA     -0.121000
      5 C9         -3.7970   -3.1630    1.3680 c3        1 AJA     -0.118000
      6 C8         -2.8200   -3.0810   -0.0740 c3        1 AJA     -0.049000
      7 C7         -2.0180   -1.5880   -0.0260 c2        1 AJA     -0.141000
      8 C6         -2.7920   -0.2460    0.0190 c2        1 AJA      0.110000
      9 O15        -4.1350   -0.2460   -0.1000 oh        1 AJA     -0.240000
     10 C5         -2.0910    0.9760   -0.0440 c1        1 AJA     -0.250000
     11 C4         -0.6970    0.9880   -0.1450 c1        1 AJA     -0.015000
     12 C19         0.0430    2.2600    0.1410 c3        1 AJA     -0.008000
     13 C25         0.7540    2.1190    1.3900 c3        1 AJA     -0.202500
     14 C20         1.0810    2.5490   -1.0500 c3        1 AJA     -0.150000
     15 C21         1.9070    3.8270   -0.7190 c3        1 AJA     -0.158000
     16 C22         2.9390    4.0170   -1.7300 c3        1 AJA     -0.158000
     17 C23         4.1320    4.8840   -1.0990 c3        1 AJA     -0.157000
     18 C28         5.4200    4.8590   -2.0880 c3        1 AJA     -0.159000
     19 C29         6.3570    5.8960   -1.6810 c3        1 AJA     -0.209000
     20 C24        -0.9770    3.4590    0.2590 c3        1 AJA     -0.202500
     21 C3          0.1120   -0.3880   -0.1920 c1        1 AJA     -0.202000
     22 C2         -0.5730   -1.5880   -0.1330 c1        1 AJA      0.122000
     23 O1          0.2270   -3.0590   -0.0180 os        1 AJA     -0.231000
     24 C14        -0.6050   -4.2800    0.2330 c3        1 AJA      0.095000
     25 C18        -0.6940   -4.5040    1.8500 c3        1 AJA     -0.221500
     26 C17         0.0570   -5.3320   -0.3230 c3        1 AJA     -0.221500
     27 C13        -1.9480   -4.2880   -0.3610 c3        1 AJA     -0.109000
     28 C12        -1.9610   -4.3160   -0.3570 c3        1 AJA     -0.105000
     29 C11        -2.6510   -4.4370    1.3870 c2        1 AJA     -0.221000
     30 H91        -4.9030   -3.7020    1.1680 hc        1 AJA      0.107000
     31 H92        -4.1440   -1.9230    1.6760 hc        1 AJA      0.107000
     32 H8         -3.4910   -3.0150   -0.8700 hc        1 AJA      0.106000
     33 HO15       -4.3720   -0.0120   -0.9740 ho        1 AJA      0.211000
     34 H5         -2.5800    1.8090   -0.0200 ha        1 AJA      0.126000
     35 H251        0.8820    2.8720    1.7280 hc        1 AJA      0.073833
     36 H252        0.2520    1.6020    1.9680 hc        1 AJA      0.073833
     37 H253        1.5590    1.7100    1.2390 hc        1 AJA      0.073833
     38 H201        1.7110    1.7390   -1.1520 hc        1 AJA      0.086000
     39 H202        0.5670    2.6920   -1.9140 hc        1 AJA      0.086000
     40 H211        2.3210    3.7280    0.1220 hc        1 AJA      0.077500
     41 H212        1.2840    4.6390   -0.7080 hc        1 AJA      0.077500
     42 H221        2.5240    4.5470   -2.5650 hc        1 AJA      0.079500
     43 H222        3.2730    3.1540   -2.0220 hc        1 AJA      0.079500
     44 H231        3.8650    5.7160   -0.9950 hc        1 AJA      0.076500
     45 H232        4.3790    4.5190   -0.2550 hc        1 AJA      0.076500
     46 H281        5.1560    5.0130   -2.9200 hc        1 AJA      0.078000
     47 H282        5.8620    3.9880   -2.0430 hc        1 AJA      0.078000
     48 H291        6.2660    6.0540   -0.7560 hc        1 AJA      0.069333
     49 H292        6.1940    6.6380   -2.1260 hc        1 AJA      0.069333
     50 H293        7.2490    5.6040   -1.8630 hc        1 AJA      0.069333
     51 H241       -0.5660    4.1690    0.2820 hc        1 AJA      0.073833
     52 H242       -1.6220    3.4520   -0.5720 hc        1 AJA      0.073833
     53 H243       -1.4970    3.3580    1.0730 hc        1 AJA      0.073833
     54 H3          0.9370   -0.3780   -0.4660 ha        1 AJA      0.138000
     55 H181       -1.3710   -5.0190    2.0460 hc        1 AJA      0.087333
     56 H182       -0.8200   -3.6450    2.2850 hc        1 AJA      0.087333
     57 H183        0.1030   -4.9040    2.1610 hc        1 AJA      0.087333
     58 H171        1.1020   -5.1310   -0.3450 hc        1 AJA      0.087333
     59 H172       -0.0780   -6.0310    0.1300 hc        1 AJA      0.087333
     60 H173       -0.3140   -5.4900   -1.3630 hc        1 AJA      0.087333
     61 H13        -1.7720   -4.2180   -1.3820 hc        1 AJA      0.074000
     62 H121       -2.6130   -4.4510   -1.1260 hc        1 AJA      0.066000
     63 H122       -1.2690   -5.1620   -0.5070 hc        1 AJA      0.066000
     64 H11        -2.1090   -5.0800    2.1800 ha        1 AJA      0.140000
@<TRIPOS>BOND
     1    1    2 1   
     2    2    4 1   
     3    4    5 1   
     4    4   29 1   
     5    5    6 1   
     6    5   30 1   
     7    5   31 1   
     8    6    7 1   
     9    6   27 1   
    10    6   32 1   
    11    7    8 1   
    12    7   22 1   
    13    8    9 1   
    14    8   10 1   
    15    9   33 1   
    16   10   34 1   
    17   11   12 1   
    18   11   21 1   
    19   12   13 1   
    20   12   14 1   
    21   12   20 1   
    22   13   35 1   
    23   13   36 1   
    24   13   37 1   
    25   14   15 1   
    26   14   38 1   
    27   14   39 1   
    28   15   16 1   
    29   15   40 1   
    30   15   41 1   
    31   16   17 1   
    32   16   42 1   
    33   16   43 1   
    34   17   18 1   
    35   17   44 1   
    36   17   45 1   
    37   18   19 1   
    38   18   46 1   
    39   18   47 1   
    40   19   48 1   
    41   19   49 1   
    42   19   50 1   
    43   20   51 1   
    44   20   52 1   
    45   20   53 1   
    46   21   54 1   
    47   22   23 1   
    48   23   24 1   
    49   24   25 1   
    50   24   26 1   
    51   24   27 1   
    52   25   55 1   
    53   25   56 1   
    54   25   57 1   
    55   26   58 1   
    56   26   59 1   
    57   26   60 1   
    58   27   28 1   
    59   27   61 1   
    60   28   29 1   
    61   28   62 1   
    62   28   63 1   
    63   29   64 1   
@<TRIPOS>SUBSTRUCTURE
     1 AJA         1 TEMP              0 ****  ****    0 ROOT
