@<TRIPOS>MOLECULE
AJA
   64    66     1     0     0
SMALL
bcc


@<TRIPOS>ATOM
      1 O27         0.5510   -0.9850    0.2700 o         1 AJA     -0.836800
      2 C16         1.5900   -0.2680    0.2000 c         1 AJA      0.902800
      3 O26         2.0580    0.3880    1.1750 o         1 AJA     -0.836800
      4 C10         2.3230   -0.1890   -1.1330 ce        1 AJA     -0.146400
      5 C9          3.6160    0.5450   -1.1180 c3        1 AJA     -0.033200
      6 C8          4.0980    0.9040   -2.5240 c3        1 AJA     -0.004400
      7 C7          5.4960    1.4240   -2.5530 ca        1 AJA     -0.143300
      8 C6          5.9590    2.4140   -1.6660 ca        1 AJA      0.157100
      9 O15         5.0330    3.0170   -0.8450 oh        1 AJA     -0.481100
     10 C5          7.3010    2.8270   -1.6460 ca        1 AJA     -0.248000
     11 C4          8.2180    2.2850   -2.5490 ca        1 AJA     -0.019300
     12 C19         9.6700    2.6910   -2.5550 c3        1 AJA     -0.002700
     13 C25         9.9970    3.7060   -1.4670 c3        1 AJA     -0.085100
     14 C20        10.5690    1.4590   -2.3830 c3        1 AJA     -0.065400
     15 C21        10.3650    0.7400   -1.0670 c3        1 AJA     -0.082400
     16 C22        11.1280   -0.5680   -1.0380 c3        1 AJA     -0.076400
     17 C23        10.9500   -1.2750    0.2880 c3        1 AJA     -0.080400
     18 C28        11.7040   -2.5870    0.3190 c3        1 AJA     -0.079400
     19 C29        11.5290   -3.2950    1.6380 c3        1 AJA     -0.092100
     20 C24         9.9950    3.3330   -3.9050 c3        1 AJA     -0.085100
     21 C3          7.7670    1.3610   -3.4950 ca        1 AJA     -0.200000
     22 C2          6.4230    0.9520   -3.5000 ca        1 AJA      0.156100
     23 O1          6.1110    0.0450   -4.4900 os        1 AJA     -0.340900
     24 C14         4.6940   -0.1600   -4.7430 c3        1 AJA      0.156800
     25 C18         4.6590   -1.4410   -5.5710 c3        1 AJA     -0.099100
     26 C17         4.1780    1.0100   -5.5680 c3        1 AJA     -0.099100
     27 C13         3.9690   -0.3400   -3.4090 c3        1 AJA     -0.084700
     28 C12         2.5010   -0.7080   -3.5610 c3        1 AJA     -0.022200
     29 C11         1.8250   -0.7540   -2.2410 c2        1 AJA     -0.222200
     30 H91         3.4860    1.4770   -0.5010 hc        1 AJA      0.070700
     31 H92         4.3840   -0.0870   -0.5990 hc        1 AJA      0.070700
     32 H8          3.4200    1.7120   -2.9250 hc        1 AJA      0.060700
     33 HO15        5.5050    3.3920   -0.0870 ho        1 AJA      0.414000
     34 H5          7.6040    3.5820   -0.9080 ha        1 AJA      0.128000
     35 H251        9.7290    3.3090   -0.4590 hc        1 AJA      0.033867
     36 H252       11.0910    3.9310   -1.4790 hc        1 AJA      0.033867
     37 H253        9.4390    4.6570   -1.6410 hc        1 AJA      0.033867
     38 H201       10.3690    0.7470   -3.2280 hc        1 AJA      0.036700
     39 H202       11.6390    1.7850   -2.4680 hc        1 AJA      0.036700
     40 H211       10.7110    1.3900   -0.2210 hc        1 AJA      0.049200
     41 H212        9.2710    0.5430   -0.9120 hc        1 AJA      0.049200
     42 H221       10.7670   -1.2320   -1.8680 hc        1 AJA      0.034700
     43 H222       12.2180   -0.3740   -1.2190 hc        1 AJA      0.034700
     44 H231        9.8590   -1.4640    0.4690 hc        1 AJA      0.043700
     45 H232       11.3130   -0.6140    1.1190 hc        1 AJA      0.043700
     46 H281       11.3390   -3.2470   -0.5120 hc        1 AJA      0.035200
     47 H282       12.7940   -2.3970    0.1350 hc        1 AJA      0.035200
     48 H291       12.0890   -4.2600    1.6400 hc        1 AJA      0.031367
     49 H292       10.4500   -3.5120    1.8270 hc        1 AJA      0.031367
     50 H293       11.9100   -2.6640    2.4770 hc        1 AJA      0.031367
     51 H241        9.3410    4.2210   -4.0740 hc        1 AJA      0.033867
     52 H242       11.0620    3.6640   -3.9240 hc        1 AJA      0.033867
     53 H243        9.8310    2.6060   -4.7350 hc        1 AJA      0.033867
     54 H3          8.4490    0.9360   -4.2450 ha        1 AJA      0.138000
     55 H181        3.6260   -1.5980   -5.9600 hc        1 AJA      0.043033
     56 H182        5.3690   -1.3610   -6.4280 hc        1 AJA      0.043033
     57 H183        4.9540   -2.3150   -4.9430 hc        1 AJA      0.043033
     58 H171        4.2750    1.9620   -4.9920 hc        1 AJA      0.043033
     59 H172        4.7720    1.1010   -6.5090 hc        1 AJA      0.043033
     60 H173        3.1060    0.8490   -5.8280 hc        1 AJA      0.043033
     61 H13         4.4850   -1.1910   -2.8750 hc        1 AJA      0.067700
     62 H121        1.9810    0.0410   -4.2190 hc        1 AJA      0.025200
     63 H122        2.4200   -1.7080   -4.0660 hc        1 AJA      0.025200
     64 H11         0.8620   -1.2880   -2.2010 ha        1 AJA      0.142000
@<TRIPOS>BOND
     1    1    2 1   
     2    2    3 1   
     3    2    4 1   
     4    4    5 1   
     5    4   29 2   
     6    5    6 1   
     7    5   30 1   
     8    5   31 1   
     9    6    7 1   
    10    6   27 1   
    11    6   32 1   
    12    7    8 ar  
    13    7   22 ar  
    14    8    9 1   
    15    8   10 ar  
    16    9   33 1   
    17   10   11 ar  
    18   10   34 1   
    19   11   12 1   
    20   11   21 ar  
    21   12   13 1   
    22   12   14 1   
    23   12   20 1   
    24   13   35 1   
    25   13   36 1   
    26   13   37 1   
    27   14   15 1   
    28   14   38 1   
    29   14   39 1   
    30   15   16 1   
    31   15   40 1   
    32   15   41 1   
    33   16   17 1   
    34   16   42 1   
    35   16   43 1   
    36   17   18 1   
    37   17   44 1   
    38   17   45 1   
    39   18   19 1   
    40   18   46 1   
    41   18   47 1   
    42   19   48 1   
    43   19   49 1   
    44   19   50 1   
    45   20   51 1   
    46   20   52 1   
    47   20   53 1   
    48   21   22 ar  
    49   21   54 1   
    50   22   23 1   
    51   23   24 1   
    52   24   25 1   
    53   24   26 1   
    54   24   27 1   
    55   25   55 1   
    56   25   56 1   
    57   25   57 1   
    58   26   58 1   
    59   26   59 1   
    60   26   60 1   
    61   27   28 1   
    62   27   61 1   
    63   28   29 1   
    64   28   62 1   
    65   28   63 1   
    66   29   64 1   
@<TRIPOS>SUBSTRUCTURE
     1 AJA         1 TEMP              0 ****  ****    0 ROOT
