@<TRIPOS>MOLECULE
AJA
   64    66     1     0     0
SMALL
bcc


@<TRIPOS>ATOM
      1 O27         5.3140    6.0110   -5.4500 o         1 AJA     -0.836800
      2 C16         4.9880    5.1430   -4.5910 c         1 AJA      0.902800
      3 O26         5.6570    4.9060   -3.5430 o         1 AJA     -0.836800
      4 C10         3.7190    4.3350   -4.8270 ce        1 AJA     -0.146400
      5 C9          3.3070    3.4380   -3.7160 c3        1 AJA     -0.033200
      6 C8          2.2700    2.4040   -4.1560 c3        1 AJA     -0.004400
      7 C7          1.6670    1.6530   -3.0170 ca        1 AJA     -0.143300
      8 C6          2.4370    1.0870   -1.9840 ca        1 AJA      0.157100
      9 O15         3.8060    1.1120   -2.1230 oh        1 AJA     -0.481100
     10 C5          1.8490    0.4620   -0.8720 ca        1 AJA     -0.248000
     11 C4          0.4600    0.3490   -0.7810 ca        1 AJA     -0.019300
     12 C19        -0.2150   -0.3030    0.3980 c3        1 AJA     -0.002700
     13 C25         0.7790   -0.7740    1.4520 c3        1 AJA     -0.085100
     14 C20        -1.2140    0.6660    1.0440 c3        1 AJA     -0.065400
     15 C21        -0.5700    1.9180    1.6000 c3        1 AJA     -0.082400
     16 C22        -1.6170    2.9180    2.0420 c3        1 AJA     -0.076400
     17 C23        -0.9760    4.1590    2.6250 c3        1 AJA     -0.080400
     18 C28        -2.0190    5.1660    3.0620 c3        1 AJA     -0.079400
     19 C29        -1.3850    6.4040    3.6410 c3        1 AJA     -0.092100
     20 C24        -0.9890   -1.5280   -0.0920 c3        1 AJA     -0.085100
     21 C3         -0.3260    0.8280   -1.8330 ca        1 AJA     -0.200000
     22 C2          0.2760    1.4570   -2.9360 ca        1 AJA      0.156100
     23 O1         -0.6140    1.8750   -3.9040 os        1 AJA     -0.340900
     24 C14        -0.0350    2.2290   -5.1890 c3        1 AJA      0.156800
     25 C18        -1.1570    2.9890   -5.8910 c3        1 AJA     -0.099100
     26 C17         0.2810    0.9470   -5.9460 c3        1 AJA     -0.099100
     27 C13         1.1830    3.1250   -4.9600 c3        1 AJA     -0.084700
     28 C12         1.7820    3.6770   -6.2450 c3        1 AJA     -0.022200
     29 C11         3.0240    4.4390   -5.9680 c2        1 AJA     -0.222200
     30 H91         4.2250    2.9240   -3.3180 hc        1 AJA      0.070700
     31 H92         2.8940    4.0630   -2.8810 hc        1 AJA      0.070700
     32 H8          2.7890    1.6590   -4.8260 hc        1 AJA      0.060700
     33 HO15        4.1990    1.0240   -1.2430 ho        1 AJA      0.414000
     34 H5          2.5060    0.0680   -0.0860 ha        1 AJA      0.128000
     35 H251        1.4110    0.0730    1.8100 hc        1 AJA      0.033867
     36 H252        1.4440   -1.5680    1.0340 hc        1 AJA      0.033867
     37 H253        0.2290   -1.1990    2.3260 hc        1 AJA      0.033867
     38 H201       -1.9820    0.9550    0.2790 hc        1 AJA      0.036700
     39 H202       -1.7510    0.1270    1.8690 hc        1 AJA      0.036700
     40 H211        0.0840    1.6550    2.4720 hc        1 AJA      0.049200
     41 H212        0.0870    2.3810    0.8160 hc        1 AJA      0.049200
     42 H221       -2.2910    2.4470    2.8060 hc        1 AJA      0.034700
     43 H222       -2.2590    3.2040    1.1670 hc        1 AJA      0.034700
     44 H231       -0.3370    3.8770    3.5020 hc        1 AJA      0.043700
     45 H232       -0.3010    4.6260    1.8600 hc        1 AJA      0.043700
     46 H281       -2.6570    5.4470    2.1820 hc        1 AJA      0.035200
     47 H282       -2.6970    4.6970    3.8230 hc        1 AJA      0.035200
     48 H291       -2.1690    7.1340    3.9540 hc        1 AJA      0.031367
     49 H292       -0.7650    6.1470    4.5340 hc        1 AJA      0.031367
     50 H293       -0.7240    6.8970    2.8880 hc        1 AJA      0.031367
     51 H241       -1.7770   -1.2270   -0.8240 hc        1 AJA      0.033867
     52 H242       -0.2950   -2.2460   -0.5910 hc        1 AJA      0.033867
     53 H243       -1.4790   -2.0410    0.7700 hc        1 AJA      0.033867
     54 H3         -1.4200    0.7290   -1.8170 ha        1 AJA      0.138000
     55 H181       -2.1010    2.3950   -5.8530 hc        1 AJA      0.043033
     56 H182       -1.3310    3.9700   -5.3890 hc        1 AJA      0.043033
     57 H183       -0.8730    3.1640   -6.9550 hc        1 AJA      0.043033
     58 H171       -0.6440    0.3310   -6.0490 hc        1 AJA      0.043033
     59 H172        0.6710    1.1900   -6.9620 hc        1 AJA      0.043033
     60 H173        1.0470    0.3520   -5.3950 hc        1 AJA      0.043033
     61 H13         0.8270    3.9990   -4.3400 hc        1 AJA      0.067700
     62 H121        1.0290    4.3430   -6.7470 hc        1 AJA      0.025200
     63 H122        2.0110    2.8380   -6.9560 hc        1 AJA      0.025200
     64 H11         3.3710    5.1190   -6.7620 ha        1 AJA      0.142000
@<TRIPOS>BOND
     1    1    2 1   
     2    2    3 1   
     3    2    4 1   
     4    4    5 1   
     5    4   29 2   
     6    5    6 1   
     7    5   30 1   
     8    5   31 1   
     9    6    7 1   
    10    6   27 1   
    11    6   32 1   
    12    7    8 ar  
    13    7   22 ar  
    14    8    9 1   
    15    8   10 ar  
    16    9   33 1   
    17   10   11 ar  
    18   10   34 1   
    19   11   12 1   
    20   11   21 ar  
    21   12   13 1   
    22   12   14 1   
    23   12   20 1   
    24   13   35 1   
    25   13   36 1   
    26   13   37 1   
    27   14   15 1   
    28   14   38 1   
    29   14   39 1   
    30   15   16 1   
    31   15   40 1   
    32   15   41 1   
    33   16   17 1   
    34   16   42 1   
    35   16   43 1   
    36   17   18 1   
    37   17   44 1   
    38   17   45 1   
    39   18   19 1   
    40   18   46 1   
    41   18   47 1   
    42   19   48 1   
    43   19   49 1   
    44   19   50 1   
    45   20   51 1   
    46   20   52 1   
    47   20   53 1   
    48   21   22 ar  
    49   21   54 1   
    50   22   23 1   
    51   23   24 1   
    52   24   25 1   
    53   24   26 1   
    54   24   27 1   
    55   25   55 1   
    56   25   56 1   
    57   25   57 1   
    58   26   58 1   
    59   26   59 1   
    60   26   60 1   
    61   27   28 1   
    62   27   61 1   
    63   28   29 1   
    64   28   62 1   
    65   28   63 1   
    66   29   64 1   
@<TRIPOS>SUBSTRUCTURE
     1 AJA         1 TEMP              0 ****  ****    0 ROOT
