@<TRIPOS>MOLECULE
AJB
   37    39     1     0     0
SMALL
bcc


@<TRIPOS>ATOM
      1 C4          1.4590   -3.1190    0.6080 ca        1 AJB     -0.237000
      2 C5          0.7570   -0.7160   -0.6180 ca        1 AJB      0.003000
      3 C6         -5.6330    1.0600   -0.6630 cc        1 AJB     -0.323400
      4 C7          5.5450    1.8260    1.2230 cc        1 AJB      0.351400
      5 C8         -4.9290    2.1920   -0.2610 cd        1 AJB      0.371600
      6 C10         0.0770   -2.7940    0.4740 ca        1 AJB      0.273600
      7 C13         4.2240    0.5010    0.0150 cc        1 AJB      0.394800
      8 C1         -5.5370    3.5330   -0.0980 c3        1 AJB     -0.123400
      9 C3          2.4380   -2.2720    0.1290 ca        1 AJB      0.017000
     10 C9          2.1020   -1.0650   -0.5050 ca        1 AJB     -0.132100
     11 C11        -0.2560   -1.5560   -0.1520 ca        1 AJB     -0.253600
     12 C12        -3.2880    0.6740   -0.2370 cc        1 AJB      0.487300
     13 C14        -1.6780   -1.1750   -0.3290 c         1 AJB      0.690700
     14 N15        -0.8810   -3.6270    0.9920 nh        1 AJB     -0.846200
     15 N16         5.3910    0.6370    1.8720 nd        1 AJB     -0.345000
     16 N17        -3.5790    1.9800   -0.0140 nd        1 AJB     -0.688000
     17 N18         4.6200   -0.1500    1.1580 nd        1 AJB     -0.345000
     18 N19        -2.0060    0.1510   -0.0720 n         1 AJB     -0.521400
     19 N20         4.8010    1.7880    0.0380 na        1 AJB     -0.308700
     20 O21        -2.5630   -1.9850   -0.6830 o         1 AJB     -0.616100
     21 S22        -4.6490   -0.2760   -0.7420 ss        1 AJB      0.018700
     22 S23         3.2520   -0.0640   -1.2470 ss        1 AJB     -0.146200
     23 H4          1.7500   -4.0580    1.1030 ha        1 AJB      0.144000
     24 H5          0.4970    0.2360   -1.1130 ha        1 AJB      0.144000
     25 H6         -6.6940    1.0460   -0.9000 h4        1 AJB      0.179000
     26 H7          6.1370    2.6860    1.5450 h5        1 AJB      0.072100
     27 H1         -5.4210    3.8900    0.9570 hc        1 AJB      0.050367
     28 H1A        -5.0420    4.2730   -0.7750 hc        1 AJB      0.050367
     29 H1B        -6.6250    3.4890   -0.3450 hc        1 AJB      0.050367
     30 H2          5.5970    2.7200   -1.6670 h1        1 AJB      0.063367
     31 H2A         3.7710    2.6460   -1.5620 h1        1 AJB      0.063367
     32 H2B         4.7090    3.8050   -0.4910 h1        1 AJB      0.063367
     33 H3          3.5010   -2.5460    0.2460 ha        1 AJB      0.163000
     34 HN15       -0.6030   -4.5370    1.2720 hn        1 AJB      0.437300
     35 HN1A       -1.8270   -3.5070    0.7070 hn        1 AJB      0.437300
     36 HN19       -1.2960    0.7680    0.2600 hn        1 AJB      0.343500
     37 C2          4.7170    2.7900   -0.9700 c3        1 AJB      0.016600
@<TRIPOS>BOND
     1    1    6 ar  
     2    1    9 ar  
     3    1   23 1   
     4    2   10 ar  
     5    2   11 ar  
     6    2   24 1   
     7    3    5 2   
     8    3   21 1   
     9    3   25 1   
    10    4   15 2   
    11    4   19 1   
    12    4   26 1   
    13    5    8 1   
    14    5   16 1   
    15    6   11 ar  
    16    6   14 1   
    17    7   17 2   
    18    7   19 1   
    19    7   22 1   
    20    8   27 1   
    21    8   28 1   
    22    8   29 1   
    23    9   10 ar  
    24    9   33 1   
    25   10   22 1   
    26   11   13 1   
    27   12   16 2   
    28   12   18 1   
    29   12   21 1   
    30   13   18 1   
    31   13   20 2   
    32   14   34 1   
    33   14   35 1   
    34   15   17 1   
    35   18   36 1   
    36   19   37 1   
    37   30   37 1   
    38   31   37 1   
    39   32   37 1   
@<TRIPOS>SUBSTRUCTURE
     1 AJB         1 TEMP              0 ****  ****    0 ROOT
