@<TRIPOS>MOLECULE
AJB
   37    38     1     0     0
SMALL
bcc


@<TRIPOS>ATOM
      1 C4          0.4630   -0.2330    0.1350 ca        1 AJB     -0.236000
      2 C5          1.8510    0.7800    2.3270 ca        1 AJB      0.021000
      3 C6          6.5480   -0.9620    2.1510 c2        1 AJB     -0.241400
      4 C7         -2.2970    3.3100    5.2470 c1        1 AJB      0.083800
      5 C8          6.7480   -0.2680    3.3140 ce        1 AJB      0.226400
      6 C10         1.8030    0.2110   -0.0410 ca        1 AJB      0.249600
      7 C13        -0.9860    1.7250    4.1900 c2        1 AJB      0.441100
      8 C1          7.9920   -0.4230    4.1200 c3        1 AJB     -0.062900
      9 C3         -0.1500   -0.1610    1.3720 ca        1 AJB      0.006000
     10 C9          0.5360    0.3350    2.4890 ca        1 AJB     -0.172100
     11 C11         2.4990    0.7230    1.0960 ca        1 AJB     -0.239300
     12 C12         5.0570    1.1690    2.9400 c1        1 AJB      0.556800
     13 C14         3.8990    1.2480    0.9100 c3        1 AJB      0.402600
     14 N15         2.3700    0.1970   -1.2980 nh        1 AJB     -0.844200
     15 N16        -1.9020    3.6830    3.9950 nh        1 AJB     -0.346100
     16 N17         5.7370    0.5730    3.8390 ne        1 AJB     -0.511000
     17 N18        -1.1220    2.7570    3.3460 n2        1 AJB     -0.486400
     18 N19         4.5570    1.8860    2.0450 n2        1 AJB     -0.521600
     19 N20        -1.7180    2.0170    5.4280 nh        1 AJB     -0.390000
     20 O21         4.7710    0.2510    0.3600 os        1 AJB     -0.397600
     21 S22         5.0980   -1.1270    1.3230 ss        1 AJB      0.085200
     22 S23        -0.1610    0.2720    4.0290 ss        1 AJB      0.077900
     23 H4         -0.0970   -0.6300   -0.7250 ha        1 AJB      0.140000
     24 H5          2.3740    1.1790    3.2140 ha        1 AJB      0.151000
     25 H6          7.3520   -1.6300    1.8050 h4        1 AJB      0.162000
     26 H7         -2.1100    4.5300    3.5180 hn        1 AJB      0.485800
     27 H1          7.7410   -0.7240    5.1690 hc        1 AJB      0.065700
     28 H1A         8.6500   -1.2050    3.6690 hc        1 AJB      0.065700
     29 H1B         8.5520    0.5450    4.1560 hc        1 AJB      0.065700
     30 H2          0.2370    1.2920    7.7420 ha        1 AJB      0.005000
     31 H2A        -2.3700    1.5290    7.3090 ha        1 AJB      0.007500
     32 H2B        -0.0250    1.8470    8.0320 ha        1 AJB      0.005000
     33 H3         -1.1920   -0.5040    1.4840 ha        1 AJB      0.146000
     34 HN15        1.9090   -0.3400   -1.9940 hn        1 AJB      0.426300
     35 HN1A        3.3610    0.2410   -1.3640 hn        1 AJB      0.426300
     36 HN19        3.9060    2.0560    0.1050 h2        1 AJB      0.128700
     37 C2         -1.7680    1.1690    6.4450 c1        1 AJB      0.016500
@<TRIPOS>BOND
     1    1    6 ar  
     2    1    9 ar  
     3    1   23 1   
     4    2   10 ar  
     5    2   11 ar  
     6    2   24 1   
     7    3    5 2   
     8    3   21 1   
     9    3   25 1   
    10    4   15 3   
    11    4   19 1   
    12    5    8 1   
    13    5   16 1   
    14    6   11 ar  
    15    6   14 1   
    16    7   17 2   
    17    7   19 1   
    18    7   22 1   
    19    8   27 1   
    20    8   28 1   
    21    8   29 1   
    22    9   10 ar  
    23    9   33 1   
    24   10   22 1   
    25   11   13 1   
    26   12   16 2   
    27   12   18 2   
    28   13   18 1   
    29   13   20 1   
    30   13   36 1   
    31   14   34 1   
    32   14   35 1   
    33   15   17 1   
    34   15   26 1   
    35   19   37 3   
    36   20   21 1   
    37   30   32 1   
    38   31   37 1   
@<TRIPOS>SUBSTRUCTURE
     1 AJB         1 TEMP              0 ****  ****    0 ROOT
