@<TRIPOS>MOLECULE
AJB
   37    38     1     0     0
SMALL
bcc


@<TRIPOS>ATOM
      1 C4         -0.1830    0.0340   -0.2920 ca        1 AJB     -0.236000
      2 C5          1.0750    0.0710    2.1960 ca        1 AJB      0.019000
      3 C6          7.6950   -0.2960    2.3800 cc        1 AJB     -0.322400
      4 C7         -0.6020    3.4270    5.9440 c1        1 AJB      0.090800
      5 C8          7.3540    0.7730    3.2050 cd        1 AJB      0.371600
      6 C10         1.2210   -0.2130   -0.2280 ca        1 AJB      0.274600
      7 C13        -0.6850    1.8140    4.2900 c2        1 AJB      0.439100
      8 C1          8.3180    1.4950    4.0690 c3        1 AJB     -0.123400
      9 C3         -0.9070    0.3060    0.8500 ca        1 AJB      0.000000
     10 C9         -0.2960    0.3090    2.1160 ca        1 AJB     -0.175100
     11 C11         1.8420   -0.1670    1.0540 ca        1 AJB     -0.248600
     12 C12         5.3620    0.3170    2.3030 cc        1 AJB      0.486300
     13 C14         3.3030   -0.4030    1.1800 c         1 AJB      0.689700
     14 N15         1.9380   -0.4190   -1.3780 nv        1 AJB     -0.845200
     15 N16         0.4320    3.5100    5.0570 nu        1 AJB     -0.345100
     16 N17         6.0140    1.1330    3.1670 nd        1 AJB     -0.687000
     17 N18         0.4060    2.5600    4.0660 n2        1 AJB     -0.496400
     18 N19         3.9940    0.4320    2.0480 ns        1 AJB     -0.519400
     19 N20        -1.3740    2.3180    5.4830 nh        1 AJB     -0.390000
     20 O21         3.9070   -1.2900    0.5380 o         1 AJB     -0.616100
     21 S22         6.3770   -0.8710    1.5490 ss        1 AJB      0.016700
     22 S23        -1.2990    0.4880    3.4660 ss        1 AJB      0.092900
     23 H4         -0.6930    0.0170   -1.2680 ha        1 AJB      0.143000
     24 H5          1.5570    0.0640    3.1890 ha        1 AJB      0.149000
     25 H6          8.6970   -0.7080    2.2880 h4        1 AJB      0.180000
     26 H7          1.1790    4.1660    5.0520 hn        1 AJB      0.487800
     27 H1          8.3610    2.5770    3.7900 hc        1 AJB      0.050700
     28 H1A         9.3370    1.0520    3.9520 hc        1 AJB      0.050700
     29 H1B         8.0130    1.4210    5.1430 hc        1 AJB      0.050700
     30 H2         -1.9990   -0.1990    7.2110 ha        1 AJB      0.005000
     31 H2A        -1.8350    0.2150    7.7230 ha        1 AJB      0.005000
     32 H2B        -2.9020    2.2670    6.8490 ha        1 AJB      0.011500
     33 H3         -1.9880    0.5150    0.7740 ha        1 AJB      0.149000
     34 HN15        1.4370   -0.5980   -2.2140 hn        1 AJB      0.438800
     35 HN1A        2.8590   -0.7890   -1.3090 hn        1 AJB      0.438800
     36 HN19        3.4970    1.1600    2.5180 hn        1 AJB      0.347500
     37 C2         -2.4900    1.7700    5.9440 c1        1 AJB      0.016500
@<TRIPOS>BOND
     1    1    6 ar  
     2    1    9 ar  
     3    1   23 1   
     4    2   10 ar  
     5    2   11 ar  
     6    2   24 1   
     7    3    5 2   
     8    3   21 1   
     9    3   25 1   
    10    4   15 3   
    11    4   19 1   
    12    5    8 1   
    13    5   16 1   
    14    6   11 ar  
    15    6   14 1   
    16    7   17 2   
    17    7   19 1   
    18    7   22 1   
    19    8   27 1   
    20    8   28 1   
    21    8   29 1   
    22    9   10 ar  
    23    9   33 1   
    24   10   22 1   
    25   11   13 1   
    26   12   16 2   
    27   12   18 1   
    28   12   21 1   
    29   13   18 1   
    30   13   20 2   
    31   14   34 1   
    32   14   35 1   
    33   15   17 1   
    34   15   26 1   
    35   18   36 1   
    36   19   37 3   
    37   30   31 1   
    38   32   37 1   
@<TRIPOS>SUBSTRUCTURE
     1 AJB         1 TEMP              0 ****  ****    0 ROOT
