@<TRIPOS>MOLECULE
AJB
   39    37     1     0     0
SMALL
bcc


@<TRIPOS>ATOM
      1 C4       -323.6610   48.4520 -149.2000 c2        1 AJB     -0.514000
      2 C5       -326.2370   49.9910 -149.0690 c2        1 AJB     -0.213000
      3 C6        689.7660 -100.7900  314.9730 c1        1 AJB     -0.899000
      4 C7       -327.7480   47.4070 -154.5370 c1        1 AJB      0.106000
      5 C8        689.7420 -101.5060  313.8030 c2        1 AJB      0.347000
      6 C10      -324.2460   48.9880 -147.9890 c2        1 AJB     -0.077000
      7 C13      -327.2260   48.4460 -152.5440 c2        1 AJB     -0.299000
      8 C1        688.6450 -101.1720  312.8260 c3        1 AJB     -0.207000
      9 C3       -323.3050   47.2170 -149.5100 c1        1 AJB      0.326000
     10 C9       -326.3530   49.2260 -150.1840 c2        1 AJB     -0.350000
     11 C11      -325.3980   49.7270 -147.9350 c2        1 AJB     -0.027000
     12 C12       691.6380 -102.9270  314.0690 c1        1 AJB      0.336000
     13 C14      -325.8810   50.3690 -146.6730 c2        1 AJB      0.219000
     14 N15      -323.4540   48.7220 -146.7780 n4        1 AJB     -0.018000
     15 N16      -326.7840   46.7510 -153.8110 n3        1 AJB     -0.233000
     16 N17       690.6000 -102.4680  313.4240 n2        1 AJB     -0.228000
     17 N18      -326.4610   47.3540 -152.6270 n2        1 AJB     -0.066000
     18 N19       692.5790 -103.4280  314.5770 n2        1 AJB     -0.235000
     19 N20      -328.0740   48.5410 -153.7390 n3        1 AJB     -0.173000
     20 O21      -325.3210   50.1970 -145.5870 o         1 AJB     -0.301000
     21 S22       689.7830  -99.9620  316.1100 sh        1 AJB      1.262000
     22 S23      -327.3820   49.6680 -151.3930 ss        1 AJB      0.732000
     23 H4       -323.5240   49.2100 -150.0170 ha        1 AJB      0.238000
     24 H5       -326.8610   50.9040 -148.9790 ha        1 AJB      0.160000
     25 H6        689.0550 -100.5660  317.0150 hs        1 AJB     -0.169000
     26 H7       -326.3150   45.9030 -154.0500 hn        1 AJB      0.298000
     27 H1        688.0840 -102.0990  312.5380 hc        1 AJB      0.138333
     28 H1A       689.0910 -100.7300  311.8970 hc        1 AJB      0.138333
     29 H1B       687.9320 -100.4390  313.2740 hc        1 AJB      0.138333
     30 H2        -21.2470   13.4360   42.5650 ha        1 AJB      0.000000
     31 H2A       -21.1050   13.0060   43.0680 ha        1 AJB      0.000000
     32 H2B      -329.5240   49.5760 -154.7870 ha        1 AJB      0.103000
     33 H3       -325.7730   48.2870 -150.2500 h4        1 AJB      0.174000
     34 HN15     -322.5340   48.3490 -147.0300 hn        1 AJB      0.264000
     35 HN1A     -323.3420   49.5940 -146.2340 hn        1 AJB      0.264000
     36 HN19     -326.7860   51.0080 -146.7750 h4        1 AJB      0.161000
     37 C2       -328.9110   49.5620 -153.8630 c1        1 AJB     -0.038000
     38 H153     -323.9540   48.0520 -146.1800 hn        1 AJB      0.264000
     39 H192      693.3890 -103.9720  314.6760 hn        1 AJB      0.378000
@<TRIPOS>BOND
     1    1    6 1   
     2    1    9 1   
     3    1   23 1   
     4    2   10 1   
     5    2   11 1   
     6    2   24 1   
     7    3    5 1   
     8    3   21 1   
     9    4   15 1   
    10    4   19 1   
    11    5    8 1   
    12    5   16 1   
    13    6   11 1   
    14    6   14 1   
    15    7   17 1   
    16    7   19 1   
    17    7   22 1   
    18    8   27 1   
    19    8   28 1   
    20    8   29 1   
    21   10   22 1   
    22   10   33 1   
    23   11   13 1   
    24   12   16 1   
    25   12   18 1   
    26   13   20 1   
    27   13   36 1   
    28   14   34 1   
    29   14   35 1   
    30   14   38 1   
    31   15   17 1   
    32   15   26 1   
    33   18   39 1   
    34   19   37 1   
    35   21   25 1   
    36   30   31 1   
    37   32   37 1   
@<TRIPOS>SUBSTRUCTURE
     1 AJB         1 TEMP              0 ****  ****    0 ROOT
