@<TRIPOS>MOLECULE
AJB
   37    31     1     0     0
SMALL
bcc


@<TRIPOS>ATOM
      1 C4         -2.2650    1.2640   -1.0900 c1        1 AJB     -0.109000
      2 C5         -0.5660    0.4260    0.9470 c1        1 AJB      0.011000
      3 C6          6.0930    0.0130   -0.9220 c1        1 AJB     -0.527000
      4 C7         -5.2840   -2.0140    4.0250 c1        1 AJB     -0.211000
      5 C8          5.9730    0.7370   -2.1670 c1        1 AJB     -0.052000
      6 C10        -0.8970    1.1570   -1.3240 c1        1 AJB      0.145000
      7 C13        -3.8240   -1.0250    2.7480 c1        1 AJB     -0.211000
      8 C1          7.0220    1.2340   -3.1490 c2        1 AJB     -0.147000
      9 C2         -4.9330   -3.2450    2.0470 c3        1 AJB     -0.084000
     10 C3         -2.7830    0.9520    0.1620 c1        1 AJB     -0.109000
     11 C9         -1.9330    0.5320    1.1810 c1        1 AJB     -0.346000
     12 C11        -0.0480    0.7380   -0.3070 c1        1 AJB     -0.216000
     13 C12         3.7050    0.5640   -1.2930 c1        1 AJB     -0.172000
     14 C14         1.4670    0.5210   -0.2230 c2        1 AJB      0.349000
     15 N15        -0.7370    1.5890   -2.6770 n3        1 AJB     -0.349000
     16 N16        -4.8850   -0.8900    4.6440 n2        1 AJB     -0.080500
     17 N17         4.4570    1.0830   -2.3940 n2        1 AJB     -0.161000
     18 N18        -3.9820   -0.2780    3.8540 n2        1 AJB     -0.080500
     19 N19         2.2900    0.7630   -1.3710 n2        1 AJB     -0.295000
     20 N20        -4.6290   -2.0990    2.8530 n3        1 AJB     -0.147000
     21 O21         1.9720    0.1450    0.8200 o         1 AJB     -0.343000
     22 S22         4.6940   -0.1260   -0.3250 ss        1 AJB      0.598000
     23 S23        -2.5790    0.2460    2.8160 s         1 AJB      0.410000
     24 H4         -2.8650    1.5600   -1.8090 ha        1 AJB      0.155500
     25 H5          0.0330    0.1300    1.6640 ha        1 AJB      0.157000
     26 H6          6.9240   -0.3280   -0.5310 DU        1 AJB      0.194500
     27 H7         -5.9390   -2.6590    4.3680 DU        1 AJB      0.194500
     28 H1          7.8640    1.4010   -2.6710 ha        1 AJB      0.090333
     29 H1A         7.1690    0.5550   -3.8420 ha        1 AJB      0.090333
     30 H1B         6.7120    2.0660   -3.5660 ha        1 AJB      0.090333
     31 H2         -5.8620   -3.1870    1.7310 h1        1 AJB      0.103667
     32 H2A        -4.8200   -4.0610    2.5820 h1        1 AJB      0.103667
     33 H2B        -4.3250   -3.2730    1.2750 h1        1 AJB      0.103667
     34 H3         -3.7470    1.0270    0.3280 ha        1 AJB      0.155500
     35 HN15       -1.3420    2.1690   -3.0480 hn        1 AJB      0.212500
     36 HN1A       -0.0380    1.2750   -3.1770 hn        1 AJB      0.212500
     37 HN19        1.9090    1.0370   -2.1580 hn        1 AJB      0.263000
@<TRIPOS>BOND
     1    1   10 1   
     2    1   24 1   
     3    2   11 1   
     4    2   25 1   
     5    3    5 1   
     6    3   22 1   
     7    4   16 1   
     8    4   20 1   
     9    5   17 1   
    10    6   12 1   
    11    6   15 1   
    12    7   18 1   
    13    7   20 1   
    14    8   28 1   
    15    8   29 1   
    16    8   30 1   
    17    9   20 1   
    18    9   31 1   
    19    9   32 1   
    20    9   33 1   
    21   10   34 1   
    22   11   23 1   
    23   12   14 1   
    24   13   17 1   
    25   13   22 1   
    26   14   19 1   
    27   14   21 1   
    28   15   35 1   
    29   15   36 1   
    30   16   18 1   
    31   19   37 1   
@<TRIPOS>SUBSTRUCTURE
     1 AJB         1 TEMP              0 ****  ****    0 ROOT
