@<TRIPOS>MOLECULE
AJD
   31    29     1     0     0
SMALL
bcc


@<TRIPOS>ATOM
      1 OAA        -3.7820    0.6020    1.1610 o         1 AJD     -0.828800
      2 OAB        -4.1840    0.4930   -0.9780 o         1 AJD     -0.828800
      3 BRAC       -3.3310   -4.9770    0.3700 br        1 AJD     -0.248800
      4 CAD        -1.0460   -3.3250   -0.1490 c1        1 AJD     -0.089500
      5 CAE        -0.3850   -2.1300   -0.3860 c1        1 AJD     -0.089500
      6 CAF        -3.1110   -2.1300    0.1150 c1        1 AJD     -0.001500
      7 CAG         1.9340    2.5620    0.9010 c3        1 AJD     -0.100400
      8 CAH         2.9180    1.6450    0.7350 c3        1 AJD      0.146800
      9 CAI         0.6960    2.1480    0.2280 c3        1 AJD     -0.122400
     10 CAJ         1.9120    0.5830   -1.0380 c3        1 AJD      0.146800
     11 NAK         3.1520    0.9820   -0.3650 n3        1 AJD     -0.800200
     12 NAL        -0.4280    0.2750   -0.7020 n3        1 AJD     -0.683800
     13 CAM        -3.5320    0.1130    0.0280 c         1 AJD      0.860800
     14 CAN        -2.4090   -3.3250    0.1010 c1        1 AJD      0.027800
     15 CAO        -1.0860   -0.9350   -0.3730 c1        1 AJD      0.125800
     16 CAP        -2.4500   -0.9350   -0.1220 cg        1 AJD     -0.118200
     17 CAQ         0.6530    0.6100   -0.0830 c3        1 AJD      0.164500
     18 HAD        -0.5520   -4.1660   -0.1590 ha        1 AJD      0.061500
     19 HAE         0.5770   -2.1300   -0.5510 ha        1 AJD      0.061500
     20 HAF        -4.0700   -2.1300    0.2910 ha        1 AJD      0.108500
     21 HAG         1.7570    2.6710    1.8580 hc        1 AJD      0.050200
     22 HAGA        2.2290    3.4190    0.5310 hc        1 AJD      0.050200
     23 HAH         2.7760    0.9690    1.4320 h1        1 AJD      0.031200
     24 HAHA        3.7550    2.1060    0.9550 h1        1 AJD      0.031200
     25 HAI         0.6150    2.6410   -0.6130 hc        1 AJD      0.068200
     26 HAIA       -0.0640    2.3750    0.7990 hc        1 AJD      0.068200
     27 HAJ         2.0220   -0.3240   -1.3860 h1        1 AJD      0.054200
     28 HAJA        1.7510    1.1900   -1.7860 h1        1 AJD      0.054200
     29 HNAK        3.6480    0.2370   -0.1730 hn        1 AJD      0.335800
     30 HNAL       -0.7620    0.8120   -1.3610 hn        1 AJD      0.427800
     31 HAQ         0.7980    0.0750    0.7230 h1        1 AJD      0.038700
@<TRIPOS>BOND
     1    1   13 1   
     2    2   13 1   
     3    3   14 1   
     4    4    5 3   
     5    4   18 1   
     6    5   19 1   
     7    6   14 3   
     8    6   20 1   
     9    7    8 1   
    10    7    9 1   
    11    7   21 1   
    12    7   22 1   
    13    8   11 1   
    14    8   23 1   
    15    8   24 1   
    16    9   17 1   
    17    9   25 1   
    18    9   26 1   
    19   10   11 1   
    20   10   17 1   
    21   10   27 1   
    22   10   28 1   
    23   11   29 1   
    24   12   15 1   
    25   12   17 1   
    26   12   30 1   
    27   13   16 1   
    28   15   16 3   
    29   17   31 1   
@<TRIPOS>SUBSTRUCTURE
     1 AJD         1 TEMP              0 ****  ****    0 ROOT
