@<TRIPOS>MOLECULE
AJD
   32    29     1     0     0
SMALL
bcc


@<TRIPOS>ATOM
      1 OAA         0.0990    1.1360    0.0800 o         1 AJD     -0.260000
      2 OAB         1.4500    2.6480    0.8760 oh        1 AJD     -0.296000
      3 CAD         4.0280   -1.1380    3.1470 c2        1 AJD     -0.159000
      4 CAE         3.9950   -0.9660    1.8250 c2        1 AJD     -0.150000
      5 CAF         1.2300   -0.3000    2.6040 c1        1 AJD     -0.057000
      6 CAG         7.5070    2.2940   -1.9550 c2        1 AJD     -0.238000
      7 CAH         8.5230   -0.3580   -0.0640 c1        1 AJD     -0.211000
      8 CAI         6.7480    2.1720   -3.0360 c2        1 AJD     -0.238000
      9 CAJ         7.4170   -2.2520    1.0400 c3        1 AJD     -0.173000
     10 NAK         7.4680   -0.9950    0.3330 n3        1 AJD     -0.194000
     11 CAM         1.0690    1.3340    0.8040 c2        1 AJD      0.335000
     12 CAN         0.6290   -0.8270    3.5020 c1        1 AJD     -0.269000
     13 CAO         3.1620    0.0340    1.1480 c2        1 AJD      0.140000
     14 CAP         1.8830    0.3320    1.5400 c2        1 AJD     -0.132000
     15 CAQ         4.9350    0.3900   -0.4160 c1        1 AJD     -0.167000
     16 HAD         4.6740   -1.9010    3.6060 ha        1 AJD      0.128000
     17 HAE         4.6420   -1.5650    1.1540 ha        1 AJD      0.165000
     18 HAF         3.4310   -0.5440    3.8530 ha        1 AJD      0.128000
     19 HAHA        6.5530   -0.5910    0.1340 hn        1 AJD      0.279000
     20 HAI         6.3720    3.0340   -3.6030 ha        1 AJD      0.118000
     21 HAIA        6.4580    1.1960   -3.4480 ha        1 AJD      0.118000
     22 HAJ         8.4500   -2.6230    1.2660 h1        1 AJD      0.080333
     23 HAJA        5.2940    0.9670   -1.2960 ha        1 AJD      0.099000
     24 HNAK        6.8570   -2.1280    2.0060 h1        1 AJD      0.080333
     25 HAQ         6.8850   -3.0230    0.4210 h1        1 AJD      0.080333
     26 HAG         7.8960    1.4270   -1.3850 ha        1 AJD      0.118000
     27 BRAC       -0.2370   -1.5910    4.7980 br        1 AJD      0.253000
     28 HAGA        7.8050    3.2740   -1.5580 ha        1 AJD      0.118000
     29 NAL         3.7380    0.6930    0.0230 n3        1 AJD     -0.162000
     30 HAH         9.5140   -0.8070    0.1560 ha        1 AJD      0.039000
     31 HNAL        2.1050    2.7670    1.5780 ho        1 AJD      0.233000
     32 HAL2        3.1390    1.3850   -0.4000 hn        1 AJD      0.195000
@<TRIPOS>BOND
     1    1   11 1   
     2    2   11 1   
     3    2   31 1   
     4    3    4 1   
     5    3   16 1   
     6    3   18 1   
     7    4   13 1   
     8    4   17 1   
     9    5   12 1   
    10    5   14 1   
    11    6    8 1   
    12    6   26 1   
    13    6   28 1   
    14    7   10 1   
    15    7   30 1   
    16    8   20 1   
    17    8   21 1   
    18    9   10 1   
    19    9   22 1   
    20    9   24 1   
    21    9   25 1   
    22   10   19 1   
    23   11   14 1   
    24   12   27 1   
    25   13   14 1   
    26   13   29 1   
    27   15   23 1   
    28   15   29 1   
    29   29   32 1   
@<TRIPOS>SUBSTRUCTURE
     1 AJD         1 TEMP              0 ****  ****    0 ROOT
