@<TRIPOS>MOLECULE
AJD
   31    31     1     0     0
SMALL
bcc


@<TRIPOS>ATOM
      1 OAA         1.7800    0.4420   -0.4780 o         1 AJD     -0.520000
      2 OAB         3.7610   -0.5820   -0.7440 o         1 AJD     -0.520000
      3 CAD         2.9720    0.6830    3.2470 cu        1 AJD     -0.112000
      4 CAE         3.3170   -0.6310    3.7870 cx        1 AJD     -0.171000
      5 CAF         1.7500   -1.8830    1.4850 c1        1 AJD      0.111000
      6 CAG         7.1440    1.1710   -2.3690 c2        1 AJD     -0.125000
      7 CAH         7.6840    1.9260   -3.3240 c2        1 AJD     -0.268000
      8 CAI         6.0610    1.6070   -1.4680 c3        1 AJD     -0.223000
      9 CAJ         6.5570   -1.5710    0.5280 cx        1 AJD     -0.188000
     10 NAK         5.4340   -2.4370    0.8410 n7        1 AJD     -0.267000
     11 CAM         2.7120   -0.2960   -0.1060 c2        1 AJD      0.411000
     12 CAN         2.4930    1.8900    3.4040 c2        1 AJD     -0.191000
     13 CAO         3.5600   -0.3190    2.3000 cx        1 AJD      0.138000
     14 CAP         2.6170   -0.9250    1.3360 c2        1 AJD     -0.506000
     15 CAQ         5.6990   -1.3030    1.7390 cx        1 AJD     -0.053000
     16 HAD         2.5060   -1.3380    4.0430 hc        1 AJD      0.120000
     17 HAE         4.1830   -0.7170    4.4680 hc        1 AJD      0.120000
     18 HAF         2.4220    2.6140    2.5830 h4        1 AJD      0.166000
     19 HAH         8.4830    1.5600   -3.9800 ha        1 AJD      0.098000
     20 HAHA        7.3590    2.9550   -3.5200 ha        1 AJD      0.098000
     21 HAI         6.4210    1.5990   -0.4070 hc        1 AJD      0.101667
     22 HAIA        5.7050    2.6370   -1.7110 hc        1 AJD      0.101667
     23 HAJ         7.5610   -2.0250    0.6460 h1        1 AJD      0.108500
     24 HAJA        5.1860    0.9010   -1.5350 hc        1 AJD      0.101667
     25 HNAK        4.6370   -2.3370    0.2320 hn        1 AJD      0.197000
     26 HAQ         6.5020   -0.8800   -0.3430 h1        1 AJD      0.108500
     27 NAL         4.9210   -0.0930    1.8580 n7        1 AJD     -0.249000
     28 HAG         6.0480   -1.6160    2.7530 h2        1 AJD      0.131000
     29 HNAL        4.8890    0.3910    0.9700 hn        1 AJD      0.190000
     30 BrAC        1.8420    2.5610    5.0240 br        1 AJD     -0.020000
     31 HAGA        7.4900    0.1350   -2.2050 ha        1 AJD      0.113000
@<TRIPOS>BOND
     1    1   11 1   
     2    2   11 1   
     3    3    4 1   
     4    3   12 1   
     5    3   13 1   
     6    4   13 1   
     7    4   16 1   
     8    4   17 1   
     9    5   14 1   
    10    6    7 1   
    11    6    8 1   
    12    6   31 1   
    13    7   19 1   
    14    7   20 1   
    15    8   21 1   
    16    8   22 1   
    17    8   24 1   
    18    9   10 1   
    19    9   15 1   
    20    9   23 1   
    21    9   26 1   
    22   10   15 1   
    23   10   25 1   
    24   11   14 1   
    25   12   18 1   
    26   12   30 1   
    27   13   14 1   
    28   13   27 1   
    29   15   27 1   
    30   15   28 1   
    31   27   29 1   
@<TRIPOS>SUBSTRUCTURE
     1 AJD         1 TEMP              0 ****  ****    0 ROOT
