@<TRIPOS>MOLECULE
AJD
   31    32     1     0     0
SMALL
bcc


@<TRIPOS>ATOM
      1 OAA         0.6090    3.1930    1.1990 o         1 AJD     -0.830300
      2 OAB        -1.4590    2.3640    1.1820 o         1 AJD     -0.830300
      3 CAD         1.3950   -1.3660   -0.7510 ca        1 AJD     -0.111000
      4 CAE         0.0780   -1.0280   -1.0360 ca        1 AJD     -0.179000
      5 CAF         1.6390    0.6670    0.5280 ca        1 AJD     -0.060000
      6 CAG        -5.2980   -0.8800   -0.8430 c3        1 AJD     -0.073400
      7 CAH        -5.4380   -0.9470    0.6770 c3        1 AJD      0.163800
      8 CAI        -4.1880    0.0670   -1.2400 c3        1 AJD     -0.079400
      9 CAJ        -3.0740   -0.4480    0.9560 c3        1 AJD      0.106800
     10 NAK        -4.1950   -1.2870    1.3390 n3        1 AJD     -0.817200
     11 CAM        -0.2200    2.2850    0.9240 c         1 AJD      0.912200
     12 CAN         2.1830   -0.5150    0.0250 ca        1 AJD     -0.064900
     13 CAO        -0.4880    0.1710   -0.5430 ca        1 AJD      0.147600
     14 CAP         0.3100    1.0120    0.2720 ca        1 AJD     -0.170600
     15 CAQ        -2.8650   -0.3580   -0.5820 c3        1 AJD      0.197500
     16 HAD         1.8080   -2.3060   -1.1470 ha        1 AJD      0.119000
     17 HAE        -0.5230   -1.7060   -1.6600 ha        1 AJD      0.122000
     18 HAF         2.2380    1.3640    1.1400 ha        1 AJD      0.166000
     19 HAH        -5.8570    0.0410    1.0320 h1        1 AJD      0.015200
     20 HAHA       -6.1890   -1.7440    0.9430 h1        1 AJD      0.015200
     21 HAI        -4.0740    0.0700   -2.3540 hc        1 AJD      0.045700
     22 HAIA       -4.4510    1.1100   -0.9210 hc        1 AJD      0.045700
     23 HAJ        -3.1570    0.6060    1.3610 h1        1 AJD      0.065200
     24 HAJA       -2.1510   -0.9080    1.4110 h1        1 AJD      0.065200
     25 HNAK       -4.3230   -1.2230    2.3330 hn        1 AJD      0.350800
     26 HAQ        -2.5980   -1.3870   -0.9630 h1        1 AJD      0.050700
     27 NAL        -1.7890    0.5520   -0.9570 nh        1 AJD     -0.708600
     28 HAG        -5.0880   -1.9030   -1.2500 hc        1 AJD      0.034200
     29 HNAL       -2.0010    1.4870   -0.6300 hn        1 AJD      0.422800
     30 BRAC        3.9690   -0.9740    0.3910 br        1 AJD     -0.156100
     31 HAGA       -6.2700   -0.5320   -1.2770 hc        1 AJD      0.034200
@<TRIPOS>BOND
     1    1   11 1   
     2    2   11 1   
     3    3    4 ar  
     4    3   12 ar  
     5    3   16 1   
     6    4   13 ar  
     7    4   17 1   
     8    5   12 ar  
     9    5   14 ar  
    10    5   18 1   
    11    6    7 1   
    12    6    8 1   
    13    6   28 1   
    14    6   31 1   
    15    7   10 1   
    16    7   19 1   
    17    7   20 1   
    18    8   15 1   
    19    8   21 1   
    20    8   22 1   
    21    9   10 1   
    22    9   15 1   
    23    9   23 1   
    24    9   24 1   
    25   10   25 1   
    26   11   14 1   
    27   12   30 1   
    28   13   14 ar  
    29   13   27 1   
    30   15   26 1   
    31   15   27 1   
    32   27   29 1   
@<TRIPOS>SUBSTRUCTURE
     1 AJD         1 TEMP              0 ****  ****    0 ROOT
