@<TRIPOS>MOLECULE
AJD
   31    27     1     0     0
SMALL
bcc


@<TRIPOS>ATOM
      1 OAA         0.1450    2.6930   -0.0960 o         1 AJD     -0.210500
      2 OAB         1.5910    1.6970   -1.7020 o         1 AJD     -0.210500
      3 CAD         3.6120   -0.6880    4.2250 c1        1 AJD     -0.232000
      4 CAE         4.3910    0.3540    1.9080 c2        1 AJD     -0.285000
      5 CAF         2.0320   -1.8010    0.4750 c1        1 AJD     -0.285000
      6 CAG         7.1030    2.1860   -3.9860 c3        1 AJD     -0.158000
      7 CAH         6.4310    1.4390   -2.9070 c2        1 AJD     -0.257000
      8 CAI         5.7940    2.0240   -1.8800 c2        1 AJD     -0.125000
      9 CAJ         6.9600   -2.3440    3.6370 c3        1 AJD     -0.121000
     10 NAK         6.6420   -1.0480    4.1610 n3        1 AJD     -0.356000
     11 CAM         0.8780    2.1870   -0.8840 c1        1 AJD      0.422000
     12 CAN         3.2360   -1.1200    5.2910 c1        1 AJD     -0.566000
     13 CAO         3.8730    0.0440    0.7060 c2        1 AJD     -0.055000
     14 CAP         2.8740   -0.9540    0.5650 c1        1 AJD     -0.066000
     15 CAQ         5.3490    1.3480   -0.6940 c1        1 AJD     -0.172000
     16 HAD         3.9860   -0.1980    3.0240 ha        1 AJD      0.224500
     17 HAE         5.1720    1.1170    2.0100 ha        1 AJD      0.224500
     18 HAF         1.2940   -2.5550    0.4250 ha        1 AJD      0.206000
     19 HAH         5.9350   -1.1220    4.8730 hn        1 AJD      0.160000
     20 HAHA        6.5090    0.3440   -2.9740 ha        1 AJD      0.115000
     21 HAI         6.9640    3.2900   -3.8770 hc        1 AJD      0.060000
     22 HAIA        5.7280    3.1250   -1.8050 ha        1 AJD      0.122000
     23 HAJ         7.7410   -2.2360    2.8380 h1        1 AJD      0.051000
     24 HAJA        6.0860   -2.8960    3.1910 h1        1 AJD      0.051000
     25 HNAK        6.2720   -0.4590    3.4350 hn        1 AJD      0.160000
     26 HAQ         7.3820   -2.9800    4.4610 h1        1 AJD      0.051000
     27 NAL         4.2560    0.6690   -0.5400 n3        1 AJD     -0.091000
     28 HAG         8.2020    1.9720   -3.9840 hc        1 AJD      0.060000
     29 HNAL        3.5930    0.5300   -1.2860 hn        1 AJD      0.159000
     30 BRAC        2.6790   -1.7460    6.8360 br        1 AJD      0.068000
     31 HAGA        6.6950    1.8790   -4.9820 hc        1 AJD      0.060000
@<TRIPOS>BOND
     1    1   11 1   
     2    2   11 1   
     3    3   12 1   
     4    4   13 1   
     5    4   16 1   
     6    4   17 1   
     7    5   14 1   
     8    5   18 1   
     9    6    7 1   
    10    6   21 1   
    11    6   28 1   
    12    6   31 1   
    13    7    8 1   
    14    7   20 1   
    15    8   15 1   
    16    8   22 1   
    17    9   10 1   
    18    9   23 1   
    19    9   24 1   
    20    9   26 1   
    21   10   19 1   
    22   10   25 1   
    23   12   30 1   
    24   13   14 1   
    25   13   27 1   
    26   15   27 1   
    27   27   29 1   
@<TRIPOS>SUBSTRUCTURE
     1 AJD         1 TEMP              0 ****  ****    0 ROOT
