@<TRIPOS>MOLECULE
AJH
   56    58     1     0     0
SMALL
bcc


@<TRIPOS>ATOM
      1 CAP         5.2540   -0.3250   -0.7520 ca        1 AJH     -0.134000
      2 CAX         5.9860    0.8420   -0.9610 ca        1 AJH     -0.112000
      3 CAO         6.3740    1.6400    0.1200 ca        1 AJH     -0.107600
      4 CAJ         7.1330    2.9410   -0.1180 c         1 AJH      0.906200
      5 OAW         7.4560    3.6240    0.8930 o         1 AJH     -0.822800
      6 OBD         7.3810    3.2640   -1.3120 o         1 AJH     -0.822800
      7 CAY         6.0450    1.2410    1.4200 ca        1 AJH     -0.112000
      8 CAQ         5.3120    0.0760    1.6390 ca        1 AJH     -0.134000
      9 CAB         4.9070   -0.7020    0.5500 ca        1 AJH     -0.170600
     10 CAA         4.1050   -1.9360    0.7650 c         1 AJH      0.682700
     11 OAN         4.6110   -3.0710    0.8540 o         1 AJH     -0.603100
     12 NAD         2.7160   -1.7940    0.9050 n         1 AJH     -0.473800
     13 CAR         2.0640   -0.5350    0.6640 c3        1 AJH      0.068000
     14 CAS         1.5680   -0.3230   -0.7860 c3        1 AJH      0.052000
     15 CBE         1.8790   -2.9690    0.9290 c3        1 AJH      0.096000
     16 CBC         1.5300   -3.6000   -0.4200 c3        1 AJH     -0.128400
     17 CBF         1.3570   -2.6330   -1.5900 c3        1 AJH      0.093000
     18 NAE         0.7150   -1.3690   -1.2970 n         1 AJH     -0.453800
     19 CAC        -0.6690   -1.3190   -1.1950 c         1 AJH      0.653100
     20 OAU        -1.3560   -2.3090   -1.5290 o         1 AJH     -0.632100
     21 CAF        -1.3250   -0.0290   -0.7410 c3        1 AJH     -0.196400
     22 CAV        -2.8520   -0.1800   -0.5840 c3        1 AJH      0.190500
     23 NBG        -3.5820   -0.4730   -1.7960 n3        1 AJH     -0.913800
     24 CAT        -3.3550    1.1120    0.0940 c3        1 AJH     -0.040100
     25 CAG        -4.8270    1.1010    0.3020 ca        1 AJH     -0.072300
     26 CAM        -5.3650    0.6050    1.4880 ca        1 AJH     -0.121000
     27 CAL        -6.7520    0.5840    1.6990 ca        1 AJH      0.077900
     28 FBB        -7.2590    0.1010    2.8570 f         1 AJH     -0.128900
     29 CAK        -7.6240    1.0710    0.6900 ca        1 AJH      0.111900
     30 FBA        -8.9620    1.0530    0.8830 f         1 AJH     -0.127900
     31 CAH        -7.0930    1.5720   -0.5060 ca        1 AJH     -0.187000
     32 CAI        -5.7020    1.5870   -0.6970 ca        1 AJH      0.160900
     33 FAZ        -5.2090    2.0840   -1.8560 f         1 AJH     -0.130900
     34 HAP         4.9530   -0.9520   -1.6030 ha        1 AJH      0.115500
     35 HAX         6.2710    1.1640   -1.9760 ha        1 AJH      0.159000
     36 HAY         6.3760    1.8740    2.2590 ha        1 AJH      0.159000
     37 HAQ         5.0550   -0.2350    2.6610 ha        1 AJH      0.115500
     38 HAR         1.1840   -0.4550    1.3650 h1        1 AJH      0.064200
     39 HARA        2.7760    0.3080    0.9000 h1        1 AJH      0.064200
     40 HAS         1.0370    0.6680   -0.8280 h1        1 AJH      0.065200
     41 HASA        2.4700   -0.2510   -1.4630 h1        1 AJH      0.065200
     42 HBE         2.4060   -3.7520    1.5480 h1        1 AJH      0.053200
     43 HBEA        0.9200   -2.6960    1.4560 h1        1 AJH      0.053200
     44 HBC         2.3410   -4.3200   -0.7060 hc        1 AJH      0.056700
     45 HBCA        0.5830   -4.1840   -0.2830 hc        1 AJH      0.056700
     46 HBF         2.3730   -2.4020   -2.0240 h1        1 AJH      0.061200
     47 HBFA        0.7460   -3.1530   -2.3850 h1        1 AJH      0.061200
     48 HAF        -0.8930    0.2730    0.2500 hc        1 AJH      0.070200
     49 HAFA       -1.0970    0.7800   -1.4830 hc        1 AJH      0.070200
     50 HAV        -3.0390   -1.0460    0.1190 h1        1 AJH      0.073700
     51 HNBG       -3.4440    0.2420   -2.4820 hn        1 AJH      0.365300
     52 HNBA       -3.2930   -1.3600   -2.1670 hn        1 AJH      0.365300
     53 HAT        -2.8330    1.2140    1.0810 hc        1 AJH      0.057700
     54 HATA       -3.0740    1.9980   -0.5360 hc        1 AJH      0.057700
     55 HAM        -4.7000    0.2170    2.2760 ha        1 AJH      0.158000
     56 HAH        -7.7640    1.9460   -1.2920 ha        1 AJH      0.165000
@<TRIPOS>BOND
     1    1    2 ar  
     2    1    9 ar  
     3    1   34 1   
     4    2    3 ar  
     5    2   35 1   
     6    3    4 1   
     7    3    7 ar  
     8    4    5 1   
     9    4    6 1   
    10    7    8 ar  
    11    7   36 1   
    12    8    9 ar  
    13    8   37 1   
    14    9   10 1   
    15   10   11 2   
    16   10   12 1   
    17   12   13 1   
    18   12   15 1   
    19   13   14 1   
    20   13   38 1   
    21   13   39 1   
    22   14   18 1   
    23   14   40 1   
    24   14   41 1   
    25   15   16 1   
    26   15   42 1   
    27   15   43 1   
    28   16   17 1   
    29   16   44 1   
    30   16   45 1   
    31   17   18 1   
    32   17   46 1   
    33   17   47 1   
    34   18   19 1   
    35   19   20 2   
    36   19   21 1   
    37   21   22 1   
    38   21   48 1   
    39   21   49 1   
    40   22   23 1   
    41   22   24 1   
    42   22   50 1   
    43   23   51 1   
    44   23   52 1   
    45   24   25 1   
    46   24   53 1   
    47   24   54 1   
    48   25   26 ar  
    49   25   32 ar  
    50   26   27 ar  
    51   26   55 1   
    52   27   28 1   
    53   27   29 ar  
    54   29   30 1   
    55   29   31 ar  
    56   31   32 ar  
    57   31   56 1   
    58   32   33 1   
@<TRIPOS>SUBSTRUCTURE
     1 AJH         1 TEMP              0 ****  ****    0 ROOT
