@<TRIPOS>MOLECULE
AJH
   56    53     1     0     0
SMALL
bcc


@<TRIPOS>ATOM
      1 CAP         4.2020    0.9550    2.5880 c1        1 AJH     -0.121000
      2 CAX         5.6060    1.0790    2.6030 c1        1 AJH     -0.116000
      3 CAO         6.2770    1.0560    3.7780 c1        1 AJH     -0.082000
      4 CAJ         7.8330    1.1890    3.7910 c2        1 AJH      0.355000
      5 OAW         8.5130    0.2090    3.8630 o         1 AJH     -0.558000
      6 OBD         8.3570    2.3100    3.8580 o         1 AJH     -0.558000
      7 CAY         5.5670    0.9080    4.9930 c1        1 AJH     -0.124500
      8 CAQ         4.2050    0.7880    4.9800 c1        1 AJH     -0.124500
      9 CAB         3.5130    0.8110    3.7720 c1        1 AJH     -0.152000
     10 CAA         1.9000    0.7200    3.7690 c2        1 AJH      0.354000
     11 OAN         1.3080    0.6840    4.8000 o         1 AJH     -0.378000
     12 NAD         1.1640    0.7920    2.5100 n         1 AJH     -0.330000
     13 CAR         1.7740    0.8340    1.2030 c3        1 AJH     -0.050000
     14 CAS         1.3710   -0.3940    0.3780 c3        1 AJH     -0.061000
     15 CBE        -0.2460    0.8260    2.4090 c3        1 AJH     -0.019000
     16 CBC        -0.8350   -0.6020    2.4410 c3        1 AJH     -0.211000
     17 CBF        -0.7090   -1.2680    1.0790 c3        1 AJH     -0.023000
     18 NAE        -0.0260   -0.3970    0.1450 n         1 AJH     -0.314000
     19 CAC        -0.6790    0.3660   -0.8880 c2        1 AJH      0.302000
     20 OAU        -0.0360    1.0540   -1.6090 o         1 AJH     -0.394000
     21 CAF        -2.2430    0.3720   -0.9920 c3        1 AJH     -0.179000
     22 CAV        -2.6610    0.4460   -2.4850 c3        1 AJH     -0.008000
     23 NBG        -2.5530    1.7690   -2.9310 n3        1 AJH     -0.347000
     24 CAT        -4.1100   -0.0450   -2.6340 c3        1 AJH     -0.130000
     25 CAG        -4.2180   -0.9210   -3.8320 c2        1 AJH     -0.090000
     26 CAM        -3.7610   -2.2460   -3.7820 c2        1 AJH     -0.121000
     27 CAL        -3.9410   -3.0800   -4.8820 c1        1 AJH      0.045000
     28 FBB        -3.4450   -4.3230   -4.8700 f         1 AJH     -0.090000
     29 CAK        -4.5700   -2.5960   -6.0210 c1        1 AJH      0.079000
     30 FBA        -4.7510   -3.4060   -7.0930 f         1 AJH     -0.089000
     31 CAH        -5.0180   -1.2870   -6.0630 c1        1 AJH     -0.188000
     32 CAI        -4.8400   -0.4510   -4.9650 c1        1 AJH      0.107000
     33 FAZ        -5.3830    0.7560   -4.9680 f         1 AJH     -0.086000
     34 HAP         3.7020    0.8870    1.6930 ha        1 AJH      0.118000
     35 HAX         6.0950    1.1800    1.7660 ha        1 AJH      0.158000
     36 HAY         6.0660    0.8910    5.8680 ha        1 AJH      0.137500
     37 HAQ         3.7000    0.7570    5.8430 ha        1 AJH      0.137500
     38 HAR         2.7570    0.8510    1.3010 h1        1 AJH      0.110000
     39 HARA        1.4660    1.6920    0.7100 h1        1 AJH      0.110000
     40 HAS         1.6250   -1.2250    0.8770 h1        1 AJH      0.112500
     41 HASA        1.8520   -0.3760   -0.4970 h1        1 AJH      0.112500
     42 HBE        -0.6250    1.3660    3.1910 h1        1 AJH      0.094500
     43 HBEA       -0.5230    1.3050    1.4720 h1        1 AJH      0.094500
     44 HBC        -0.3500   -1.1360    3.1110 hc        1 AJH      0.092000
     45 HBCA       -1.8330   -0.5530    2.7020 hc        1 AJH      0.092000
     46 HBF        -1.6160   -1.4720    0.7280 h1        1 AJH      0.090500
     47 HBFA       -0.1740   -2.1520    1.1800 h1        1 AJH      0.090500
     48 HAF        -2.6240   -0.5130   -0.5630 hc        1 AJH      0.111500
     49 HAFA       -2.6340    1.2200   -0.4690 hc        1 AJH      0.111500
     50 HAV        -2.0570   -0.1360   -3.0280 h1        1 AJH      0.073000
     51 HNBG       -1.8160    2.1210   -2.6090 hn        1 AJH      0.158500
     52 HNBA       -2.5200    1.7850   -3.8560 hn        1 AJH      0.158500
     53 HAT        -4.3600   -0.5470   -1.8410 hc        1 AJH      0.105000
     54 HATA       -4.7160    0.7290   -2.7400 hc        1 AJH      0.105000
     55 HAM        -3.4460   -2.6270   -2.9200 ha        1 AJH      0.162000
     56 HAH        -5.5330   -0.9580   -6.8630 ha        1 AJH      0.168000
@<TRIPOS>BOND
     1    1    9 1   
     2    1   34 1   
     3    2    3 1   
     4    2   35 1   
     5    3    4 1   
     6    4    5 1   
     7    4    6 1   
     8    7    8 1   
     9    7   36 1   
    10    8   37 1   
    11    9   10 1   
    12   10   11 1   
    13   10   12 1   
    14   12   13 1   
    15   12   15 1   
    16   13   14 1   
    17   13   38 1   
    18   13   39 1   
    19   14   18 1   
    20   14   40 1   
    21   14   41 1   
    22   15   16 1   
    23   15   42 1   
    24   15   43 1   
    25   16   17 1   
    26   16   44 1   
    27   16   45 1   
    28   17   18 1   
    29   17   46 1   
    30   17   47 1   
    31   18   19 1   
    32   19   20 1   
    33   19   21 1   
    34   21   22 1   
    35   21   48 1   
    36   21   49 1   
    37   22   23 1   
    38   22   24 1   
    39   22   50 1   
    40   23   51 1   
    41   23   52 1   
    42   24   25 1   
    43   24   53 1   
    44   24   54 1   
    45   25   26 1   
    46   25   32 1   
    47   26   27 1   
    48   26   55 1   
    49   27   28 1   
    50   29   30 1   
    51   29   31 1   
    52   31   56 1   
    53   32   33 1   
@<TRIPOS>SUBSTRUCTURE
     1 AJH         1 TEMP              0 ****  ****    0 ROOT
