@<TRIPOS>MOLECULE
AJH
   57    59     1     0     0
SMALL
bcc


@<TRIPOS>ATOM
      1 CAP         0.1920   -0.4350   -0.4050 ca        1 AJH     -0.109500
      2 CAX         1.4960   -0.0230   -0.6740 ca        1 AJH     -0.089000
      3 CAO         2.1720    0.8000    0.2330 ca        1 AJH     -0.161600
      4 CAJ         3.5560    1.2480   -0.0110 c         1 AJH      0.636700
      5 OAW         4.4040    1.5100    0.8430 o         1 AJH     -0.478000
      6 OBD         4.0050    1.4260   -1.2910 oh        1 AJH     -0.574100
      7 CAY         1.5440    1.1930    1.4230 ca        1 AJH     -0.089000
      8 CAQ         0.2380    0.7870    1.6900 ca        1 AJH     -0.109500
      9 CAB        -0.4390   -0.0220    0.7730 ca        1 AJH     -0.099600
     10 CAA        -1.8140   -0.5250    1.0810 c         1 AJH      0.660700
     11 OAN        -1.9830   -1.7020    1.4530 o         1 AJH     -0.576100
     12 NAD        -2.8840    0.3610    0.9900 n         1 AJH     -0.461800
     13 CAR        -2.7350    1.6480    0.3670 c3        1 AJH      0.069000
     14 CAS        -2.8030    1.6420   -1.1820 c3        1 AJH      0.068000
     15 CBE        -4.2260   -0.1300    1.2240 c3        1 AJH      0.079000
     16 CBC        -5.2770    0.2510    0.1850 c3        1 AJH     -0.119400
     17 CBF        -4.7820    0.1850   -1.2590 c3        1 AJH      0.088000
     18 NAE        -4.1040    1.3740   -1.7310 n         1 AJH     -0.471800
     19 CAC        -4.8090    2.3060   -2.4900 c         1 AJH      0.663100
     20 OAU        -5.9980    2.0780   -2.7960 o         1 AJH     -0.615100
     21 CAF        -4.1090    3.5630   -2.9690 c3        1 AJH     -0.147400
     22 CAV        -4.9950    4.3450   -3.9560 c3        1 AJH      0.191500
     23 NBG        -5.1870    3.5980   -5.1870 n3        1 AJH     -0.918800
     24 CAT        -4.3350    5.7140   -4.2100 c3        1 AJH     -0.043100
     25 CAG        -5.2490    6.6380   -4.9330 ca        1 AJH     -0.106300
     26 CAM        -6.1550    7.4220   -4.2180 ca        1 AJH     -0.121000
     27 CAL        -7.0180    8.3110   -4.8740 ca        1 AJH      0.082900
     28 FBB        -7.8890    9.0640   -4.1660 f         1 AJH     -0.120900
     29 CAK        -6.9730    8.4180   -6.2910 ca        1 AJH      0.120900
     30 FBA        -7.7990    9.2730   -6.9320 f         1 AJH     -0.117900
     31 CAH        -6.0680    7.6340   -7.0180 ca        1 AJH     -0.185000
     32 CAI        -5.2130    6.7480   -6.3410 ca        1 AJH      0.139900
     33 FAZ        -4.3470    5.9990   -7.0640 f         1 AJH     -0.122900
     34 HAP        -0.3350   -1.0980   -1.1090 ha        1 AJH      0.154000
     35 HAX         1.9940   -0.3720   -1.5920 ha        1 AJH      0.153500
     36 HAY         2.0970    1.8150    2.1460 ha        1 AJH      0.153500
     37 HAQ        -0.2530    1.0910    2.6270 ha        1 AJH      0.154000
     38 HAR        -1.7330    2.0810    0.6500 h1        1 AJH      0.063700
     39 HARA       -3.5350    2.3290    0.7760 h1        1 AJH      0.063700
     40 HAS        -2.0880    0.8560   -1.5700 h1        1 AJH      0.054200
     41 HASA       -2.4240    2.6440   -1.5260 h1        1 AJH      0.054200
     42 HBE        -4.1870   -1.2570    1.3020 h1        1 AJH      0.065700
     43 HBEA       -4.5610    0.2680    2.2270 h1        1 AJH      0.065700
     44 HBC        -6.1280   -0.4740    0.2920 hc        1 AJH      0.059700
     45 HBCA       -5.6850    1.2710    0.4090 hc        1 AJH      0.059700
     46 HBF        -4.0730   -0.6850   -1.3700 h1        1 AJH      0.069700
     47 HBFA       -5.6700   -0.0020   -1.9300 h1        1 AJH      0.069700
     48 HAF        -3.8980    4.2170   -2.0830 hc        1 AJH      0.071700
     49 HAFA       -3.1390    3.3000   -3.4650 hc        1 AJH      0.071700
     50 HAV        -5.9830    4.5390   -3.4290 h1        1 AJH      0.034700
     51 HNBG        3.2900    1.2690   -1.9230 ho        1 AJH      0.426000
     52 HNBA       -5.6330    4.1700   -5.8750 hn        1 AJH      0.366300
     53 HAT        -4.0600    6.1640   -3.2190 hc        1 AJH      0.065700
     54 HATA       -3.3880    5.5760   -4.7980 hc        1 AJH      0.065700
     55 HAM        -6.2000    7.3480   -3.1200 ha        1 AJH      0.160000
     56 HAH        -6.0280    7.7130   -8.1150 ha        1 AJH      0.172000
     57 HBG3       -5.7430    2.7830   -5.0070 hn        1 AJH      0.366300
@<TRIPOS>BOND
     1    1    2 ar  
     2    1    9 ar  
     3    1   34 1   
     4    2    3 ar  
     5    2   35 1   
     6    3    4 1   
     7    3    7 ar  
     8    4    5 2   
     9    4    6 1   
    10    6   51 1   
    11    7    8 ar  
    12    7   36 1   
    13    8    9 ar  
    14    8   37 1   
    15    9   10 1   
    16   10   11 2   
    17   10   12 1   
    18   12   13 1   
    19   12   15 1   
    20   13   14 1   
    21   13   38 1   
    22   13   39 1   
    23   14   18 1   
    24   14   40 1   
    25   14   41 1   
    26   15   16 1   
    27   15   42 1   
    28   15   43 1   
    29   16   17 1   
    30   16   44 1   
    31   16   45 1   
    32   17   18 1   
    33   17   46 1   
    34   17   47 1   
    35   18   19 1   
    36   19   20 2   
    37   19   21 1   
    38   21   22 1   
    39   21   48 1   
    40   21   49 1   
    41   22   23 1   
    42   22   24 1   
    43   22   50 1   
    44   23   52 1   
    45   23   57 1   
    46   24   25 1   
    47   24   53 1   
    48   24   54 1   
    49   25   26 ar  
    50   25   32 ar  
    51   26   27 ar  
    52   26   55 1   
    53   27   28 1   
    54   27   29 ar  
    55   29   30 1   
    56   29   31 ar  
    57   31   32 ar  
    58   31   56 1   
    59   32   33 1   
@<TRIPOS>SUBSTRUCTURE
     1 AJH         1 TEMP              0 ****  ****    0 ROOT
