@<TRIPOS>MOLECULE
AJH
   57    59     1     0     0
SMALL
bcc


@<TRIPOS>ATOM
      1 CAP        -1.5020    1.2890   -2.1780 ca        1 AJH     -0.108000
      2 CAX        -0.6620    2.2450   -2.7480 ca        1 AJH     -0.088000
      3 CAO         0.5080    2.6310   -2.0850 ca        1 AJH     -0.165600
      4 CAJ         1.4280    3.6400   -2.6440 c         1 AJH      0.637700
      5 OAW         2.6220    3.7710   -2.3640 o         1 AJH     -0.489000
      6 OBD         0.9860    4.5660   -3.5460 oh        1 AJH     -0.578100
      7 CAY         0.8450    2.0360   -0.8610 ca        1 AJH     -0.088000
      8 CAQ        -0.0010    1.0900   -0.2850 ca        1 AJH     -0.108000
      9 CAB        -1.1810    0.7270   -0.9380 ca        1 AJH     -0.106600
     10 CAA        -2.0900   -0.3190   -0.3780 c         1 AJH      0.668700
     11 OAN        -2.1420   -1.4500   -0.8980 o         1 AJH     -0.579100
     12 NAD        -2.8600   -0.0250    0.7450 n         1 AJH     -0.462800
     13 CAR        -2.8880    1.2760    1.3510 c3        1 AJH      0.070000
     14 CAS        -4.1650    2.1350    1.1270 c3        1 AJH      0.072000
     15 CBE        -3.8430   -0.9910    1.1900 c3        1 AJH      0.084000
     16 CBC        -5.2270   -0.4320    1.5080 c3        1 AJH     -0.110400
     17 CBF        -5.8160    0.4450    0.4100 c3        1 AJH      0.092000
     18 NAE        -5.0910    1.6710    0.1340 n         1 AJH     -0.465800
     19 CAC        -5.1720    2.2170   -1.1430 c         1 AJH      0.660100
     20 OAU        -5.9640    1.7230   -1.9730 o         1 AJH     -0.615100
     21 CAF        -4.3280    3.4290   -1.4820 c3        1 AJH     -0.151400
     22 CAV        -4.5100    3.8590   -2.9490 c3        1 AJH      0.188500
     23 NBG        -4.0200    2.8430   -3.8650 n3        1 AJH     -0.925800
     24 CAT        -3.7720    5.2030   -3.1240 c3        1 AJH     -0.040100
     25 CAG        -3.8500    5.7160   -4.5170 ca        1 AJH     -0.105300
     26 CAM        -4.9250    6.5110   -4.9140 ca        1 AJH     -0.121000
     27 CAL        -5.0060    7.0170   -6.2190 ca        1 AJH      0.085900
     28 FBB        -6.0550    7.7860   -6.5880 f         1 AJH     -0.118900
     29 CAK        -3.9780    6.7200   -7.1550 ca        1 AJH      0.121900
     30 FBA        -4.0480    7.2040   -8.4140 f         1 AJH     -0.114900
     31 CAH        -2.8940    5.9220   -6.7660 ca        1 AJH     -0.180000
     32 CAI        -2.8340    5.4240   -5.4550 ca        1 AJH      0.139900
     33 FAZ        -1.7760    4.6550   -5.0980 f         1 AJH     -0.138900
     34 HAP        -2.4130    0.9720   -2.7110 ha        1 AJH      0.158500
     35 HAX        -0.9380    2.6760   -3.7250 ha        1 AJH      0.159000
     36 HAY         1.7880    2.3210   -0.3650 ha        1 AJH      0.159000
     37 HAQ         0.2680    0.6230    0.6750 ha        1 AJH      0.158500
     38 HAR        -2.7810    1.1330    2.4670 h1        1 AJH      0.056700
     39 HARA       -2.0020    1.8740    0.9980 h1        1 AJH      0.056700
     40 HAS        -3.8300    3.1820    0.8860 h1        1 AJH      0.052700
     41 HASA       -4.7200    2.1890    2.1100 h1        1 AJH      0.052700
     42 HBE        -3.4420   -1.4830    2.1240 h1        1 AJH      0.066200
     43 HBEA       -3.9490   -1.7910    0.3990 h1        1 AJH      0.066200
     44 HBC        -5.2010    0.1230    2.4820 hc        1 AJH      0.056200
     45 HBCA       -5.9180   -1.3060    1.6440 hc        1 AJH      0.056200
     46 HBF        -5.8850   -0.1570   -0.5450 h1        1 AJH      0.062200
     47 HBFA       -6.8680    0.7290    0.7070 h1        1 AJH      0.062200
     48 HAF        -4.6320    4.2850   -0.8240 hc        1 AJH      0.072700
     49 HAFA       -3.2460    3.1930   -1.2930 hc        1 AJH      0.072700
     50 HAV        -5.6170    4.0560   -3.1040 h1        1 AJH      0.038700
     51 HNBG       -4.5700    2.0090   -3.7680 hn        1 AJH      0.367300
     52 HNBA       -4.0770    3.1740   -4.8080 hn        1 AJH      0.367300
     53 HAT        -4.2340    5.9470   -2.4230 hc        1 AJH      0.061700
     54 HATA       -2.6950    5.0770   -2.8320 hc        1 AJH      0.061700
     55 HAM        -5.7270    6.7500   -4.1970 ha        1 AJH      0.162000
     56 HAH        -2.0940    5.6910   -7.4860 ha        1 AJH      0.175000
     57 HBG3        0.0420    4.4480   -3.7250 ho        1 AJH      0.433000
@<TRIPOS>BOND
     1    1    2 ar  
     2    1    9 ar  
     3    1   34 1   
     4    2    3 ar  
     5    2   35 1   
     6    3    4 1   
     7    3    7 ar  
     8    4    5 2   
     9    4    6 1   
    10    6   57 1   
    11    7    8 ar  
    12    7   36 1   
    13    8    9 ar  
    14    8   37 1   
    15    9   10 1   
    16   10   11 2   
    17   10   12 1   
    18   12   13 1   
    19   12   15 1   
    20   13   14 1   
    21   13   38 1   
    22   13   39 1   
    23   14   18 1   
    24   14   40 1   
    25   14   41 1   
    26   15   16 1   
    27   15   42 1   
    28   15   43 1   
    29   16   17 1   
    30   16   44 1   
    31   16   45 1   
    32   17   18 1   
    33   17   46 1   
    34   17   47 1   
    35   18   19 1   
    36   19   20 2   
    37   19   21 1   
    38   21   22 1   
    39   21   48 1   
    40   21   49 1   
    41   22   23 1   
    42   22   24 1   
    43   22   50 1   
    44   23   51 1   
    45   23   52 1   
    46   24   25 1   
    47   24   53 1   
    48   24   54 1   
    49   25   26 ar  
    50   25   32 ar  
    51   26   27 ar  
    52   26   55 1   
    53   27   28 1   
    54   27   29 ar  
    55   29   30 1   
    56   29   31 ar  
    57   31   32 ar  
    58   31   56 1   
    59   32   33 1   
@<TRIPOS>SUBSTRUCTURE
     1 AJH         1 TEMP              0 ****  ****    0 ROOT
