@<TRIPOS>MOLECULE
AJH
   57    59     1     0     0
SMALL
bcc


@<TRIPOS>ATOM
      1 CAP         0.1150   -0.5230   -0.4290 ca        1 AJH     -0.109500
      2 CAX         1.4260   -0.1530   -0.7210 ca        1 AJH     -0.089000
      3 CAO         2.1400    0.6550    0.1710 ca        1 AJH     -0.161600
      4 CAJ         3.5340    1.0590   -0.0970 c         1 AJH      0.636700
      5 OAW         4.4020    1.3000    0.7430 o         1 AJH     -0.478000
      6 OBD         3.9680    1.2150   -1.3840 oh        1 AJH     -0.574100
      7 CAY         1.5430    1.0740    1.3670 ca        1 AJH     -0.089000
      8 CAQ         0.2290    0.7100    1.6560 ca        1 AJH     -0.109500
      9 CAB        -0.4860   -0.0840    0.7550 ca        1 AJH     -0.099600
     10 CAA        -1.8710   -0.5430    1.0860 c         1 AJH      0.660700
     11 OAN        -2.0700   -1.7110    1.4690 o         1 AJH     -0.576100
     12 NAD        -2.9140    0.3760    1.0060 n         1 AJH     -0.461800
     13 CAR        -2.7360    1.6540    0.3710 c3        1 AJH      0.069000
     14 CAS        -2.8260    1.6390   -1.1770 c3        1 AJH      0.068000
     15 CBE        -4.2680   -0.0730    1.2620 c3        1 AJH      0.079000
     16 CBC        -5.3210    0.3330    0.2360 c3        1 AJH     -0.119400
     17 CBF        -4.8490    0.2430   -1.2150 c3        1 AJH      0.088000
     18 NAE        -4.1430    1.4080   -1.7050 n         1 AJH     -0.471800
     19 CAC        -4.8300    2.3550   -2.4610 c         1 AJH      0.663100
     20 OAU        -6.0300    2.1610   -2.7490 o         1 AJH     -0.615100
     21 CAF        -4.0990    3.5870   -2.9590 c3        1 AJH     -0.147400
     22 CAV        -4.9750    4.3880   -3.9400 c3        1 AJH      0.191500
     23 NBG        -5.2050    3.6380   -5.1630 n8        1 AJH     -0.918800
     24 CAT        -4.2770    5.7350   -4.2130 c3        1 AJH     -0.043100
     25 CAG        -5.1730    6.6800   -4.9310 ca        1 AJH     -0.106300
     26 CAM        -6.0450    7.4960   -4.2100 ca        1 AJH     -0.121000
     27 CAL        -6.8900    8.4060   -4.8620 ca        1 AJH      0.082900
     28 FBB        -7.7290    9.1900   -4.1490 f         1 AJH     -0.120900
     29 CAK        -6.8600    8.5010   -6.2800 ca        1 AJH      0.120900
     30 FBA        -7.6690    9.3760   -6.9180 f         1 AJH     -0.117900
     31 CAH        -5.9890    7.6850   -7.0130 ca        1 AJH     -0.185000
     32 CAI        -5.1520    6.7790   -6.3410 ca        1 AJH      0.139900
     33 FAZ        -4.3190    5.9990   -7.0690 f         1 AJH     -0.122900
     34 HAP        -0.4430   -1.1730   -1.1210 ha        1 AJH      0.154000
     35 HAX         1.9000   -0.5220   -1.6440 ha        1 AJH      0.153500
     36 HAY         2.1260    1.6830    2.0780 ha        1 AJH      0.153500
     37 HAQ        -0.2380    1.0350    2.5990 ha        1 AJH      0.154000
     38 HAR        -3.5090    2.3610    0.7870 h1        1 AJH      0.063700
     39 HARA       -1.7170    2.0580    0.6370 h1        1 AJH      0.063700
     40 HAS        -2.1410    0.8300   -1.5700 h1        1 AJH      0.053700
     41 HASA       -2.4230    2.6270   -1.5320 h1        1 AJH      0.053700
     42 HBE        -4.2620   -1.2000    1.3470 h1        1 AJH      0.065700
     43 HBEA       -4.5750    0.3420    2.2660 h1        1 AJH      0.065700
     44 HBC        -6.1920   -0.3640    0.3600 hc        1 AJH      0.059700
     45 HBCA       -5.6940    1.3670    0.4590 hc        1 AJH      0.059700
     46 HBF        -5.7530    0.0790   -1.8720 h1        1 AJH      0.069700
     47 HBFA       -4.1690   -0.6490   -1.3300 h1        1 AJH      0.069700
     48 HAF        -3.8560    4.2400   -2.0810 hc        1 AJH      0.071700
     49 HAFA       -3.1440    3.2910   -3.4660 hc        1 AJH      0.071700
     50 HAV        -5.9480    4.6150   -3.4020 h1        1 AJH      0.034700
     51 HNBG        3.2400    1.0760   -2.0050 ho        1 AJH      0.426000
     52 HNBA       -5.6440    4.2190   -5.8490 hn        1 AJH      0.366300
     53 HAT        -3.9760    6.1840   -3.2290 hc        1 AJH      0.065700
     54 HATA       -3.3430    5.5640   -4.8130 hc        1 AJH      0.065700
     55 HAM        -6.0780    7.4320   -3.1110 ha        1 AJH      0.160000
     56 HAH        -5.9610    7.7550   -8.1110 ha        1 AJH      0.172000
     57 HBG3       -5.7830    2.8420   -4.9680 hn        1 AJH      0.366300
@<TRIPOS>BOND
     1    1    2 ar  
     2    1    9 ar  
     3    1   34 1   
     4    2    3 ar  
     5    2   35 1   
     6    3    4 1   
     7    3    7 ar  
     8    4    5 2   
     9    4    6 1   
    10    6   51 1   
    11    7    8 ar  
    12    7   36 1   
    13    8    9 ar  
    14    8   37 1   
    15    9   10 1   
    16   10   11 2   
    17   10   12 1   
    18   12   13 1   
    19   12   15 1   
    20   13   14 1   
    21   13   38 1   
    22   13   39 1   
    23   14   18 1   
    24   14   40 1   
    25   14   41 1   
    26   15   16 1   
    27   15   42 1   
    28   15   43 1   
    29   16   17 1   
    30   16   44 1   
    31   16   45 1   
    32   17   18 1   
    33   17   46 1   
    34   17   47 1   
    35   18   19 1   
    36   19   20 2   
    37   19   21 1   
    38   21   22 1   
    39   21   48 1   
    40   21   49 1   
    41   22   23 1   
    42   22   24 1   
    43   22   50 1   
    44   23   52 1   
    45   23   57 1   
    46   24   25 1   
    47   24   53 1   
    48   24   54 1   
    49   25   26 ar  
    50   25   32 ar  
    51   26   27 ar  
    52   26   55 1   
    53   27   28 1   
    54   27   29 ar  
    55   29   30 1   
    56   29   31 ar  
    57   31   32 ar  
    58   31   56 1   
    59   32   33 1   
@<TRIPOS>SUBSTRUCTURE
     1 AJH         1 TEMP              0 ****  ****    0 ROOT
