@<TRIPOS>MOLECULE
AJI
   45    46     1     0     0
SMALL
bcc


@<TRIPOS>ATOM
      1 C1          0.3500    0.8840    0.5180 c3        1 AJI     -0.162000
      2 C2          4.4560    0.4130   -9.2370 c3        1 AJI     -0.101000
      3 C3         12.4600    1.0260   -0.5410 c2        1 AJI     -0.251000
      4 C4         12.4100   -0.5550   -2.4710 c3        1 AJI     -0.208000
      5 C5         11.0400    1.1220   -0.6150 c2        1 AJI      0.066000
      6 C6         10.9660   -0.4100   -2.4930 c1        1 AJI     -0.108000
      7 C7          8.8170    0.2100   -4.1620 c3        1 AJI     -0.222000
      8 C8          8.1450    0.0780   -5.4360 c1        1 AJI     -0.049000
      9 C9          2.3550   -0.0110    1.6650 c2        1 AJI     -0.361000
     10 C10         1.7590   -2.3260   -5.7370 c1        1 AJI      0.095000
     11 C11         1.8170    0.5800    0.5670 c2        1 AJI     -0.003000
     12 C12        13.1380    0.2220   -1.4230 c2        1 AJI      0.129000
     13 C13        10.3170    0.4100   -1.5480 c2        1 AJI     -0.480000
     14 C14         7.9870    0.2860   -2.9320 c2        1 AJI     -0.275000
     15 C15         6.7050   -0.0450   -5.3880 c2        1 AJI     -0.320000
     16 C16         6.5950    0.2100   -3.0860 c2        1 AJI     -0.144000
     17 C17         3.5240    0.5110   -1.1110 c1        1 AJI      0.195000
     18 C18         4.5060   -0.6600   -7.0350 c2        1 AJI     -0.102000
     19 C19         5.7650    0.3140   -1.8560 c2        1 AJI      0.366000
     20 N20         2.8310   -1.8730   -5.9810 n2        1 AJI     -0.263000
     21 N21         2.5400    1.0220   -0.5490 n2        1 AJI     -0.170000
     22 N22         5.9590    0.0450   -4.3050 n2        1 AJI      0.011000
     23 N23         4.0730   -1.4630   -6.0670 n2        1 AJI     -0.063000
     24 N24         4.3730    0.1240   -1.9580 n2        1 AJI     -0.215000
     25 N25         3.7770   -0.0920   -8.0820 n3        1 AJI     -0.314000
     26 O26         6.3230    0.5080   -0.7480 o         1 AJI     -0.368000
     27 S28         3.8990   -0.4800    2.0750 sh        1 AJI      0.189000
     28 S30         6.2050   -0.2290   -6.9920 ss        1 AJI      0.481000
     29 H1         -0.1260    0.3700   -0.3540 hc        1 AJI      0.094667
     30 H1A         0.1800    1.9840    0.4160 hc        1 AJI      0.094667
     31 H1B        -0.1470    0.5310    1.4550 hc        1 AJI      0.094667
     32 H2          3.7380    1.0570   -9.8120 h1        1 AJI      0.088000
     33 H2A         4.8240   -0.4070   -9.9130 h1        1 AJI      0.088000
     34 H2B         5.3350    1.0430   -8.9260 h1        1 AJI      0.088000
     35 H3         10.5360    1.7840    0.1130 ha        1 AJI      0.153000
     36 H4         12.8050   -0.2740   -3.4940 hc        1 AJI      0.185000
     37 H5         12.9950    1.6020    0.2290 ha        1 AJI      0.163000
     38 H6         12.6370   -1.6590   -2.3510 hc        1 AJI      0.185000
     39 H7          9.5090    1.1030   -4.2270 hc        1 AJI      0.208000
     40 H8          9.5360   -0.6850   -4.0740 hc        1 AJI      0.208000
     41 H9          1.6610   -0.2550    2.4940 h4        1 AJI      0.171000
     42 H10         2.8740   -0.4740   -8.2630 hn        1 AJI      0.216000
     43 HN24        4.6220   -0.0420    1.0500 hs        1 AJI      0.031000
     44 S29         8.6260    0.4450   -1.4200 ss        1 AJI      0.664000
     45 F27        14.4770    0.1010   -1.3810 f         1 AJI     -0.084000
@<TRIPOS>BOND
     1    1   11 1   
     2    1   29 1   
     3    1   30 1   
     4    1   31 1   
     5    2   25 1   
     6    2   32 1   
     7    2   33 1   
     8    2   34 1   
     9    3    5 1   
    10    3   12 1   
    11    3   37 1   
    12    4    6 1   
    13    4   12 1   
    14    4   36 1   
    15    4   38 1   
    16    5   13 1   
    17    5   35 1   
    18    6   13 1   
    19    7    8 1   
    20    7   14 1   
    21    7   39 1   
    22    7   40 1   
    23    8   15 1   
    24    9   11 1   
    25    9   27 1   
    26    9   41 1   
    27   10   20 1   
    28   11   21 1   
    29   12   45 1   
    30   13   44 1   
    31   14   16 1   
    32   14   44 1   
    33   15   22 1   
    34   15   28 1   
    35   16   19 1   
    36   16   22 1   
    37   17   21 1   
    38   17   24 1   
    39   18   23 1   
    40   18   25 1   
    41   18   28 1   
    42   19   24 1   
    43   19   26 1   
    44   20   23 1   
    45   25   42 1   
    46   27   43 1   
@<TRIPOS>SUBSTRUCTURE
     1 AJI         1 TEMP              0 ****  ****    0 ROOT
