@<TRIPOS>MOLECULE
AJI
   45    46     1     0     0
SMALL
bcc


@<TRIPOS>ATOM
      1 C1          0.2910    0.0430    0.3820 c3        1 AJI     -0.161000
      2 C2          4.4360    0.4670   -9.1990 c3        1 AJI     -0.100000
      3 C3         12.5210    0.8000   -0.5050 c2        1 AJI     -0.252000
      4 C4         12.4440   -0.6700   -2.5210 c3        1 AJI     -0.209000
      5 C5         11.1020    0.9120   -0.5630 c2        1 AJI      0.068000
      6 C6         11.0010   -0.5140   -2.5220 c1        1 AJI     -0.107000
      7 C7          8.8380    0.2180   -4.1390 c3        1 AJI     -0.221000
      8 C8          8.1450    0.1460   -5.4070 c1        1 AJI     -0.048000
      9 C9          2.2850    0.8980    1.5720 c2        1 AJI     -0.365000
     10 C10         1.7260   -2.1590   -5.6260 c1        1 AJI      0.095000
     11 C11         1.7580    0.3460    0.4480 c2        1 AJI     -0.003000
     12 C12        13.1860    0.0420   -1.4360 c2        1 AJI      0.131000
     13 C13        10.3660    0.2570   -1.5280 c2        1 AJI     -0.480000
     14 C14         8.0240    0.2830   -2.8960 c2        1 AJI     -0.275000
     15 C15         6.7030    0.0640   -5.3430 c2        1 AJI     -0.320000
     16 C16         6.6300    0.3120   -3.0410 c2        1 AJI     -0.148000
     17 C17         3.5300    0.4160   -1.1590 c1        1 AJI      0.186000
     18 C18         4.4790   -0.5390   -6.9650 c2        1 AJI     -0.098000
     19 C19         5.8130    0.4630   -1.8070 c2        1 AJI      0.369000
     20 N20         2.8000   -1.7120   -5.8750 n2        1 AJI     -0.263000
     21 N21         2.4770   -0.0530   -0.6850 n2        1 AJI     -0.159000
     22 N22         5.9730    0.1850   -4.2520 n2        1 AJI      0.009000
     23 N23         4.0430   -1.3040   -5.9680 n2        1 AJI     -0.071000
     24 N24         4.4480    0.7910   -1.9320 n2        1 AJI     -0.220000
     25 N25         3.7540   -0.0120   -8.0350 n7        1 AJI     -0.315000
     26 O26         6.3650    0.3990   -0.6830 o         1 AJI     -0.360000
     27 S28         3.8220    1.3510    2.0220 sh        1 AJI      0.187000
     28 S30         6.1780   -0.1070   -6.9410 ss        1 AJI      0.482000
     29 H1         -0.1800    0.5820   -0.4780 hc        1 AJI      0.094667
     30 H1A         0.1230   -1.0540    0.2440 hc        1 AJI      0.094667
     31 H1B        -0.2120    0.3670    1.3250 hc        1 AJI      0.094667
     32 H2          4.8240   -0.3680   -9.8450 h1        1 AJI      0.088333
     33 H2A         3.7140    1.0810   -9.8020 h1        1 AJI      0.088333
     34 H2B         5.3020    1.1210   -8.8990 h1        1 AJI      0.088333
     35 H3         10.6090    1.5380    0.2040 ha        1 AJI      0.154000
     36 H4         12.8330   -0.3340   -3.5290 hc        1 AJI      0.185000
     37 H5         13.0670    1.3290    0.2910 ha        1 AJI      0.163000
     38 H6         12.6640   -1.7800   -2.4650 hc        1 AJI      0.185000
     39 H7          9.5500    1.0960   -4.1860 hc        1 AJI      0.207500
     40 H8          9.5360   -0.6950   -4.0880 hc        1 AJI      0.207500
     41 H9          1.5820    1.1140    2.4000 h4        1 AJI      0.170000
     42 H10         2.8530   -0.4020   -8.2080 hn        1 AJI      0.217000
     43 HN24        4.5690    0.9110    1.0150 hs        1 AJI      0.031000
     44 S29         8.6770    0.2900   -1.3820 ss        1 AJI      0.662000
     45 F27        14.5240   -0.0920   -1.4120 f         1 AJI     -0.084000
@<TRIPOS>BOND
     1    1   11 1   
     2    1   29 1   
     3    1   30 1   
     4    1   31 1   
     5    2   25 1   
     6    2   32 1   
     7    2   33 1   
     8    2   34 1   
     9    3    5 1   
    10    3   12 1   
    11    3   37 1   
    12    4    6 1   
    13    4   12 1   
    14    4   36 1   
    15    4   38 1   
    16    5   13 1   
    17    5   35 1   
    18    6   13 1   
    19    7    8 1   
    20    7   14 1   
    21    7   39 1   
    22    7   40 1   
    23    8   15 1   
    24    9   11 1   
    25    9   27 1   
    26    9   41 1   
    27   10   20 1   
    28   11   21 1   
    29   12   45 1   
    30   13   44 1   
    31   14   16 1   
    32   14   44 1   
    33   15   22 1   
    34   15   28 1   
    35   16   19 1   
    36   16   22 1   
    37   17   21 1   
    38   17   24 1   
    39   18   23 1   
    40   18   25 1   
    41   18   28 1   
    42   19   24 1   
    43   19   26 1   
    44   20   23 1   
    45   25   42 1   
    46   27   43 1   
@<TRIPOS>SUBSTRUCTURE
     1 AJI         1 TEMP              0 ****  ****    0 ROOT
