@<TRIPOS>MOLECULE
AJI
   45    38     1     0     0
SMALL
bcc


@<TRIPOS>ATOM
      1 C1         -6.8660    1.1610    2.2990 c3        1 AJI     -0.147000
      2 C2         -2.0410    0.0460   -5.7600 c3        1 AJI     -0.084000
      3 C3          4.7450   -2.5610    3.2510 c1        1 AJI     -0.115500
      4 C4          6.0380   -0.5060    3.3150 c1        1 AJI     -0.175000
      5 C5          3.6430   -1.8600    2.8500 c1        1 AJI     -0.115500
      6 C6          4.9240    0.2030    2.9090 c1        1 AJI     -0.081500
      7 C7          2.5280    0.4880   -0.2500 c1        1 AJI     -0.081500
      8 C8          2.0740    0.2240   -1.5340 c1        1 AJI     -0.129000
      9 C9         -5.1340   -0.3260    3.3200 c1        1 AJI     -0.523000
     10 C10        -0.3080    1.3100   -6.5160 c1        1 AJI     -0.224000
     11 C11        -5.7610    0.1060    2.0990 c2        1 AJI     -0.052000
     12 C12         5.9560   -1.8950    3.4890 c1        1 AJI      0.122000
     13 C13         3.7190   -0.4670    2.6730 c1        1 AJI     -0.296000
     14 C14         1.6530    0.4640    0.7980 c1        1 AJI     -0.296000
     15 C15         0.7480   -0.0600   -1.7470 c1        1 AJI     -0.219000
     16 C16         0.3280    0.1800    0.5780 c1        1 AJI     -0.043000
     17 C17        -3.3730    0.0090    1.6100 c1        1 AJI     -0.175000
     18 C18         0.0440    0.8020   -4.4440 c1        1 AJI     -0.224000
     19 C19        -0.9050    0.2420    1.4190 c2        1 AJI      0.361000
     20 N20         0.8760    1.8210   -6.1610 n2        1 AJI     -0.054500
     21 N21        -4.6420    0.3170    1.0170 n2        1 AJI     -0.166000
     22 N22        -0.1190   -0.0820   -0.6970 n1        1 AJI     -0.118000
     23 N23         1.0930    1.5050   -4.8780 n2        1 AJI     -0.054500
     24 N24        -2.1890   -0.1420    0.8510 n2        1 AJI     -0.285000
     25 N25        -0.8210    0.6810   -5.4570 n3        1 AJI     -0.119000
     26 O26        -0.8470    0.7150    2.5960 o         1 AJI     -0.308000
     27 F27         7.0340   -2.5910    3.9910 f         1 AJI     -0.096000
     28 S28        -3.6240   -0.4050    3.0700 ss        1 AJI      0.608000
     29 S29         2.2650    0.6090    2.4690 ss        1 AJI      0.420000
     30 S30         0.2090   -0.6200   -3.3490 s         1 AJI      0.492000
     31 H1         -6.7700    1.9280    1.5500 hc        1 AJI      0.090000
     32 H1A        -6.7750    1.5820    3.2330 hc        1 AJI      0.090000
     33 H1B        -7.7830    0.7170    2.2160 hc        1 AJI      0.090000
     34 H2         -2.4580   -0.2840   -4.9300 h1        1 AJI      0.106667
     35 H2A        -2.6690    0.7120   -6.2220 h1        1 AJI      0.106667
     36 H2B        -1.8730   -0.7020   -6.3570 h1        1 AJI      0.106667
     37 H3          4.6910   -3.5230    3.3700 ha        1 AJI      0.155000
     38 H4          6.9110   -0.0250    3.4880 ha        1 AJI      0.158000
     39 H5          2.8730   -2.2880    2.7010 ha        1 AJI      0.155000
     40 H6          4.9800    1.2280    2.7760 ha        1 AJI      0.153500
     41 H7          3.4300    0.6810   -0.1030 ha        1 AJI      0.153500
     42 H8          2.7200    0.2410   -2.3140 ha        1 AJI      0.161000
     43 H9         -5.5840   -0.5320    4.1510 DU        1 AJI      0.197500
     44 H10        -0.7100    1.3810   -7.3650 DU        1 AJI      0.197500
     45 HN24       -2.2300   -0.4850   -0.0040 hn        1 AJI      0.255000
@<TRIPOS>BOND
     1    1   11 1   
     2    1   31 1   
     3    1   32 1   
     4    1   33 1   
     5    2   25 1   
     6    2   34 1   
     7    2   35 1   
     8    2   36 1   
     9    3    5 1   
    10    3   37 1   
    11    4   12 1   
    12    4   38 1   
    13    5   39 1   
    14    6   13 1   
    15    6   40 1   
    16    7   14 1   
    17    7   41 1   
    18    8   15 1   
    19    8   42 1   
    20    9   11 1   
    21    9   28 1   
    22   10   20 1   
    23   10   25 1   
    24   11   21 1   
    25   12   27 1   
    26   13   29 1   
    27   14   29 1   
    28   15   30 1   
    29   16   19 1   
    30   16   22 1   
    31   17   21 1   
    32   17   28 1   
    33   18   23 1   
    34   18   25 1   
    35   19   24 1   
    36   19   26 1   
    37   20   23 1   
    38   24   45 1   
@<TRIPOS>SUBSTRUCTURE
     1 AJI         1 TEMP              0 ****  ****    0 ROOT
