@<TRIPOS>MOLECULE
AJI
   45    48     1     0     0
SMALL
bcc


@<TRIPOS>ATOM
      1 C1          4.3050    5.0350    0.6770 c3        1 AJI     -0.124400
      2 C2          3.1620   -3.8920   -1.2280 c3        1 AJI      0.011600
      3 C3         -5.0950    0.6990    1.4680 ca        1 AJI     -0.166000
      4 C4         -5.7690    1.3560   -0.7840 ca        1 AJI     -0.166000
      5 C5         -3.8050    0.4740    1.0030 ca        1 AJI     -0.073500
      6 C6         -4.4760    1.1070   -1.2300 ca        1 AJI     -0.073500
      7 C7         -1.9240   -1.9230    0.1760 ca        1 AJI     -0.089000
      8 C8         -1.2510   -3.0430    0.6350 ca        1 AJI     -0.204300
      9 C9          3.6720    3.8500   -1.4770 cc        1 AJI     -0.316400
     10 C10         4.6890   -3.8450    0.7750 cc        1 AJI      0.368400
     11 C11         3.6300    3.9620   -0.0900 cd        1 AJI      0.373600
     12 C12        -6.0850    1.1470    0.5720 ca        1 AJI      0.145900
     13 C13        -3.4810    0.6740   -0.3430 ca        1 AJI     -0.079100
     14 C14        -1.2080   -0.8280   -0.3440 ca        1 AJI     -0.126400
     15 C15         0.1650   -3.0680    0.5610 ca        1 AJI      0.441600
     16 C16         0.2030   -0.9510   -0.3730 ca        1 AJI      0.384800
     17 C17         2.3890    2.1260   -0.3770 cc        1 AJI      0.488300
     18 C18         2.5390   -4.1840    1.2310 cc        1 AJI      0.345800
     19 C19         1.0460    0.1600   -0.9600 c         1 AJI      0.577600
     20 N20         4.5300   -3.9660    2.1330 nd        1 AJI     -0.354000
     21 N21         2.8930    2.9750    0.5500 nd        1 AJI     -0.681000
     22 N22         0.8770   -2.0350    0.0610 nb        1 AJI     -0.644000
     23 N23         3.2670   -4.1530    2.4020 nd        1 AJI     -0.283000
     24 N24         1.6000    1.0250   -0.0340 n         1 AJI     -0.509400
     25 N25         3.4470   -3.9880    0.1660 na        1 AJI     -0.273700
     26 O26         1.2360    0.2590   -2.1840 o         1 AJI     -0.565100
     27 S28         2.8110    2.5340   -2.0110 ss        1 AJI      0.005700
     28 S30         0.8930   -4.5020    1.1160 ss        1 AJI     -0.153600
     29 H1          3.5580    5.6270    1.2630 hc        1 AJI      0.051700
     30 H1A         5.0460    4.5980    1.3930 hc        1 AJI      0.051700
     31 H1B         4.8400    5.7220   -0.0220 hc        1 AJI      0.051700
     32 H2          3.9610   -4.4230   -1.8100 h1        1 AJI      0.070033
     33 H2A         2.1660   -4.3660   -1.4410 h1        1 AJI      0.070033
     34 H2B         3.1270   -2.8130   -1.5430 h1        1 AJI      0.070033
     35 H3         -5.3490    0.5400    2.5260 ha        1 AJI      0.156500
     36 H4         -6.5470    1.7070   -1.4780 ha        1 AJI      0.156500
     37 H5         -3.0280    0.1390    1.7100 ha        1 AJI      0.150500
     38 H6         -4.2290    1.2570   -2.2940 ha        1 AJI      0.150500
     39 H7         -3.0260   -1.8840    0.2170 ha        1 AJI      0.156000
     40 H8         -1.7960   -3.9030    1.0520 ha        1 AJI      0.161000
     41 H9          4.2000    4.5360   -2.1360 h4        1 AJI      0.181000
     42 H10         5.6250   -3.6670    0.2390 h5        1 AJI      0.076100
     43 HN24        1.4480    0.8550    0.9380 hn        1 AJI      0.350500
     44 S29        -1.9120    0.5640   -0.9830 ss        1 AJI     -0.031800
     45 F27        -7.3420    1.3750    1.0150 f         1 AJI     -0.132900
@<TRIPOS>BOND
     1    1   11 1   
     2    1   29 1   
     3    1   30 1   
     4    1   31 1   
     5    2   25 1   
     6    2   32 1   
     7    2   33 1   
     8    2   34 1   
     9    3    5 ar  
    10    3   12 ar  
    11    3   35 1   
    12    4    6 ar  
    13    4   12 ar  
    14    4   36 1   
    15    5   13 ar  
    16    5   37 1   
    17    6   13 ar  
    18    6   38 1   
    19    7    8 ar  
    20    7   14 ar  
    21    7   39 1   
    22    8   15 ar  
    23    8   40 1   
    24    9   11 2   
    25    9   27 1   
    26    9   41 1   
    27   10   20 2   
    28   10   25 1   
    29   10   42 1   
    30   11   21 1   
    31   12   45 1   
    32   13   44 1   
    33   14   16 ar  
    34   14   44 1   
    35   15   22 ar  
    36   15   28 1   
    37   16   19 1   
    38   16   22 ar  
    39   17   21 2   
    40   17   24 1   
    41   17   27 1   
    42   18   23 2   
    43   18   25 1   
    44   18   28 1   
    45   19   24 1   
    46   19   26 2   
    47   20   23 1   
    48   24   43 1   
@<TRIPOS>SUBSTRUCTURE
     1 AJI         1 TEMP              0 ****  ****    0 ROOT
