@<TRIPOS>MOLECULE
AJI
   45    47     1     0     0
SMALL
bcc


@<TRIPOS>ATOM
      1 C1          0.2850    0.2440    0.7290 c3        1 AJI     -0.147000
      2 C2          3.4940    0.6210   -9.0190 c2        1 AJI     -0.656000
      3 C3         12.5070    1.5530   -0.7850 c3        1 AJI     -0.191000
      4 C4         12.4720   -0.7660   -1.8920 c3        1 AJI     -0.191000
      5 C5         11.0560    1.4180   -0.9110 c1        1 AJI     -0.046500
      6 C6         11.0280   -0.6290   -2.1460 c1        1 AJI     -0.046500
      7 C7          8.9000    0.0710   -4.0270 c3        1 AJI     -0.208000
      8 C8          8.2360   -0.0910   -5.3060 c1        1 AJI     -0.060000
      9 C9          2.6930    0.4560    1.5070 c2        1 AJI     -0.530000
     10 C10         1.2960   -0.6860   -6.1470 c1        1 AJI      0.134000
     11 C11         1.7480    0.2880    0.4980 c2        1 AJI     -0.051000
     12 C12        13.0310    0.1760   -0.8780 c2        1 AJI      0.121000
     13 C13        10.3500    0.4110   -1.4650 c2        1 AJI     -0.583000
     14 C14         8.0580    0.1920   -2.8040 c2        1 AJI     -0.297000
     15 C15         6.8010   -0.1580   -5.2800 c2        1 AJI     -0.341000
     16 C16         6.6610    0.1080   -2.9830 c2        1 AJI     -0.193000
     17 C17         3.6280    0.2380   -0.7090 c2        1 AJI     -0.168000
     18 C18         4.6170   -0.4740   -7.0620 c2        1 AJI     -0.382000
     19 C19         5.8240    0.2150   -1.7550 c2        1 AJI      0.358000
     20 N20         2.4840   -0.6090   -6.2020 n2        1 AJI     -0.284000
     21 N21         2.2770    0.1620   -0.7800 n2        1 AJI     -0.150000
     22 N22         6.0460   -0.0620   -4.1990 n2        1 AJI     -0.005000
     23 N23         3.7820   -0.4960   -6.0490 n2        1 AJI      0.006000
     24 N24         4.4500    0.1450   -1.8340 n         1 AJI     -0.253000
     25 N25         4.2080   -0.4650   -8.5650 n4        1 AJI      0.182000
     26 O26         6.4030    0.3690   -0.6420 o         1 AJI     -0.395000
     27 S28         4.2400    0.4610    0.9030 ss        1 AJI      0.592000
     28 S30         6.3060   -0.3590   -6.8860 ss        1 AJI      0.484000
     29 H1         -0.2250    1.0660    0.1680 hc        1 AJI      0.090000
     30 H1A        -0.1360   -0.7320    0.3800 hc        1 AJI      0.090000
     31 H1B         0.0690    0.3610    1.8180 hc        1 AJI      0.090000
     32 H2          5.0930   -0.5390   -9.0700 hn        1 AJI      0.218500
     33 H2A         2.4260    0.6700   -8.8010 hx        1 AJI      0.132000
     34 H2B         4.0330    1.5510   -9.2070 hx        1 AJI      0.132000
     35 H3         12.8450    2.2010   -1.6470 hc        1 AJI      0.177500
     36 H4         12.9900   -0.5850   -2.8830 hc        1 AJI      0.177500
     37 H5         12.8170    2.0660    0.1660 hc        1 AJI      0.177500
     38 H6         12.6740   -1.8380   -1.6050 hc        1 AJI      0.177500
     39 H7          9.5900    0.9640   -4.1150 hc        1 AJI      0.194000
     40 H8          9.5990   -0.8270   -3.9080 hc        1 AJI      0.194000
     41 H9          2.4530    0.5700    2.5620 h4        1 AJI      0.177000
     42 H10         3.6700   -1.3240   -8.6890 hn        1 AJI      0.218500
     43 HN24        4.0060    0.0230   -2.7240 hn        1 AJI      0.285000
     44 S29         8.6610    0.3900   -1.3070 ss        1 AJI      0.814000
     45 F27        13.7240   -0.3290    0.1350 f         1 AJI     -0.045000
@<TRIPOS>BOND
     1    1   11 1   
     2    1   29 1   
     3    1   30 1   
     4    1   31 1   
     5    2   25 1   
     6    2   33 1   
     7    2   34 1   
     8    3    5 1   
     9    3   12 1   
    10    3   35 1   
    11    3   37 1   
    12    4    6 1   
    13    4   12 1   
    14    4   36 1   
    15    4   38 1   
    16    5   13 1   
    17    6   13 1   
    18    7    8 1   
    19    7   14 1   
    20    7   39 1   
    21    7   40 1   
    22    8   15 1   
    23    9   11 1   
    24    9   27 1   
    25    9   41 1   
    26   10   20 1   
    27   11   21 1   
    28   12   45 1   
    29   13   44 1   
    30   14   16 1   
    31   14   44 1   
    32   15   22 1   
    33   15   28 1   
    34   16   19 1   
    35   16   22 1   
    36   17   21 1   
    37   17   24 1   
    38   17   27 1   
    39   18   23 1   
    40   18   25 1   
    41   18   28 1   
    42   19   24 1   
    43   19   26 1   
    44   20   23 1   
    45   24   43 1   
    46   25   32 1   
    47   25   42 1   
@<TRIPOS>SUBSTRUCTURE
     1 AJI         1 TEMP              0 ****  ****    0 ROOT
