@<TRIPOS>MOLECULE
AJM
   44    49     1     0     0
SMALL
bcc


@<TRIPOS>ATOM
      1 O1         -0.3270   -2.9510   -0.3770 oh        1 AJM     -0.591800
      2 C15         0.2010   -1.6900   -0.7510 c3        1 AJM      0.161100
      3 C5         -0.5760   -0.5900   -0.0030 c3        1 AJM      0.001300
      4 C4          0.0780   -0.6020    1.3870 c3        1 AJM     -0.061400
      5 C6         -2.0600   -0.5020    0.1230 ca        1 AJM     -0.104300
      6 C7         -3.0150   -1.4680    0.3590 ca        1 AJM     -0.077000
      7 C8         -4.3470   -1.0670    0.5470 ca        1 AJM     -0.161000
      8 C9         -4.6950    0.2780    0.5090 ca        1 AJM     -0.107000
      9 C11        -2.4160    0.8910    0.0640 ca        1 AJM      0.098600
     10 C10        -3.7400    1.2740    0.2630 ca        1 AJM     -0.159000
     11 C14         1.6620   -1.5100   -0.2460 c3        1 AJM     -0.130700
     12 C13         2.5910   -0.8430   -1.2690 c3        1 AJM     -0.063700
     13 C16         3.8400   -0.3550   -0.5270 c3        1 AJM     -0.098400
     14 C3          1.5580   -0.5530    1.0000 c3        1 AJM      0.146500
     15 N2          1.9310    0.8260    0.6200 n3        1 AJM     -0.683600
     16 C17         3.4030    0.8280    0.3780 c3        1 AJM      0.349300
     17 O2          4.1340    0.6810    1.5900 oh        1 AJM     -0.599800
     18 C2          1.2440    1.1630   -0.6510 c3        1 AJM      0.175500
     19 C12         1.9250    0.4140   -1.8370 c3        1 AJM     -0.115400
     20 C1         -0.2560    0.7840   -0.7110 c3        1 AJM      0.181500
     21 N1         -1.2670    1.7200   -0.1610 nh        1 AJM     -0.587000
     22 C18        -1.4740    2.9180   -0.9310 c3        1 AJM      0.160100
     23 HO1         0.2310   -3.6180   -0.7940 ho        1 AJM      0.400000
     24 H15         0.1300   -1.5760   -1.8650 h1        1 AJM      0.042700
     25 H41        -0.1580   -1.5570    1.9170 hc        1 AJM      0.074200
     26 H42        -0.2420    0.2590    2.0190 hc        1 AJM      0.074200
     27 H7         -2.7290   -2.5300    0.3950 ha        1 AJM      0.152000
     28 H8         -5.1180   -1.8290    0.7300 ha        1 AJM      0.131000
     29 H9         -5.7420    0.5760    0.6700 ha        1 AJM      0.128000
     30 H10        -4.0400    2.3300    0.2340 ha        1 AJM      0.135000
     31 H14         2.0820   -2.4970    0.0680 hc        1 AJM      0.066700
     32 H13         2.8620   -1.5570   -2.0840 hc        1 AJM      0.060700
     33 H161        4.2780   -1.1710    0.1000 hc        1 AJM      0.062700
     34 H162        4.6170   -0.0070   -1.2480 hc        1 AJM      0.062700
     35 H3          2.2290   -0.8940    1.8310 h1        1 AJM      0.086700
     36 H17         3.6750    1.8170   -0.0940 h2        1 AJM      0.049700
     37 HO2         3.8150    1.3450    2.2140 ho        1 AJM      0.416000
     38 H2          1.3520    2.2750   -0.7920 h1        1 AJM      0.072700
     39 H121        1.2000    0.1490   -2.6430 hc        1 AJM      0.050700
     40 H122        2.6980    1.0770   -2.3000 hc        1 AJM      0.050700
     41 H1         -0.4960    0.6550   -1.8150 h1        1 AJM      0.033700
     42 H181       -1.8130    2.7230   -1.9860 h1        1 AJM      0.038367
     43 H182       -2.2470    3.5470   -0.4160 h1        1 AJM      0.038367
     44 H183       -0.5080    3.4870   -0.9650 h1        1 AJM      0.038367
@<TRIPOS>BOND
     1    1    2 1   
     2    1   23 1   
     3    2    3 1   
     4    2   11 1   
     5    2   24 1   
     6    3    4 1   
     7    3    5 1   
     8    3   20 1   
     9    4   14 1   
    10    4   25 1   
    11    4   26 1   
    12    5    6 ar  
    13    5    9 ar  
    14    6    7 ar  
    15    6   27 1   
    16    7    8 ar  
    17    7   28 1   
    18    8   10 ar  
    19    8   29 1   
    20    9   10 ar  
    21    9   21 1   
    22   10   30 1   
    23   11   12 1   
    24   11   14 1   
    25   11   31 1   
    26   12   13 1   
    27   12   19 1   
    28   12   32 1   
    29   13   16 1   
    30   13   33 1   
    31   13   34 1   
    32   14   15 1   
    33   14   35 1   
    34   15   16 1   
    35   15   18 1   
    36   16   17 1   
    37   16   36 1   
    38   17   37 1   
    39   18   19 1   
    40   18   20 1   
    41   18   38 1   
    42   19   39 1   
    43   19   40 1   
    44   20   21 1   
    45   20   41 1   
    46   21   22 1   
    47   22   42 1   
    48   22   43 1   
    49   22   44 1   
@<TRIPOS>SUBSTRUCTURE
     1 AJM         1 TEMP              0 ****  ****    0 ROOT
