@<TRIPOS>MOLECULE
AJM
   44    49     1     0     0
SMALL
bcc


@<TRIPOS>ATOM
      1 O1         -0.0550   -0.0090   -0.0190 oh        1 AJM     -0.591800
      2 C15         1.3610    0.0410   -0.0750 c3        1 AJM      0.161100
      3 C5          1.9080    0.0800    1.3650 c3        1 AJM      0.001300
      4 C4          1.8420   -1.3950    1.7900 c3        1 AJM     -0.061400
      5 C6          1.4110    0.9590    2.4640 ca        1 AJM     -0.104300
      6 C7          0.1350    1.3160    2.8400 ca        1 AJM     -0.077000
      7 C8         -0.0370    2.0770    4.0070 ca        1 AJM     -0.161000
      8 C9          1.0580    2.4500    4.7760 ca        1 AJM     -0.107000
      9 C11         2.5510    1.3580    3.2460 ca        1 AJM      0.098600
     10 C10         2.3650    2.1020    4.4070 ca        1 AJM     -0.159000
     11 C14         1.9560   -1.2740   -0.6540 c3        1 AJM     -0.130700
     12 C13         3.1210   -1.0480   -1.6270 c3        1 AJM     -0.063700
     13 C16         3.8660   -2.3770   -1.7900 c3        1 AJM     -0.098400
     14 C3          2.5170   -2.0620    0.5880 c3        1 AJM      0.146500
     15 N2          3.9830   -1.8960    0.6820 n3        1 AJM     -0.683600
     16 C17         4.5810   -2.6710   -0.4440 c3        1 AJM      0.349300
     17 O2          4.4600   -4.0740   -0.2380 oh        1 AJM     -0.599800
     18 C2          4.3050   -0.4610    0.4890 c3        1 AJM      0.175500
     19 C12         4.1330   -0.0760   -1.0120 c3        1 AJM     -0.115400
     20 C1          3.4200    0.5270    1.2870 c3        1 AJM      0.181500
     21 N1          3.7740    0.8520    2.6910 nh        1 AJM     -0.587000
     22 C18         4.9450    1.6730    2.8510 c3        1 AJM      0.160100
     23 HO1        -0.3620   -0.1160   -0.9280 ho        1 AJM      0.400000
     24 H15         1.6750    0.9380   -0.6720 h1        1 AJM      0.042700
     25 H41         2.3670   -1.5880    2.7540 hc        1 AJM      0.074200
     26 H42         0.7780   -1.7250    1.8760 hc        1 AJM      0.074200
     27 H7         -0.7290    1.0090    2.2290 ha        1 AJM      0.152000
     28 H8         -1.0500    2.3730    4.3130 ha        1 AJM      0.131000
     29 H9          0.9060    3.0360    5.6950 ha        1 AJM      0.128000
     30 H10         3.2160    2.4130    5.0290 ha        1 AJM      0.135000
     31 H14         1.1530   -1.8710   -1.1510 hc        1 AJM      0.066700
     32 H13         2.7500   -0.6730   -2.6110 hc        1 AJM      0.060700
     33 H161        3.1570   -3.2070   -2.0330 hc        1 AJM      0.062700
     34 H162        4.6230   -2.3090   -2.6080 hc        1 AJM      0.062700
     35 H3          2.2800   -3.1550    0.5170 h1        1 AJM      0.086700
     36 H17         5.6760   -2.4050   -0.5040 h2        1 AJM      0.049700
     37 HO2         4.8090   -4.2780    0.6390 ho        1 AJM      0.416000
     38 H2          5.3800   -0.3270    0.7940 h1        1 AJM      0.072700
     39 H121        3.7970    0.9810   -1.1430 hc        1 AJM      0.050700
     40 H122        5.1170   -0.1710   -1.5360 hc        1 AJM      0.050700
     41 H1          3.4500    1.5040    0.7080 h1        1 AJM      0.033700
     42 H181        4.8680    2.6720    2.3400 h1        1 AJM      0.038367
     43 H182        5.8240    1.1210    2.4270 h1        1 AJM      0.038367
     44 H183        5.1180    1.8440    3.9460 h1        1 AJM      0.038367
@<TRIPOS>BOND
     1    1    2 1   
     2    1   23 1   
     3    2    3 1   
     4    2   11 1   
     5    2   24 1   
     6    3    4 1   
     7    3    5 1   
     8    3   20 1   
     9    4   14 1   
    10    4   25 1   
    11    4   26 1   
    12    5    6 ar  
    13    5    9 ar  
    14    6    7 ar  
    15    6   27 1   
    16    7    8 ar  
    17    7   28 1   
    18    8   10 ar  
    19    8   29 1   
    20    9   10 ar  
    21    9   21 1   
    22   10   30 1   
    23   11   12 1   
    24   11   14 1   
    25   11   31 1   
    26   12   13 1   
    27   12   19 1   
    28   12   32 1   
    29   13   16 1   
    30   13   33 1   
    31   13   34 1   
    32   14   15 1   
    33   14   35 1   
    34   15   16 1   
    35   15   18 1   
    36   16   17 1   
    37   16   36 1   
    38   17   37 1   
    39   18   19 1   
    40   18   20 1   
    41   18   38 1   
    42   19   39 1   
    43   19   40 1   
    44   20   21 1   
    45   20   41 1   
    46   21   22 1   
    47   22   42 1   
    48   22   43 1   
    49   22   44 1   
@<TRIPOS>SUBSTRUCTURE
     1 AJM         1 TEMP              0 ****  ****    0 ROOT
