@<TRIPOS>MOLECULE
AJM
   44    49     1     0     0
SMALL
bcc


@<TRIPOS>ATOM
      1 O1         -0.0530   -0.0140   -0.0190 oh        1 AJM     -0.591800
      2 C15         1.3630    0.0380   -0.0730 c3        1 AJM      0.161100
      3 C5          1.9080    0.0820    1.3680 c3        1 AJM      0.001300
      4 C4          1.8430   -1.3920    1.7980 c3        1 AJM     -0.061400
      5 C6          1.4080    0.9640    2.4630 ca        1 AJM     -0.104300
      6 C7          0.1300    1.3210    2.8360 ca        1 AJM     -0.077000
      7 C8         -0.0440    2.0850    4.0000 ca        1 AJM     -0.161000
      8 C9          1.0500    2.4630    4.7700 ca        1 AJM     -0.107000
      9 C11         2.5460    1.3670    3.2450 ca        1 AJM      0.098600
     10 C10         2.3580    2.1150    4.4040 ca        1 AJM     -0.159000
     11 C14         1.9610   -1.2790   -0.6460 c3        1 AJM     -0.130700
     12 C13         3.1280   -1.0550   -1.6170 c3        1 AJM     -0.063700
     13 C16         3.8750   -2.3830   -1.7750 c3        1 AJM     -0.098400
     14 C3          2.5200   -2.0620    0.6000 c3        1 AJM      0.146500
     15 N2          3.9870   -1.8940    0.6950 n3        1 AJM     -0.683600
     16 C17         4.5880   -2.6720   -0.4260 c3        1 AJM      0.349300
     17 O2          4.4680   -4.0750   -0.2160 oh        1 AJM     -0.599800
     18 C2          4.3070   -0.4590    0.4980 c3        1 AJM      0.175500
     19 C12         4.1370   -0.0790   -1.0040 c3        1 AJM     -0.115400
     20 C1          3.4200    0.5300    1.2910 c3        1 AJM      0.181500
     21 N1          3.7710    0.8610    2.6950 nh        1 AJM     -0.587000
     22 C18         4.9400    1.6840    2.8540 c3        1 AJM      0.160100
     23 HO1        -0.3570   -0.1250   -0.9280 ho        1 AJM      0.400000
     24 H15         1.6780    0.9330   -0.6720 h1        1 AJM      0.042700
     25 H41         0.7800   -1.7230    1.8830 hc        1 AJM      0.074200
     26 H42         2.3670   -1.5800    2.7640 hc        1 AJM      0.074200
     27 H7         -0.7310    1.0110    2.2240 ha        1 AJM      0.152000
     28 H8         -1.0580    2.3810    4.3030 ha        1 AJM      0.131000
     29 H9          0.8950    3.0520    5.6860 ha        1 AJM      0.128000
     30 H10         3.2060    2.4290    5.0270 ha        1 AJM      0.135000
     31 H14         1.1590   -1.8790   -1.1420 hc        1 AJM      0.066700
     32 H13         2.7580   -0.6830   -2.6040 hc        1 AJM      0.060700
     33 H161        4.6330   -2.3170   -2.5920 hc        1 AJM      0.062700
     34 H162        3.1670   -3.2150   -2.0160 hc        1 AJM      0.062700
     35 H3          2.2850   -3.1560    0.5320 h1        1 AJM      0.086700
     36 H17         5.6830   -2.4050   -0.4860 h2        1 AJM      0.049700
     37 HO2         4.8160   -4.2750    0.6620 ho        1 AJM      0.416000
     38 H2          5.3820   -0.3220    0.8050 h1        1 AJM      0.072700
     39 H121        3.8000    0.9770   -1.1390 hc        1 AJM      0.050700
     40 H122        5.1230   -0.1750   -1.5260 hc        1 AJM      0.050700
     41 H1          3.4490    1.5060    0.7090 h1        1 AJM      0.033700
     42 H181        5.1110    1.8590    3.9480 h1        1 AJM      0.038367
     43 H182        5.8210    1.1310    2.4330 h1        1 AJM      0.038367
     44 H183        4.8630    2.6810    2.3390 h1        1 AJM      0.038367
@<TRIPOS>BOND
     1    1    2 1   
     2    1   23 1   
     3    2    3 1   
     4    2   11 1   
     5    2   24 1   
     6    3    4 1   
     7    3    5 1   
     8    3   20 1   
     9    4   14 1   
    10    4   25 1   
    11    4   26 1   
    12    5    6 ar  
    13    5    9 ar  
    14    6    7 ar  
    15    6   27 1   
    16    7    8 ar  
    17    7   28 1   
    18    8   10 ar  
    19    8   29 1   
    20    9   10 ar  
    21    9   21 1   
    22   10   30 1   
    23   11   12 1   
    24   11   14 1   
    25   11   31 1   
    26   12   13 1   
    27   12   19 1   
    28   12   32 1   
    29   13   16 1   
    30   13   33 1   
    31   13   34 1   
    32   14   15 1   
    33   14   35 1   
    34   15   16 1   
    35   15   18 1   
    36   16   17 1   
    37   16   36 1   
    38   17   37 1   
    39   18   19 1   
    40   18   20 1   
    41   18   38 1   
    42   19   39 1   
    43   19   40 1   
    44   20   21 1   
    45   20   41 1   
    46   21   22 1   
    47   22   42 1   
    48   22   43 1   
    49   22   44 1   
@<TRIPOS>SUBSTRUCTURE
     1 AJM         1 TEMP              0 ****  ****    0 ROOT
