@<TRIPOS>MOLECULE
AJM
   44    47     1     0     0
SMALL
bcc


@<TRIPOS>ATOM
      1 O1         -2.5620    0.1620   -0.9850 oh        1 AJM     -0.319000
      2 C15        -1.1540    0.1620   -0.9850 c3        1 AJM      0.050000
      3 C5         -0.6800    0.1620    0.2430 c3        1 AJM     -0.006000
      4 C4         -0.7740   -1.2290    0.5760 c3        1 AJM     -0.140000
      5 C6         -1.4760    1.0610    1.2710 c2        1 AJM     -0.097000
      6 C7         -2.8200    1.2680    1.5300 c1        1 AJM     -0.077000
      7 C8         -3.2100    2.0370    2.6330 c1        1 AJM     -0.134000
      8 C9         -2.2320    2.6030    3.4830 c1        1 AJM     -0.134000
      9 C11        -0.4830    1.6360    2.1330 c2        1 AJM      0.017000
     10 C10        -0.8720    2.3960    3.2230 c1        1 AJM     -0.159000
     11 C14        -0.5610   -1.2710   -1.5380 c3        1 AJM     -0.170000
     12 C13         0.7270   -1.0360   -2.4560 c3        1 AJM     -0.103000
     13 C16         1.1710   -2.0530   -2.7440 c3        1 AJM     -0.177000
     14 C3         -0.1320   -1.9520   -0.2540 c3        1 AJM     -0.051000
     15 N2          1.2180   -1.8160   -0.2570 n3        1 AJM     -0.209000
     16 C17         1.8070   -2.5910   -1.5860 c3        1 AJM      0.080000
     17 O2          1.5520   -3.8900   -1.4970 oh        1 AJM     -0.327000
     18 C2          1.6980   -0.3860   -0.2660 c3        1 AJM     -0.022000
     19 C12         1.9640   -0.1440   -1.4700 c3        1 AJM     -0.194000
     20 C1          0.6150    0.6680    0.1560 c3        1 AJM     -0.016000
     21 N1          0.9150    1.2550    1.5050 n3        1 AJM     -0.189000
     22 C18         1.7010    2.4320    1.3450 c3        1 AJM     -0.116000
     23 HO1        -2.8580    0.5220   -1.7410 ho        1 AJM      0.199000
     24 H15        -0.7990    0.9120   -1.4990 h1        1 AJM      0.082000
     25 H41        -1.7130   -1.4960    0.5700 hc        1 AJM      0.113500
     26 H42        -0.4070   -1.3690    1.4700 hc        1 AJM      0.113500
     27 H7         -3.4960    0.8770    0.9440 ha        1 AJM      0.152000
     28 H8         -4.1580    2.1820    2.8150 ha        1 AJM      0.129500
     29 H9         -2.5050    3.1390    4.2520 ha        1 AJM      0.129500
     30 H10        -0.1980    2.7870    3.8100 ha        1 AJM      0.135000
     31 H14        -1.2460   -1.7870   -2.0040 hc        1 AJM      0.106000
     32 H13         0.4910   -0.5260   -3.2540 hc        1 AJM      0.100000
     33 H161        1.8260   -1.9380   -3.4580 hc        1 AJM      0.102000
     34 H162        0.4600   -2.6530   -3.0400 hc        1 AJM      0.102000
     35 H3         -0.4140   -2.8860   -0.2280 h1        1 AJM      0.126000
     36 H17         2.7710   -2.4500   -1.6470 h2        1 AJM      0.089000
     37 HO2         2.3160   -4.3380   -1.4320 ho        1 AJM      0.215000
     38 H2          2.4980   -0.2910    0.2840 h1        1 AJM      0.112000
     39 H121        1.9000    0.8150   -1.6410 hc        1 AJM      0.090000
     40 H122        2.8600   -0.4650   -1.6870 hc        1 AJM      0.090000
     41 H1          0.6180    1.3900   -0.5010 h1        1 AJM      0.073000
     42 H181        2.5370    2.2070    0.8940 h1        1 AJM      0.077667
     43 H182        1.8970    2.8130    2.2220 h1        1 AJM      0.077667
     44 H183        1.2070    3.0830    0.8110 h1        1 AJM      0.077667
@<TRIPOS>BOND
     1    1    2 1   
     2    1   23 1   
     3    2    3 1   
     4    2   11 1   
     5    2   24 1   
     6    3    4 1   
     7    3    5 1   
     8    3   20 1   
     9    4   14 1   
    10    4   25 1   
    11    4   26 1   
    12    5    6 1   
    13    5    9 1   
    14    6   27 1   
    15    7    8 1   
    16    7   28 1   
    17    8   29 1   
    18    9   10 1   
    19    9   21 1   
    20   10   30 1   
    21   11   12 1   
    22   11   14 1   
    23   11   31 1   
    24   12   13 1   
    25   12   19 1   
    26   12   32 1   
    27   13   16 1   
    28   13   33 1   
    29   13   34 1   
    30   14   15 1   
    31   14   35 1   
    32   15   16 1   
    33   15   18 1   
    34   16   17 1   
    35   16   36 1   
    36   17   37 1   
    37   18   19 1   
    38   18   20 1   
    39   18   38 1   
    40   19   39 1   
    41   19   40 1   
    42   20   21 1   
    43   20   41 1   
    44   21   22 1   
    45   22   42 1   
    46   22   43 1   
    47   22   44 1   
@<TRIPOS>SUBSTRUCTURE
     1 AJM         1 TEMP              0 ****  ****    0 ROOT
