@<TRIPOS>MOLECULE
AJN
   50    54     1     0     0
SMALL
bcc


@<TRIPOS>ATOM
      1 O1         -0.1600   -0.1360    0.1240 o         1 AJN     -0.561000
      2 C13         1.0640    0.0280    0.0330 c         1 AJN      0.657300
      3 O2          1.7390    0.3360    1.1880 os        1 AJN     -0.439900
      4 C14         0.9490    0.4430    2.3730 c3        1 AJN      0.125700
      5 C11         1.8790   -0.0240   -1.1790 ce        1 AJN     -0.284400
      6 C12         1.2380    0.1400   -2.3660 c2        1 AJN      0.131100
      7 O           1.8290    0.1990   -3.5890 os        1 AJN     -0.317900
      8 C1          3.2760    0.2260   -3.6260 c3        1 AJN      0.139100
      9 C           3.7420    1.6670   -3.6110 c3        1 AJN     -0.120100
     10 C10         3.3580   -0.1870   -1.1370 c3        1 AJN      0.007500
     11 C2          3.8450   -0.6460   -2.5160 c3        1 AJN     -0.101700
     12 C9          3.8650   -1.1880   -0.1070 c3        1 AJN     -0.073400
     13 C8          5.4010   -1.2530   -0.1750 c3        1 AJN      0.248700
     14 N           5.8770   -1.6110   -1.5240 n3        1 AJN     -0.730600
     15 C3          5.3750   -0.6940   -2.5360 c3        1 AJN      0.188800
     16 C7          5.9680   -2.2150    0.8230 cc        1 AJN     -0.061300
     17 N1          5.5100   -2.4210    2.1270 na        1 AJN     -0.178400
     18 C15         6.3400   -3.3760    2.7260 ca        1 AJN     -0.044200
     19 C20         7.3820   -3.7370    1.7850 ca        1 AJN     -0.078800
     20 C6          7.1160   -2.9810    0.5850 cd        1 AJN     -0.129400
     21 C5          7.8140   -2.9630   -0.7060 c3        1 AJN     -0.001200
     22 C4          7.3190   -1.8050   -1.5860 c3        1 AJN      0.177800
     23 C19         8.3600   -4.6560    2.1670 ca        1 AJN     -0.085000
     24 C18         8.3050   -5.2060    3.4390 ca        1 AJN     -0.157000
     25 C17         7.2880   -4.8540    4.3450 ca        1 AJN     -0.115000
     26 C16         6.2990   -3.9420    4.0100 ca        1 AJN     -0.145000
     27 H1          1.6940    0.7090    3.1620 h1        1 AJN      0.050700
     28 H2          0.4520   -0.5330    2.5890 h1        1 AJN      0.050700
     29 H3          0.1800    1.2430    2.2490 h1        1 AJN      0.050700
     30 H4          0.1400    0.2350   -2.4730 h4        1 AJN      0.188000
     31 H5          3.4990   -0.2380   -4.6310 h1        1 AJN      0.080700
     32 H6          3.1750    2.2540   -4.3740 hc        1 AJN      0.052033
     33 H7          4.8300    1.7120   -3.8570 hc        1 AJN      0.052033
     34 H8          3.5750    2.1330   -2.6120 hc        1 AJN      0.052033
     35 H9          3.8120    0.8190   -0.8940 hc        1 AJN      0.060700
     36 H10         3.4520   -1.6910   -2.6900 hc        1 AJN      0.084700
     37 H11         3.5660   -0.8540    0.9200 hc        1 AJN      0.065200
     38 H12         3.4230   -2.1990   -0.2930 hc        1 AJN      0.065200
     39 H13         5.7900   -0.2210    0.1100 h1        1 AJN      0.034700
     40 H15         5.7170   -1.0680   -3.5420 h1        1 AJN      0.035700
     41 H16         5.7800    0.3520   -2.3990 h1        1 AJN      0.035700
     42 H17         4.6400   -2.1200    2.4780 hn        1 AJN      0.298700
     43 H18         7.6420   -3.9380   -1.2380 hc        1 AJN      0.053700
     44 H19         8.9210   -2.8480   -0.5590 hc        1 AJN      0.053700
     45 H20         7.8720   -0.8660   -1.2870 h1        1 AJN      0.032700
     46 H21         7.5880   -2.0340   -2.6550 h1        1 AJN      0.032700
     47 H22         9.1580   -4.9340    1.4640 ha        1 AJN      0.132000
     48 H23         9.0680   -5.9330    3.7530 ha        1 AJN      0.128000
     49 H24         7.2800   -5.3150    5.3440 ha        1 AJN      0.128000
     50 H25         5.5100   -3.6710    4.7230 ha        1 AJN      0.131000
@<TRIPOS>BOND
     1    1    2 2   
     2    2    3 1   
     3    2    5 1   
     4    3    4 1   
     5    4   27 1   
     6    4   28 1   
     7    4   29 1   
     8    5    6 2   
     9    5   10 1   
    10    6    7 1   
    11    6   30 1   
    12    7    8 1   
    13    8    9 1   
    14    8   11 1   
    15    8   31 1   
    16    9   32 1   
    17    9   33 1   
    18    9   34 1   
    19   10   11 1   
    20   10   12 1   
    21   10   35 1   
    22   11   15 1   
    23   11   36 1   
    24   12   13 1   
    25   12   37 1   
    26   12   38 1   
    27   13   14 1   
    28   13   16 1   
    29   13   39 1   
    30   14   15 1   
    31   14   22 1   
    32   15   40 1   
    33   15   41 1   
    34   16   17 1   
    35   16   20 2   
    36   17   18 1   
    37   17   42 1   
    38   18   19 ar  
    39   18   26 ar  
    40   19   20 1   
    41   19   23 ar  
    42   20   21 1   
    43   21   22 1   
    44   21   43 1   
    45   21   44 1   
    46   22   45 1   
    47   22   46 1   
    48   23   24 ar  
    49   23   47 1   
    50   24   25 ar  
    51   24   48 1   
    52   25   26 ar  
    53   25   49 1   
    54   26   50 1   
@<TRIPOS>SUBSTRUCTURE
     1 AJN         1 TEMP              0 ****  ****    0 ROOT
