@<TRIPOS>MOLECULE
AJN
   50    54     1     0     0
SMALL
bcc


@<TRIPOS>ATOM
      1 O1         -0.1560   -0.1240    0.1260 o         1 AJN     -0.561000
      2 C13         1.0670    0.0370    0.0330 c         1 AJN      0.657300
      3 O2          1.7440    0.3470    1.1860 os        1 AJN     -0.439900
      4 C14         0.9560    0.4590    2.3720 c3        1 AJN      0.125700
      5 C11         1.8810   -0.0200   -1.1800 ce        1 AJN     -0.284400
      6 C12         1.2390    0.1420   -2.3660 c2        1 AJN      0.131100
      7 O           1.8300    0.1970   -3.5900 os        1 AJN     -0.317900
      8 C1          3.2770    0.2210   -3.6280 c3        1 AJN      0.139100
      9 C           3.7450    1.6610   -3.6180 c3        1 AJN     -0.120100
     10 C10         3.3600   -0.1860   -1.1380 c3        1 AJN      0.007500
     11 C2          3.8450   -0.6490   -2.5170 c3        1 AJN     -0.101700
     12 C9          3.8660   -1.1860   -0.1060 c3        1 AJN     -0.073400
     13 C8          5.4010   -1.2540   -0.1760 c3        1 AJN      0.248700
     14 N           5.8760   -1.6150   -1.5240 n3        1 AJN     -0.730600
     15 C3          5.3750   -0.7000   -2.5370 c3        1 AJN      0.188800
     16 C7          5.9670   -2.2160    0.8240 cc        1 AJN     -0.061300
     17 N1          5.5080   -2.4190    2.1290 na        1 AJN     -0.178400
     18 C15         6.3370   -3.3750    2.7280 ca        1 AJN     -0.044200
     19 C20         7.3780   -3.7390    1.7880 ca        1 AJN     -0.078800
     20 C6          7.1130   -2.9850    0.5870 cd        1 AJN     -0.129400
     21 C5          7.8110   -2.9700   -0.7040 c3        1 AJN     -0.001200
     22 C4          7.3170   -1.8120   -1.5860 c3        1 AJN      0.177800
     23 C19         8.3540   -4.6600    2.1710 ca        1 AJN     -0.085000
     24 C18         8.2980   -5.2080    3.4440 ca        1 AJN     -0.157000
     25 C17         7.2820   -4.8530    4.3490 ca        1 AJN     -0.115000
     26 C16         6.2950   -3.9390    4.0130 ca        1 AJN     -0.145000
     27 H1          0.4560   -0.5150    2.5910 h1        1 AJN      0.050700
     28 H2          0.1890    1.2610    2.2470 h1        1 AJN      0.050700
     29 H3          1.7020    0.7250    3.1600 h1        1 AJN      0.050700
     30 H4          0.1410    0.2390   -2.4730 h4        1 AJN      0.188000
     31 H5          3.4980   -0.2450   -4.6320 h1        1 AJN      0.080700
     32 H6          3.1790    2.2480   -4.3810 hc        1 AJN      0.052033
     33 H7          4.8330    1.7040   -3.8640 hc        1 AJN      0.052033
     34 H8          3.5800    2.1310   -2.6190 hc        1 AJN      0.052033
     35 H9          3.8160    0.8190   -0.8980 hc        1 AJN      0.060700
     36 H10         3.4500   -1.6940   -2.6880 hc        1 AJN      0.084700
     37 H11         3.5680   -0.8490    0.9200 hc        1 AJN      0.065200
     38 H12         3.4210   -2.1960   -0.2900 hc        1 AJN      0.065200
     39 H13         5.7930   -0.2230    0.1080 h1        1 AJN      0.034700
     40 H15         5.7150   -1.0770   -3.5420 h1        1 AJN      0.035700
     41 H16         5.7820    0.3460   -2.4020 h1        1 AJN      0.035700
     42 H17         4.6390   -2.1160    2.4790 hn        1 AJN      0.298700
     43 H18         7.6370   -3.9450   -1.2340 hc        1 AJN      0.053700
     44 H19         8.9180   -2.8560   -0.5580 hc        1 AJN      0.053700
     45 H20         7.5850   -2.0430   -2.6550 h1        1 AJN      0.032700
     46 H21         7.8720   -0.8740   -1.2890 h1        1 AJN      0.032700
     47 H22         9.1520   -4.9400    1.4680 ha        1 AJN      0.132000
     48 H23         9.0600   -5.9360    3.7580 ha        1 AJN      0.128000
     49 H24         7.2740   -5.3130    5.3480 ha        1 AJN      0.128000
     50 H25         5.5070   -3.6660    4.7260 ha        1 AJN      0.131000
@<TRIPOS>BOND
     1    1    2 2   
     2    2    3 1   
     3    2    5 1   
     4    3    4 1   
     5    4   27 1   
     6    4   28 1   
     7    4   29 1   
     8    5    6 2   
     9    5   10 1   
    10    6    7 1   
    11    6   30 1   
    12    7    8 1   
    13    8    9 1   
    14    8   11 1   
    15    8   31 1   
    16    9   32 1   
    17    9   33 1   
    18    9   34 1   
    19   10   11 1   
    20   10   12 1   
    21   10   35 1   
    22   11   15 1   
    23   11   36 1   
    24   12   13 1   
    25   12   37 1   
    26   12   38 1   
    27   13   14 1   
    28   13   16 1   
    29   13   39 1   
    30   14   15 1   
    31   14   22 1   
    32   15   40 1   
    33   15   41 1   
    34   16   17 1   
    35   16   20 2   
    36   17   18 1   
    37   17   42 1   
    38   18   19 ar  
    39   18   26 ar  
    40   19   20 1   
    41   19   23 ar  
    42   20   21 1   
    43   21   22 1   
    44   21   43 1   
    45   21   44 1   
    46   22   45 1   
    47   22   46 1   
    48   23   24 ar  
    49   23   47 1   
    50   24   25 ar  
    51   24   48 1   
    52   25   26 ar  
    53   25   49 1   
    54   26   50 1   
@<TRIPOS>SUBSTRUCTURE
     1 AJN         1 TEMP              0 ****  ****    0 ROOT
