@<TRIPOS>MOLECULE
AJZ
   37    40     1     0     0
SMALL
bcc


@<TRIPOS>ATOM
      1 N1         -0.1880   -0.6020   -0.0470 nb        1 AJZ     -0.739000
      2 C2         -1.2520    0.2730   -0.1390 cp        1 AJZ      0.720500
      3 N3         -1.1770    1.6250   -0.2490 nb        1 AJZ     -0.672000
      4 C4          0.0810    2.1360   -0.2860 ca        1 AJZ      0.459100
      5 C5          1.2610    1.3250   -0.2060 ca        1 AJZ     -0.350700
      6 C6          1.0670   -0.0910   -0.0850 ca        1 AJZ      0.700200
      7 CAB        -4.1470   -2.0790   -0.7780 ca        1 AJZ     -0.110000
      8 CAC         1.7920    3.7030   -0.4410 cc        1 AJZ     -0.152400
      9 CAD        -5.1680   -1.4900   -0.0390 ca        1 AJZ     -0.142000
     10 CAE        -2.8720   -1.5130   -0.8150 ca        1 AJZ     -0.124000
     11 CAF         0.4360    3.5380   -0.4190 cd        1 AJZ     -0.245800
     12 CAG        -3.6200    0.2720    0.6490 ca        1 AJZ     -0.174000
     13 CAH         3.2810   -3.1440   -0.4420 c3        1 AJZ      0.122900
     14 CAI         4.4390   -1.5230    0.8240 c3        1 AJZ      0.122900
     15 CAJ         1.9680   -2.3620   -0.3040 c3        1 AJZ      0.146800
     16 CAK         3.1560   -0.6970    0.9940 c3        1 AJZ      0.146800
     17 OAN         4.1540   -2.9050    0.6570 os        1 AJZ     -0.411600
     18 SAO         2.6460    2.2620   -0.3130 ss        1 AJZ      0.097500
     19 CAP        -4.8940   -0.3110    0.6740 ca        1 AJZ      0.113100
     20 CAQ        -2.6100   -0.3390   -0.1010 cp        1 AJZ     -0.098500
     21 NAV         2.2110   -0.9380   -0.0920 nh        1 AJZ     -0.732300
     22 HOAA       -5.6250    1.0440    1.8070 ho        1 AJZ      0.420000
     23 HAB        -4.3490   -3.0020   -1.3430 ha        1 AJZ      0.136000
     24 HAC         2.3060    4.6610   -0.5350 h4        1 AJZ      0.176000
     25 HAD        -6.1760   -1.9260   -0.0020 ha        1 AJZ      0.151000
     26 HAE        -2.0780   -1.9950   -1.4040 ha        1 AJZ      0.147000
     27 HAF        -0.3170    4.3270   -0.4920 ha        1 AJZ      0.174000
     28 HAG        -3.4260    1.1980    1.2090 ha        1 AJZ      0.149000
     29 HAH         3.0730   -4.2450   -0.4000 h1        1 AJZ      0.058450
     30 HAHA        3.8030   -2.8840   -1.4000 h1        1 AJZ      0.058450
     31 HAI         5.0370   -1.1520   -0.0500 h1        1 AJZ      0.058450
     32 HAIA        5.0500   -1.4710    1.7620 h1        1 AJZ      0.058450
     33 HAJ         1.3780   -2.4820   -1.2540 h1        1 AJZ      0.058950
     34 HAJA        1.3720   -2.8080    0.5430 h1        1 AJZ      0.058950
     35 HAK         2.6960   -0.9510    1.9920 h1        1 AJZ      0.058950
     36 HAKA        3.4340    0.3960    1.0030 h1        1 AJZ      0.058950
     37 OAA        -5.9390    0.2280    1.3910 oh        1 AJZ     -0.499100
@<TRIPOS>BOND
     1    1    2 ar  
     2    1    6 ar  
     3    2    3 ar  
     4    2   20 1   
     5    3    4 ar  
     6    4    5 ar  
     7    4   11 1   
     8    5    6 ar  
     9    5   18 1   
    10    6   21 1   
    11    7    9 ar  
    12    7   10 ar  
    13    7   23 1   
    14    8   11 2   
    15    8   18 1   
    16    8   24 1   
    17    9   19 ar  
    18    9   25 1   
    19   10   20 ar  
    20   10   26 1   
    21   11   27 1   
    22   12   19 ar  
    23   12   20 ar  
    24   12   28 1   
    25   13   15 1   
    26   13   17 1   
    27   13   29 1   
    28   13   30 1   
    29   14   16 1   
    30   14   17 1   
    31   14   31 1   
    32   14   32 1   
    33   15   21 1   
    34   15   33 1   
    35   15   34 1   
    36   16   21 1   
    37   16   35 1   
    38   16   36 1   
    39   19   37 1   
    40   22   37 1   
@<TRIPOS>SUBSTRUCTURE
     1 AJZ         1 TEMP              0 ****  ****    0 ROOT
