@<TRIPOS>MOLECULE
AJZ
   37    34     1     0     0
SMALL
bcc


@<TRIPOS>ATOM
      1 N1          0.8620    0.2910   -0.3730 n2        1 AJZ     -0.269000
      2 C2          2.1340   -0.0210   -0.0090 c2        1 AJZ      0.171000
      3 N3          2.5900   -0.1940    1.2820 n2        1 AJZ     -0.222000
      4 C4          1.6760   -0.0440    2.2470 c2        1 AJZ      0.062000
      5 C5          0.3150    0.2500    2.0190 c2        1 AJZ     -0.516000
      6 C6         -0.0700    0.4380    0.6400 c2        1 AJZ      0.235000
      7 CAB         2.0230    1.0600   -5.5920 c1        1 AJZ     -0.229000
      8 CAC        -1.2350    1.8530    3.5530 c2        1 AJZ     -0.687000
      9 CAD         1.7740    1.3330   -6.7290 c1        1 AJZ     -0.229000
     10 CAE         2.8080    0.1890   -2.3730 c1        1 AJZ      0.266000
     11 CAF        -0.6140    2.4830    4.5210 c1        1 AJZ      0.261000
     12 CAG         4.4240   -0.7200   -0.8320 c2        1 AJZ     -0.220000
     13 CAH        -4.5760    1.1970    0.7790 c1        1 AJZ     -0.027000
     14 CAI        -5.0600   -1.3850    4.3910 c1        1 AJZ     -0.229000
     15 CAJ        -1.8220    0.9960   -1.0070 c3        1 AJZ     -0.081000
     16 CAK        -4.0000   -1.0090    3.9830 c1        1 AJZ     -0.229000
     17 OAN        -4.0580    1.2660    1.9490 oh        1 AJZ     -0.160000
     18 SAO        -0.7430    0.2360    3.3170 ss        1 AJZ      0.371000
     19 CAP         4.9730   -1.7090   -1.5600 c2        1 AJZ      0.003000
     20 CAQ         3.1030   -0.1760   -1.1230 c2        1 AJZ     -0.295000
     21 NAV        -1.3590    0.7690    0.3270 nh        1 AJZ     -0.291000
     22 HOAA        6.5910   -1.8300   -0.5340 ho        1 AJZ      0.218000
     23 HAB         1.5530    1.5760   -7.7370 ha        1 AJZ      0.227500
     24 HAC        -2.0630    2.2540    2.9490 h4        1 AJZ      0.198000
     25 HAD         4.5150   -2.2060   -2.4320 h4        1 AJZ      0.171000
     26 HAE         2.2460    0.8160   -4.5780 ha        1 AJZ      0.227500
     27 HAF         2.0430   -0.1790    3.2840 h4        1 AJZ      0.173000
     28 HAG         4.9390   -0.2860    0.0410 ha        1 AJZ      0.159000
     29 HAH        -1.6770    0.0800   -1.6390 h1        1 AJZ      0.096333
     30 HAHA       -5.6290    0.8490    0.6790 ha        1 AJZ      0.018000
     31 HAI        -4.6110    0.9900    2.7170 ho        1 AJZ      0.172000
     32 HAIA       -5.9970   -1.7230    4.7570 ha        1 AJZ      0.227500
     33 HAJ        -2.9180    1.2500   -0.9580 h1        1 AJZ      0.096333
     34 HAJA       -1.2620    1.8460   -1.4820 h1        1 AJZ      0.096333
     35 HAK        -2.0110    0.8640    1.0780 hn        1 AJZ      0.258000
     36 HAKA       -3.0450   -0.6850    3.6300 ha        1 AJZ      0.227500
     37 OAA         6.2100   -2.2430   -1.3240 oh        1 AJZ     -0.253000
@<TRIPOS>BOND
     1    1    2 1   
     2    1    6 1   
     3    2    3 1   
     4    2   20 1   
     5    3    4 1   
     6    4    5 1   
     7    4   27 1   
     8    5    6 1   
     9    5   18 1   
    10    6   21 1   
    11    7    9 1   
    12    7   26 1   
    13    8   11 1   
    14    8   18 1   
    15    8   24 1   
    16    9   23 1   
    17   10   20 1   
    18   12   19 1   
    19   12   20 1   
    20   12   28 1   
    21   13   17 1   
    22   13   30 1   
    23   14   16 1   
    24   14   32 1   
    25   15   21 1   
    26   15   29 1   
    27   15   33 1   
    28   15   34 1   
    29   16   36 1   
    30   17   31 1   
    31   19   25 1   
    32   19   37 1   
    33   21   35 1   
    34   22   37 1   
@<TRIPOS>SUBSTRUCTURE
     1 AJZ         1 TEMP              0 ****  ****    0 ROOT
