@<TRIPOS>MOLECULE
AJZ
   37    36     1     0     0
SMALL
bcc


@<TRIPOS>ATOM
      1 N1          0.3170    0.1970    0.0250 n2        1 AJZ     -0.210000
      2 C2          1.6670   -0.0180    0.0680 c2        1 AJZ      0.110000
      3 N3          2.4120   -0.1700    1.2090 n2        1 AJZ     -0.158000
      4 C4          1.7380   -0.0980    2.3660 c2        1 AJZ     -0.021000
      5 C5          0.3470    0.1140    2.4620 c2        1 AJZ     -0.405000
      6 C6         -0.3540    0.2570    1.2140 c2        1 AJZ      0.163000
      7 CAB         4.7510   -0.0830   -4.9110 c1        1 AJZ     -0.063000
      8 CAC         0.5900   -0.3280    5.0970 c2        1 AJZ     -0.711000
      9 CAD         3.8400   -0.1620   -3.7900 c3        1 AJZ     -0.260000
     10 CAE         1.7180   -0.6030   -2.3110 c1        1 AJZ      0.200000
     11 CAF         0.3720   -1.4990    5.6520 c1        1 AJZ      0.289000
     12 CAG         3.7210    0.3820   -1.3470 c2        1 AJZ     -0.169000
     13 CAH        -6.9720   -0.5210    0.5130 c2        1 AJZ      0.146000
     14 CAI        -3.5480    1.9290    1.9190 c2        1 AJZ     -0.277000
     15 CAJ        -2.4860    0.0020    0.0280 c3        1 AJZ     -0.096000
     16 CAK        -2.2940    1.4570    1.9820 c2        1 AJZ     -0.056000
     17 OAN        -5.9080    0.0480    0.2810 o         1 AJZ     -0.290000
     18 SAO        -0.4990    0.2050    3.9150 ss        1 AJZ      0.466000
     19 CAP         4.4120    0.3610   -2.5120 c2        1 AJZ      0.040000
     20 CAQ         2.3550   -0.1000   -1.2470 c2        1 AJZ     -0.265000
     21 NAV        -1.7680    0.3930    1.2210 nh        1 AJZ     -0.200000
     22 HOAA        6.0590    0.7680   -3.4000 ho        1 AJZ      0.253000
     23 HAB         2.8870    0.4120   -4.0290 hc        1 AJZ      0.158000
     24 HAC         1.3920    0.3500    5.4340 h4        1 AJZ      0.201000
     25 HAD         3.5180   -1.2420   -3.6340 hc        1 AJZ      0.158000
     26 HAE         4.3800   -0.4530   -5.8760 ha        1 AJZ      0.065000
     27 HAF         2.3480   -0.2310    3.2800 h4        1 AJZ      0.170000
     28 HAG         4.1960    0.7730   -0.4340 ha        1 AJZ      0.176000
     29 HAH        -7.8560    0.0190    0.9110 h4        1 AJZ      0.072500
     30 HAHA       -7.1100   -1.6090    0.3370 h4        1 AJZ      0.072500
     31 HAI        -4.3170    1.5750    1.2200 ha        1 AJZ      0.132500
     32 HAIA       -3.8660    2.7230    2.6060 ha        1 AJZ      0.132500
     33 HAJ        -3.5630   -0.1690    0.3030 h1        1 AJZ      0.095333
     34 HAJA       -2.0620   -0.9570   -0.3690 h1        1 AJZ      0.095333
     35 HAK        -2.4340    0.7850   -0.7750 h1        1 AJZ      0.095333
     36 HAKA       -1.5770    1.8940    2.7120 h4        1 AJZ      0.144000
     37 OAA         5.6940    0.8490   -2.4970 oh        1 AJZ     -0.254000
@<TRIPOS>BOND
     1    1    2 1   
     2    1    6 1   
     3    2    3 1   
     4    2   20 1   
     5    3    4 1   
     6    4    5 1   
     7    4   27 1   
     8    5    6 1   
     9    5   18 1   
    10    6   21 1   
    11    7    9 1   
    12    7   26 1   
    13    8   11 1   
    14    8   18 1   
    15    8   24 1   
    16    9   19 1   
    17    9   23 1   
    18    9   25 1   
    19   10   20 1   
    20   12   19 1   
    21   12   20 1   
    22   12   28 1   
    23   13   17 1   
    24   13   29 1   
    25   13   30 1   
    26   14   16 1   
    27   14   31 1   
    28   14   32 1   
    29   15   21 1   
    30   15   33 1   
    31   15   34 1   
    32   15   35 1   
    33   16   21 1   
    34   16   36 1   
    35   19   37 1   
    36   22   37 1   
@<TRIPOS>SUBSTRUCTURE
     1 AJZ         1 TEMP              0 ****  ****    0 ROOT
