@<TRIPOS>MOLECULE
AJZ
   37    29     1     0     0
SMALL
bcc


@<TRIPOS>ATOM
      1 N1         -0.1880   -0.1220   -0.4550 n1        1 AJZ     -0.225000
      2 C2          1.2020   -0.1010   -0.5190 c1        1 AJZ      0.094000
      3 N3          1.9480   -0.1140    0.6390 n1        1 AJZ     -0.154000
      4 C4          1.3350   -0.1470    1.8310 c1        1 AJZ     -0.216000
      5 C5         -0.0790   -0.1680    1.8970 c1        1 AJZ     -0.216000
      6 C6         -0.8130   -0.1550    0.7480 c1        1 AJZ      0.197000
      7 OAA         4.0190    2.2820   -3.6480 oh        1 AJZ     -0.252000
      8 CAB         3.5100   -1.3240   -3.0740 c1        1 AJZ     -0.114500
      9 CAC         0.8040   -0.2030    4.2460 c1        1 AJZ     -0.389000
     10 CAD         3.9680   -0.1360   -3.6220 c1        1 AJZ     -0.200000
     11 CAE         2.5970   -1.2990   -2.0310 c1        1 AJZ     -0.114500
     12 CAF         1.9160   -0.1690    3.3340 c1        1 AJZ     -0.137000
     13 CAG         2.6000    1.1010   -2.0860 c1        1 AJZ     -0.116000
     14 CAH        -4.1170    1.1950    0.8290 c3        1 AJZ     -0.033500
     15 CAI        -4.2570   -1.0770    0.9270 c3        1 AJZ     -0.033500
     16 CAJ        -2.6170    1.0870    0.6770 c3        1 AJZ     -0.080000
     17 CAK        -2.7560   -1.1670    0.7740 c3        1 AJZ     -0.080000
     18 OAN        -4.6970    0.1290    1.7710 os        1 AJZ     -0.276000
     19 SAO        -0.4900   -0.2050    3.4140 s         1 AJZ      0.548000
     20 CAP         3.5130    1.0760   -3.1280 c1        1 AJZ      0.066000
     21 CAQ         2.1420   -0.0870   -1.5370 c1        1 AJZ      0.004000
     22 NAV        -2.2040   -0.0580    1.0120 n3        1 AJZ     -0.236000
     23 HOAA        3.5820    2.4890   -4.3940 ho        1 AJZ      0.217000
     24 HAB         3.8310   -2.1780   -3.4220 ha        1 AJZ      0.142500
     25 HAC         0.8600   -0.1640    5.2200 DU        1 AJZ      0.175000
     26 HAD         4.6120   -0.1540   -4.3560 ha        1 AJZ      0.134000
     27 HAE         2.2740   -2.1360   -1.6450 ha        1 AJZ      0.142500
     28 HAF         2.8600   -0.1610    3.5820 DU        1 AJZ      0.175000
     29 HAG         2.2680    1.9540   -1.7480 ha        1 AJZ      0.163000
     30 HAH        -4.5310    1.0970   -0.0510 h1        1 AJZ      0.096500
     31 HAHA       -4.3350    2.0800    1.1840 h1        1 AJZ      0.096500
     32 HAI        -4.6610   -1.0040    0.0390 h1        1 AJZ      0.096500
     33 HAIA       -4.5800   -1.8950    1.3550 h1        1 AJZ      0.096500
     34 HAJ        -2.3770    1.2530   -0.2590 h1        1 AJZ      0.107000
     35 HAJA       -2.1870    1.7620    1.2430 h1        1 AJZ      0.107000
     36 HAK        -2.4100   -1.8390    1.3980 h1        1 AJZ      0.107000
     37 HAKA       -2.5430   -1.4410   -0.1430 h1        1 AJZ      0.107000
@<TRIPOS>BOND
     1    1    6 1   
     2    2    3 1   
     3    4    5 1   
     4    6   22 1   
     5    7   20 1   
     6    7   23 1   
     7    8   11 1   
     8    8   24 1   
     9    9   12 1   
    10    9   19 1   
    11   10   20 1   
    12   10   26 1   
    13   11   27 1   
    14   13   21 1   
    15   13   29 1   
    16   14   16 1   
    17   14   18 1   
    18   14   30 1   
    19   14   31 1   
    20   15   17 1   
    21   15   18 1   
    22   15   32 1   
    23   15   33 1   
    24   16   22 1   
    25   16   34 1   
    26   16   35 1   
    27   17   22 1   
    28   17   36 1   
    29   17   37 1   
@<TRIPOS>SUBSTRUCTURE
     1 AJZ         1 TEMP              0 ****  ****    0 ROOT
