@<TRIPOS>MOLECULE
AJZ
   37    36     1     0     0
SMALL
bcc


@<TRIPOS>ATOM
      1 N1          0.2430    0.0150    0.3020 n2        1 AJZ     -0.205000
      2 C2          1.6060   -0.0490    0.2160 c2        1 AJZ      0.105000
      3 N3          2.4690   -0.0550    1.2800 n2        1 AJZ     -0.153000
      4 C4          1.9060    0.0070    2.4950 c2        1 AJZ     -0.027000
      5 C5          0.5160    0.0730    2.7240 c2        1 AJZ     -0.397000
      6 C6         -0.3130    0.0700    1.5480 c2        1 AJZ      0.155000
      7 CAB         4.1940   -0.0700   -5.0380 c1        1 AJZ     -0.063000
      8 CAC         1.0760   -0.0620    5.3400 c2        1 AJZ     -0.714000
      9 CAD         3.4080   -0.1790   -3.8300 c3        1 AJZ     -0.260000
     10 CAE         1.4960   -0.7590   -2.1270 c1        1 AJZ      0.198000
     11 CAF         1.1360   -1.1660    6.0500 c1        1 AJZ      0.292000
     12 CAG         3.4540    0.4960   -1.4170 c2        1 AJZ     -0.169000
     13 CAH        -6.4220    0.1250   -0.9680 c2        1 AJZ      0.145000
     14 CAI        -3.5320    1.6520    2.1710 c2        1 AJZ     -0.276000
     15 CAJ        -2.5010   -0.5400    0.6270 c3        1 AJZ     -0.096000
     16 CAK        -2.2900    1.1760    2.3460 c2        1 AJZ     -0.061000
     17 OAN        -5.4440    0.0560   -0.2290 o         1 AJZ     -0.289000
     18 SAO        -0.1970    0.1450    4.2460 ss        1 AJZ      0.475000
     19 CAP         4.0310    0.4820   -2.6440 c2        1 AJZ      0.039000
     20 CAQ         2.1700   -0.1280   -1.1580 c2        1 AJZ     -0.264000
     21 NAV        -1.7310    0.0530    1.6980 nh        1 AJZ     -0.196000
     22 HOAA        5.5290    1.0140   -3.7100 ho        1 AJZ      0.253000
     23 HAB         2.3760    0.2690   -4.0020 hc        1 AJZ      0.158000
     24 HAC         1.7800    0.7730    5.5030 h4        1 AJZ      0.203000
     25 HAD         3.2280   -1.2770   -3.5870 hc        1 AJZ      0.158000
     26 HAE         3.7810   -0.5390   -5.9410 ha        1 AJZ      0.065000
     27 HAF         2.6140   -0.0090    3.3470 h4        1 AJZ      0.170000
     28 HAG         3.9630    0.9940   -0.5780 ha        1 AJZ      0.176000
     29 HAH        -7.0600    1.0320   -1.0200 h4        1 AJZ      0.072500
     30 HAHA       -6.7260   -0.7160   -1.6260 h4        1 AJZ      0.072500
     31 HAI        -4.2490    1.2600    1.4380 ha        1 AJZ      0.132000
     32 HAIA       -3.8930    2.4820    2.7900 ha        1 AJZ      0.132000
     33 HAJ        -3.5220   -0.7870    1.0280 h1        1 AJZ      0.093667
     34 HAJA       -2.0060   -1.4860    0.2880 h1        1 AJZ      0.093667
     35 HAK        -2.6230    0.1480   -0.2520 h1        1 AJZ      0.093667
     36 HAKA       -1.6130    1.6420    3.0950 h4        1 AJZ      0.144000
     37 OAA         5.2420    1.1110   -2.7820 oh        1 AJZ     -0.254000
@<TRIPOS>BOND
     1    1    2 1   
     2    1    6 1   
     3    2    3 1   
     4    2   20 1   
     5    3    4 1   
     6    4    5 1   
     7    4   27 1   
     8    5    6 1   
     9    5   18 1   
    10    6   21 1   
    11    7    9 1   
    12    7   26 1   
    13    8   11 1   
    14    8   18 1   
    15    8   24 1   
    16    9   19 1   
    17    9   23 1   
    18    9   25 1   
    19   10   20 1   
    20   12   19 1   
    21   12   20 1   
    22   12   28 1   
    23   13   17 1   
    24   13   29 1   
    25   13   30 1   
    26   14   16 1   
    27   14   31 1   
    28   14   32 1   
    29   15   21 1   
    30   15   33 1   
    31   15   34 1   
    32   15   35 1   
    33   16   21 1   
    34   16   36 1   
    35   19   37 1   
    36   22   37 1   
@<TRIPOS>SUBSTRUCTURE
     1 AJZ         1 TEMP              0 ****  ****    0 ROOT
