@<TRIPOS>MOLECULE
AK1
   49    52     1     0     0
SMALL
bcc


@<TRIPOS>ATOM
      1 C31        -0.6980    0.0540    0.0090 cc        1 AK1      0.397200
      2 C27         0.5570   -0.5910   -0.1860 cd        1 AK1     -0.208700
      3 C23        -1.8230    1.9570    6.0010 c3        1 AK1      0.695200
      4 C17        -2.8170    0.2500    4.4470 ca        1 AK1     -0.098000
      5 C20        -4.4260   -0.8240    6.4840 ca        1 AK1     -0.084000
      6 C15        -3.6630   -0.8470    4.1920 ca        1 AK1     -0.138400
      7 C12         1.4870   -0.2860   -1.2920 c3        1 AK1     -0.051100
      8 C14        -2.7660   -2.4460    2.5550 c         1 AK1      0.503100
      9 C11         1.9460    1.1760   -1.2550 c3        1 AK1      0.116800
     10 C9          3.3260    2.9330   -2.3830 ca        1 AK1      0.513200
     11 C7          3.1920    5.1170   -1.6480 ca        1 AK1      0.666900
     12 C4          4.4860    3.2210   -3.1340 ca        1 AK1     -0.351700
     13 C3          4.9370    4.6120   -3.0470 ca        1 AK1      0.486100
     14 C2          6.1310    4.8020   -3.8500 cc        1 AK1     -0.206800
     15 C1          6.5070    3.6460   -4.4650 cd        1 AK1     -0.077400
     16 F26        -1.5290    2.1490    7.3200 f         1 AK1     -0.204633
     17 N30        -1.4290   -0.4280    1.0380 nc        1 AK1     -0.644000
     18 C29        -0.7310   -1.4520    1.6410 cd        1 AK1      0.231300
     19 S28         0.7700   -1.7800    0.9290 ss        1 AK1      0.364700
     20 N6          4.2920    5.5420   -2.3120 nb        1 AK1     -0.566000
     21 N10         2.7830    1.5450   -2.4370 n4        1 AK1     -0.745700
     22 N8          2.6710    3.8530   -1.6410 nb        1 AK1     -0.699000
     23 S5          5.4900    2.3370   -4.1280 ss        1 AK1      0.111500
     24 F24        -2.3020    3.1500    5.5330 f         1 AK1     -0.204633
     25 F25        -0.6110    1.7900    5.3710 f         1 AK1     -0.204633
     26 C18        -2.7730    0.7750    5.7360 ca        1 AK1     -0.141300
     27 C19        -3.5770    0.2550    6.7570 ca        1 AK1      0.016000
     28 C21        -4.4780   -1.3870    5.2100 ca        1 AK1     -0.055000
     29 N22        -3.7640   -1.3660    2.8240 n4        1 AK1     -0.481200
     30 N13        -1.3070   -2.1320    2.7910 n4        1 AK1     -0.566500
     31 O16        -3.0920   -3.5530    2.1710 o         1 AK1     -0.281100
     32 H31        -1.1000    0.8790   -0.6040 h4        1 AK1      0.102100
     33 H17        -2.2160    0.7300    3.6540 ha        1 AK1      0.171000
     34 H20        -5.0730   -1.2310    7.2870 ha        1 AK1      0.216000
     35 H12         0.9570   -0.5050   -2.2650 hc        1 AK1      0.102700
     36 H12A        2.3820   -0.9690   -1.2430 hc        1 AK1      0.102700
     37 H11         2.5570    1.3730   -0.3270 hx        1 AK1      0.127700
     38 H11A        1.0440    1.8570   -1.2370 hx        1 AK1      0.127700
     39 H7          2.6430    5.8730   -1.0390 h5        1 AK1      0.104100
     40 H2          6.6350    5.7760   -3.9260 ha        1 AK1      0.224000
     41 H1          7.3740    3.5270   -5.1270 h4        1 AK1      0.226000
     42 HN10        3.5850    0.9040   -2.5090 hn        1 AK1      0.464800
     43 H19        -3.5410    0.6990    7.7740 ha        1 AK1      0.221000
     44 H21        -5.1660   -2.2310    5.0230 ha        1 AK1      0.186000
     45 HN22       -4.7090   -1.7830    2.6810 hn        1 AK1      0.521800
     46 HN13       -0.8160   -3.0350    2.9410 hn        1 AK1      0.509800
     47 H102        2.2210    1.4680   -3.2970 hn        1 AK1      0.464800
     48 H222       -3.6390   -0.5890    2.1440 hn        1 AK1      0.521800
     49 H132       -1.2000   -1.5360    3.6370 hn        1 AK1      0.509800
@<TRIPOS>BOND
     1    1    2 2   
     2    1   17 1   
     3    1   32 1   
     4    2    7 1   
     5    2   19 1   
     6    3   16 1   
     7    3   24 1   
     8    3   25 1   
     9    3   26 1   
    10    4    6 ar  
    11    4   26 ar  
    12    4   33 1   
    13    5   27 ar  
    14    5   28 ar  
    15    5   34 1   
    16    6   28 ar  
    17    6   29 1   
    18    7    9 1   
    19    7   35 1   
    20    7   36 1   
    21    8   29 1   
    22    8   30 1   
    23    8   31 2   
    24    9   21 1   
    25    9   37 1   
    26    9   38 1   
    27   10   12 ar  
    28   10   21 1   
    29   10   22 ar  
    30   11   20 ar  
    31   11   22 ar  
    32   11   39 1   
    33   12   13 ar  
    34   12   23 1   
    35   13   14 1   
    36   13   20 ar  
    37   14   15 2   
    38   14   40 1   
    39   15   23 1   
    40   15   41 1   
    41   17   18 2   
    42   18   19 1   
    43   18   30 1   
    44   21   42 1   
    45   21   47 1   
    46   26   27 ar  
    47   27   43 1   
    48   28   44 1   
    49   29   45 1   
    50   29   48 1   
    51   30   46 1   
    52   30   49 1   
@<TRIPOS>SUBSTRUCTURE
     1 AK1         1 TEMP              0 ****  ****    0 ROOT
