@<TRIPOS>MOLECULE
AK1
   46    49     1     0     0
SMALL
bcc


@<TRIPOS>ATOM
      1 C31        -0.1600    2.4400    0.0640 cc        1 AK1      0.343200
      2 C27         0.5920    1.2870   -0.1860 cd        1 AK1     -0.225700
      3 C23        -4.7450   -1.6590    8.7120 c3        1 AK1      0.687200
      4 C17        -3.6370   -0.6200    6.7060 ca        1 AK1     -0.136000
      5 C20        -5.4620   -1.8410    4.9820 ca        1 AK1     -0.112000
      6 C15        -3.5420   -0.3910    5.3140 ca        1 AK1      0.061600
      7 C12         1.2680    0.9790   -1.4540 c3        1 AK1     -0.013100
      8 C14        -1.9460    0.3830    3.5810 c         1 AK1      0.751100
      9 C11         2.4550    1.9270   -1.6720 c3        1 AK1      0.201800
     10 C9          4.2290    2.4550   -3.2960 ca        1 AK1      0.720200
     11 C7          5.9560    3.9500   -2.8550 ca        1 AK1      0.664900
     12 C4          4.7530    2.3110   -4.6260 ca        1 AK1     -0.383700
     13 C3          5.9250    3.0680   -4.9570 ca        1 AK1      0.472100
     14 C2          6.3210    2.8130   -6.3290 cc        1 AK1     -0.246800
     15 C1          5.4780    1.9230   -6.9320 cd        1 AK1     -0.136400
     16 F26        -5.2950   -2.8610    9.0820 f         1 AK1     -0.236633
     17 N30        -0.7330    2.5160    1.3080 nc        1 AK1     -0.648000
     18 C29        -0.4060    1.4070    2.0150 cd        1 AK1      0.439300
     19 S28         0.5860    0.2910    1.1520 ss        1 AK1      0.036700
     20 N6          6.5400    3.8980   -4.0680 nb        1 AK1     -0.691000
     21 N10         3.1360    1.6730   -2.9210 nh        1 AK1     -0.844900
     22 N8          4.8410    3.2960   -2.4120 nb        1 AK1     -0.760000
     23 S5          4.2460    1.3790   -5.9240 ss        1 AK1      0.061500
     24 F24        -5.5150   -0.7230    9.3610 f         1 AK1     -0.236633
     25 F25        -3.5440   -1.6190    9.3790 f         1 AK1     -0.236633
     26 C18        -4.6420   -1.4440    7.2060 ca        1 AK1     -0.143300
     27 C19        -5.5590   -2.0620    6.3550 ca        1 AK1     -0.103000
     28 C21        -4.4740   -1.0150    4.4560 ca        1 AK1     -0.110000
     29 N22        -2.5580    0.5020    4.8440 n         1 AK1     -0.460100
     30 N13        -0.7600    1.1590    3.3590 n         1 AK1     -0.488400
     31 O16        -2.3770   -0.3900    2.7020 o         1 AK1     -0.591100
     32 H31        -0.3220    3.2620   -0.6430 h4        1 AK1      0.048100
     33 H17        -2.9260   -0.1560    7.4090 ha        1 AK1      0.149000
     34 H20        -6.1790   -2.3250    4.3010 ha        1 AK1      0.147000
     35 H12         0.5330    1.0830   -2.3000 hc        1 AK1      0.060700
     36 H12A        1.6280   -0.0860   -1.4550 hc        1 AK1      0.060700
     37 H11         3.1990    1.7890   -0.8360 h1        1 AK1      0.061200
     38 H11A        2.0800    2.9910   -1.6220 h1        1 AK1      0.061200
     39 H7          6.4320    4.6170   -2.1050 h5        1 AK1      0.053100
     40 H2          7.1910    3.2930   -6.7840 ha        1 AK1      0.175000
     41 H1          5.5630    1.5700   -7.9600 h4        1 AK1      0.176000
     42 HN10        2.5500    1.3950   -3.6790 hn        1 AK1      0.415800
     43 H19        -6.3410   -2.7180    6.7670 ha        1 AK1      0.154000
     44 H21        -4.4200   -0.8600    3.3650 ha        1 AK1      0.178000
     45 HN22       -2.0630    0.9890    5.5600 hn        1 AK1      0.316500
     46 HN13       -0.6690    1.9760    3.9350 hn        1 AK1      0.305500
@<TRIPOS>BOND
     1    1    2 2   
     2    1   17 1   
     3    1   32 1   
     4    2    7 1   
     5    2   19 1   
     6    3   16 1   
     7    3   24 1   
     8    3   25 1   
     9    3   26 1   
    10    4    6 ar  
    11    4   26 ar  
    12    4   33 1   
    13    5   27 ar  
    14    5   28 ar  
    15    5   34 1   
    16    6   28 ar  
    17    6   29 1   
    18    7    9 1   
    19    7   35 1   
    20    7   36 1   
    21    8   29 1   
    22    8   30 1   
    23    8   31 2   
    24    9   21 1   
    25    9   37 1   
    26    9   38 1   
    27   10   12 ar  
    28   10   21 1   
    29   10   22 ar  
    30   11   20 ar  
    31   11   22 ar  
    32   11   39 1   
    33   12   13 ar  
    34   12   23 1   
    35   13   14 1   
    36   13   20 ar  
    37   14   15 2   
    38   14   40 1   
    39   15   23 1   
    40   15   41 1   
    41   17   18 2   
    42   18   19 1   
    43   18   30 1   
    44   21   42 1   
    45   26   27 ar  
    46   27   43 1   
    47   28   44 1   
    48   29   45 1   
    49   30   46 1   
@<TRIPOS>SUBSTRUCTURE
     1 AK1         1 TEMP              0 ****  ****    0 ROOT
