@<TRIPOS>MOLECULE
AK1
   46    49     1     0     0
SMALL
bcc


@<TRIPOS>ATOM
      1 C31        -0.1680    2.4380    0.0600 cc        1 AK1      0.343200
      2 C27         0.5890    1.2880   -0.1880 cd        1 AK1     -0.225700
      3 C23        -4.7330   -1.6670    8.7160 c3        1 AK1      0.687200
      4 C17        -3.6310   -0.6260    6.7080 ca        1 AK1     -0.136000
      5 C20        -5.4500   -1.8600    4.9870 ca        1 AK1     -0.112000
      6 C15        -3.5370   -0.3990    5.3150 ca        1 AK1      0.061600
      7 C12         1.2670    0.9800   -1.4550 c3        1 AK1     -0.013100
      8 C14        -1.9450    0.3790    3.5810 c         1 AK1      0.751100
      9 C11         2.4510    1.9330   -1.6740 c3        1 AK1      0.201800
     10 C9          4.2230    2.4650   -3.2970 ca        1 AK1      0.720200
     11 C7          5.9450    3.9660   -2.8580 ca        1 AK1      0.664900
     12 C4          4.7490    2.3210   -4.6270 ca        1 AK1     -0.383700
     13 C3          5.9180    3.0820   -4.9580 ca        1 AK1      0.472100
     14 C2          6.3150    2.8270   -6.3300 cc        1 AK1     -0.246800
     15 C1          5.4750    1.9330   -6.9320 cd        1 AK1     -0.136400
     16 F26        -5.2780   -2.8710    9.0890 f         1 AK1     -0.236633
     17 N30        -0.7420    2.5130    1.3040 nc        1 AK1     -0.648000
     18 C29        -0.4100    1.4070    2.0140 cd        1 AK1      0.439300
     19 S28         0.5880    0.2940    1.1530 ss        1 AK1      0.036700
     20 N6          6.5300    3.9150   -4.0700 nb        1 AK1     -0.691000
     21 N10         3.1330    1.6790   -2.9220 nu        1 AK1     -0.844900
     22 N8          4.8320    3.3090   -2.4140 nb        1 AK1     -0.760000
     23 S5          4.2450    1.3860   -5.9240 ss        1 AK1      0.061500
     24 F24        -5.5080   -0.7340    9.3630 f         1 AK1     -0.236633
     25 F25        -3.5320   -1.6210    9.3820 f         1 AK1     -0.236633
     26 C18        -4.6320   -1.4540    7.2090 ca        1 AK1     -0.143300
     27 C19        -5.5450   -2.0790    6.3600 ca        1 AK1     -0.103000
     28 C21        -4.4660   -1.0300    4.4590 ca        1 AK1     -0.110000
     29 N22        -2.5580    0.4970    4.8440 ns        1 AK1     -0.460100
     30 N13        -0.7630    1.1600    3.3580 ns        1 AK1     -0.488400
     31 O16        -2.3730   -0.3980    2.7030 o         1 AK1     -0.591100
     32 H31        -0.3330    3.2580   -0.6490 h4        1 AK1      0.048100
     33 H17        -2.9220   -0.1580    7.4100 ha        1 AK1      0.149000
     34 H20        -6.1650   -2.3490    4.3060 ha        1 AK1      0.147000
     35 H12         1.6310   -0.0830   -1.4550 hc        1 AK1      0.060700
     36 H12A        0.5320    1.0810   -2.3010 hc        1 AK1      0.060700
     37 H11         2.0720    2.9950   -1.6250 h1        1 AK1      0.061200
     38 H11A        3.1940    1.7980   -0.8370 h1        1 AK1      0.061200
     39 H7          6.4180    4.6360   -2.1080 h5        1 AK1      0.053100
     40 H2          7.1830    3.3100   -6.7850 ha        1 AK1      0.175000
     41 H1          5.5620    1.5800   -7.9600 h4        1 AK1      0.176000
     42 HN10        2.5480    1.3990   -3.6800 hn        1 AK1      0.415800
     43 H19        -6.3250   -2.7370    6.7730 ha        1 AK1      0.154000
     44 H21        -4.4130   -0.8770    3.3670 ha        1 AK1      0.178000
     45 HN22       -2.0660    0.9880    5.5590 hn        1 AK1      0.316500
     46 HN13       -0.6760    1.9790    3.9320 hn        1 AK1      0.305500
@<TRIPOS>BOND
     1    1    2 2   
     2    1   17 1   
     3    1   32 1   
     4    2    7 1   
     5    2   19 1   
     6    3   16 1   
     7    3   24 1   
     8    3   25 1   
     9    3   26 1   
    10    4    6 ar  
    11    4   26 ar  
    12    4   33 1   
    13    5   27 ar  
    14    5   28 ar  
    15    5   34 1   
    16    6   28 ar  
    17    6   29 1   
    18    7    9 1   
    19    7   35 1   
    20    7   36 1   
    21    8   29 1   
    22    8   30 1   
    23    8   31 2   
    24    9   21 1   
    25    9   37 1   
    26    9   38 1   
    27   10   12 ar  
    28   10   21 1   
    29   10   22 ar  
    30   11   20 ar  
    31   11   22 ar  
    32   11   39 1   
    33   12   13 ar  
    34   12   23 1   
    35   13   14 1   
    36   13   20 ar  
    37   14   15 2   
    38   14   40 1   
    39   15   23 1   
    40   15   41 1   
    41   17   18 2   
    42   18   19 1   
    43   18   30 1   
    44   21   42 1   
    45   26   27 ar  
    46   27   43 1   
    47   28   44 1   
    48   29   45 1   
    49   30   46 1   
@<TRIPOS>SUBSTRUCTURE
     1 AK1         1 TEMP              0 ****  ****    0 ROOT
