@<TRIPOS>MOLECULE
AK1
   46    49     1     0     0
SMALL
bcc


@<TRIPOS>ATOM
      1 C31         1.2480    1.7420   -0.3640 cc        1 AK1      0.343200
      2 C27         1.6110    0.3930   -0.4450 cd        1 AK1     -0.225700
      3 C23        -9.0650   -0.4640    0.8190 c3        1 AK1      0.687200
      4 C17        -6.6240    0.1090    0.6040 ca        1 AK1     -0.136000
      5 C20        -6.7490   -0.1150   -2.1760 ca        1 AK1     -0.112000
      6 C15        -5.4640    0.3520   -0.1670 ca        1 AK1      0.061600
      7 C12         2.9020   -0.1050   -0.9400 c3        1 AK1     -0.013100
      8 C14        -2.9950    0.4610    0.0270 c         1 AK1      0.751100
      9 C11         4.0250    0.2420    0.0470 c3        1 AK1      0.201800
     10 C9          6.4600    0.0370    0.3480 ca        1 AK1      0.720200
     11 C7          7.5520    0.6010    2.3220 ca        1 AK1      0.664900
     12 C4          7.7450   -0.2460   -0.2300 ca        1 AK1     -0.383700
     13 C3          8.8960   -0.0570    0.6040 ca        1 AK1      0.472100
     14 C2         10.1080   -0.3800   -0.1260 cc        1 AK1     -0.246800
     15 C1          9.8270   -0.7770   -1.4030 cd        1 AK1     -0.136400
     16 F26        -9.9760   -1.3330    0.2700 f         1 AK1     -0.236633
     17 N30        -0.0190    1.9880    0.1000 nc        1 AK1     -0.648000
     18 C29        -0.6240    0.8090    0.3840 cd        1 AK1      0.439300
     19 S28         0.3560   -0.5760    0.0740 ss        1 AK1      0.036700
     20 N6          8.8080    0.3690    1.8950 nb        1 AK1     -0.691000
     21 N10         5.3170   -0.2110   -0.4140 nh        1 AK1     -0.844900
     22 N8          6.3760    0.4740    1.6380 nb        1 AK1     -0.760000
     23 S5          8.1820   -0.7870   -1.7550 ss        1 AK1      0.061500
     24 F24        -9.7960    0.6740    1.0670 f         1 AK1     -0.236633
     25 F25        -8.8200   -0.9800    2.0690 f         1 AK1     -0.236633
     26 C18        -7.8180   -0.2310   -0.0270 ca        1 AK1     -0.143300
     27 C19        -7.8930   -0.3480   -1.4150 ca        1 AK1     -0.103000
     28 C21        -5.5450    0.2360   -1.5730 ca        1 AK1     -0.109000
     29 N22        -4.2900    0.7610    0.4940 n         1 AK1     -0.460100
     30 N13        -1.9110    0.6630    0.9450 n         1 AK1     -0.488400
     31 O16        -2.7890   -0.0020   -1.1130 o         1 AK1     -0.591100
     32 H31         1.8840    2.5910   -0.6420 h4        1 AK1      0.048100
     33 H17        -6.6030    0.1830    1.7040 ha        1 AK1      0.149000
     34 H20        -6.7960   -0.2060   -3.2720 ha        1 AK1      0.147000
     35 H12         2.8590   -1.2180   -1.0890 hc        1 AK1      0.060700
     36 H12A        3.1160    0.3570   -1.9440 hc        1 AK1      0.060700
     37 H11         4.0220    1.3590    0.2170 h1        1 AK1      0.061200
     38 H11A        3.8150   -0.2540    1.0370 h1        1 AK1      0.061200
     39 H7          7.4430    0.9500    3.3720 h5        1 AK1      0.053100
     40 H2         11.1000   -0.3010    0.3260 ha        1 AK1      0.175000
     41 H1         10.5660   -1.0730   -2.1490 h4        1 AK1      0.176000
     42 HN10        5.4620   -0.1620   -1.4000 hn        1 AK1      0.415800
     43 H19        -8.8430   -0.6270   -1.8970 ha        1 AK1      0.154000
     44 H21        -4.6540    0.4130   -2.2000 ha        1 AK1      0.178000
     45 HN22       -4.4040    0.9490    1.4670 hn        1 AK1      0.316500
     46 HN13       -2.0870    1.3290    1.6750 hn        1 AK1      0.305500
@<TRIPOS>BOND
     1    1    2 2   
     2    1   17 1   
     3    1   32 1   
     4    2    7 1   
     5    2   19 1   
     6    3   16 1   
     7    3   24 1   
     8    3   25 1   
     9    3   26 1   
    10    4    6 ar  
    11    4   26 ar  
    12    4   33 1   
    13    5   27 ar  
    14    5   28 ar  
    15    5   34 1   
    16    6   28 ar  
    17    6   29 1   
    18    7    9 1   
    19    7   35 1   
    20    7   36 1   
    21    8   29 1   
    22    8   30 1   
    23    8   31 2   
    24    9   21 1   
    25    9   37 1   
    26    9   38 1   
    27   10   12 ar  
    28   10   21 1   
    29   10   22 ar  
    30   11   20 ar  
    31   11   22 ar  
    32   11   39 1   
    33   12   13 ar  
    34   12   23 1   
    35   13   14 1   
    36   13   20 ar  
    37   14   15 2   
    38   14   40 1   
    39   15   23 1   
    40   15   41 1   
    41   17   18 2   
    42   18   19 1   
    43   18   30 1   
    44   21   42 1   
    45   26   27 ar  
    46   27   43 1   
    47   28   44 1   
    48   29   45 1   
    49   30   46 1   
@<TRIPOS>SUBSTRUCTURE
     1 AK1         1 TEMP              0 ****  ****    0 ROOT
