@<TRIPOS>MOLECULE
AK1
   46    36     1     0     0
SMALL
bcc


@<TRIPOS>ATOM
      1 C31        -0.6050   -0.7170   -1.2760 c1        1 AK1     -0.124000
      2 C27         0.6680   -0.0380   -1.3630 c1        1 AK1     -0.419000
      3 C23        -3.5310   -2.9980    8.3880 c3        1 AK1      0.466000
      4 C17        -2.6610   -2.1180    6.1810 c1        1 AK1     -0.136000
      5 C20        -2.2550    0.4130    7.2670 c1        1 AK1     -0.112000
      6 C15        -2.0900   -1.1110    5.4070 c1        1 AK1      0.069000
      7 C12         1.7840    0.6610   -2.1500 c2        1 AK1     -0.125000
      8 C14        -0.9060   -0.8630    3.2370 c1        1 AK1      0.377000
      9 C11         1.5260    0.5050   -3.6510 c3        1 AK1     -0.058000
     10 C9          2.4220    1.3360   -5.8180 c1        1 AK1      0.167000
     11 C7          4.3350    2.2910   -6.8710 c1        1 AK1     -0.008000
     12 C4          1.8020    1.2630   -7.0340 c1        1 AK1     -0.450000
     13 C3          2.4720    1.7180   -8.1960 c1        1 AK1      0.021000
     14 C2          1.4960    1.5060   -9.4610 c1        1 AK1     -0.137000
     15 C1          0.2680    0.9250   -8.9920 c1        1 AK1     -0.390000
     16 F26        -3.6420   -4.1160    7.6610 f         1 AK1     -0.165333
     17 N30        -0.9480   -0.9330    0.2450 n2        1 AK1     -0.122000
     18 C29         0.1160   -0.3850    1.0310 c1        1 AK1     -0.216000
     19 S28         1.1720    0.1980    0.0610 ss        1 AK1      0.612000
     20 N6          3.7130    2.2200   -8.1000 n1        1 AK1     -0.151000
     21 N10         2.4710    1.3060   -4.3880 n2        1 AK1     -0.262000
     22 N8          3.6770    1.8440   -5.7270 n1        1 AK1     -0.229000
     23 S5          0.3850    0.7410   -7.4670 s         1 AK1      0.561000
     24 F24        -2.6600   -3.2000    9.3890 f         1 AK1     -0.165333
     25 F25        -4.7290   -2.6730    8.8950 f         1 AK1     -0.165333
     26 C18        -3.0290   -1.8600    7.4990 c2        1 AK1     -0.136000
     27 C19        -2.8260   -0.5940    8.0420 c2        1 AK1     -0.103000
     28 C21        -1.8880    0.1540    5.9510 c1        1 AK1     -0.109000
     29 N22        -0.9880   -0.6040    4.6480 n3        1 AK1     -0.314000
     30 N13         0.1170   -0.2420    2.4580 n1        1 AK1     -0.256000
     31 O16        -1.7790   -1.5170    2.6870 o         1 AK1     -0.352000
     32 H31        -1.1580   -0.9940   -2.0310 DU        1 AK1      0.179000
     33 H17        -2.8030   -3.0120    5.7960 ha        1 AK1      0.148000
     34 H20        -2.1120    1.3100    7.6510 ha        1 AK1      0.148000
     35 H12         1.8000    1.6160   -1.9180 ha        1 AK1      0.102500
     36 H12A        2.6500    0.2550   -1.9220 ha        1 AK1      0.102500
     37 H11         1.6280   -0.4370   -3.9040 h1        1 AK1      0.108000
     38 H11A        0.6160    0.8010   -3.8590 h1        1 AK1      0.108000
     39 H7          5.2430    2.6580   -6.8020 ha        1 AK1      0.192000
     40 H2          1.7030    1.7320  -10.3820 DU        1 AK1      0.179000
     41 H1         -0.4810    0.6330   -9.5510 DU        1 AK1      0.179000
     42 HN10        3.1190    1.7820   -3.9390 hn        1 AK1      0.205000
     43 H19        -3.0850   -0.4110    8.9690 ha        1 AK1      0.154000
     44 H21        -1.4850    0.8640    5.4050 ha        1 AK1      0.178000
     45 HN22       -0.3470   -0.0930    5.0570 hn        1 AK1      0.231000
     46 HN13        0.8220    0.1820    2.8770 hn        1 AK1      0.219000
@<TRIPOS>BOND
     1    1    2 1   
     2    1   17 1   
     3    2   19 1   
     4    3   16 1   
     5    3   24 1   
     6    3   25 1   
     7    3   26 1   
     8    4   26 1   
     9    4   33 1   
    10    5   27 1   
    11    5   34 1   
    12    6   28 1   
    13    6   29 1   
    14    7    9 1   
    15    7   35 1   
    16    7   36 1   
    17    8   29 1   
    18    8   31 1   
    19    9   21 1   
    20    9   37 1   
    21    9   38 1   
    22   10   12 1   
    23   10   22 1   
    24   11   20 1   
    25   11   39 1   
    26   12   13 1   
    27   14   15 1   
    28   15   23 1   
    29   17   18 1   
    30   18   19 1   
    31   21   42 1   
    32   26   27 1   
    33   27   43 1   
    34   28   44 1   
    35   29   45 1   
    36   30   46 1   
@<TRIPOS>SUBSTRUCTURE
     1 AK1         1 TEMP              0 ****  ****    0 ROOT
