@<TRIPOS>MOLECULE
AK2
   43    46     1     0     0
SMALL
bcc


@<TRIPOS>ATOM
      1 C27         0.2750   -1.0870    1.2320 c2        1 AK2     -0.205200
      2 C26         1.6710   -0.8420    1.7940 c3        1 AK2      0.049000
      3 C24         1.3140    1.7980    1.6460 cu        1 AK2     -0.034800
      4 C23         0.8280    1.0710    0.4340 cx        1 AK2     -0.084100
      5 C22        -0.2240   -0.0150    0.5430 c2        1 AK2      0.012400
      6 C17        -5.9920   -3.3270   -0.7480 c1        1 AK2     -0.076900
      7 C15        -4.7190   -1.4020   -0.9130 c2        1 AK2      0.117000
      8 C13        -6.8580   -2.4860   -1.4260 c2        1 AK2     -0.311700
      9 C11        -8.1790   -4.0990   -2.7210 c3        1 AK2      0.182800
     10 C9        -12.9120   -7.3680   -4.9580 ce        1 AK2     -0.147700
     11 C8        -13.3960   -6.3930   -4.2190 c1        1 AK2     -0.474700
     12 C4         -7.6590   -6.8540   -4.9330 c1        1 AK2      0.526800
     13 C6         -9.6980   -5.7290   -3.8330 cf        1 AK2      0.886700
     14 C2        -11.3830   -7.3910   -4.8320 ce        1 AK2      0.496900
     15 C1        -10.9670   -6.1940   -4.0500 ce        1 AK2     -0.348900
     16 Cl28        1.2460    3.2100    2.4380 cl        1 AK2      0.033600
     17 C25         1.8230    0.5840    1.4900 cu        1 AK2     -0.123400
     18 N20        -1.4580    0.1500   -0.0790 ns        1 AK2     -0.455100
     19 C19        -2.4360   -0.8480   -0.1220 c         1 AK2      0.788100
     20 O21        -2.2640   -1.9760    0.3900 o         1 AK2     -0.609100
     21 N18        -3.6520   -0.5260   -0.7780 ns        1 AK2     -0.470500
     22 N16        -4.7950   -2.7110   -0.4650 nu        1 AK2     -0.199500
     23 S14        -6.1610   -0.9460   -1.6950 ss        1 AK2      0.024200
     24 N10        -9.5070   -4.5630   -3.0650 nu        1 AK2     -0.752000
     25 N5         -8.5880   -6.3290   -4.4140 n1        1 AK2     -1.150500
     26 N3        -10.7130   -8.3480   -5.3550 n2        1 AK2     -0.755100
     27 S7        -12.4210   -5.3890   -3.5280 sx        1 AK2      0.177100
     28 H27        -0.2200   -2.0450    1.4040 ha        1 AK2      0.182000
     29 H26         2.4260   -1.4870    1.2770 hc        1 AK2      0.082200
     30 H23         1.0600    1.4280   -0.5790 hc        1 AK2      0.101700
     31 H17        -4.0500   -3.1640    0.0230 hn        1 AK2      0.341700
     32 H12        -8.6680   -1.9830   -2.4470 hc        1 AK2      0.047200
     33 H12A       -8.8630   -2.9930   -0.9560 hc        1 AK2      0.047200
     34 H11        -7.5940   -4.8840   -2.1570 h1        1 AK2      0.067200
     35 H11A       -7.6280   -3.8700   -3.6770 h1        1 AK2      0.067200
     36 H8        -12.4380   -5.7200   -2.2650 hs        1 AK2      0.236000
     37 H4         -9.7230   -8.3350   -5.2590 hn        1 AK2      0.383400
     38 H25         1.7120   -1.0480    2.8930 hc        1 AK2      0.082200
     39 HN20       -1.6210    1.0380   -0.4950 hn        1 AK2      0.329500
     40 HN18       -3.7810    0.3770   -1.1760 hn        1 AK2      0.336500
     41 HN10      -10.1690   -4.4770   -2.3200 hn        1 AK2      0.407800
     42 C12        -8.2160   -2.8270   -1.8610 c3        1 AK2      0.024800
     43 H9        -13.4090   -8.0770   -5.6210 ha        1 AK2      0.172000
@<TRIPOS>BOND
     1    1    2 1   
     2    1    5 2   
     3    1   28 1   
     4    2   17 1   
     5    2   29 1   
     6    2   38 1   
     7    3    4 1   
     8    3   16 1   
     9    3   17 2   
    10    4    5 1   
    11    4   17 1   
    12    4   30 1   
    13    5   18 1   
    14    6    8 2   
    15    6   22 2   
    16    7   21 2   
    17    7   22 1   
    18    7   23 1   
    19    8   23 1   
    20    8   42 1   
    21    9   24 1   
    22    9   34 1   
    23    9   35 1   
    24    9   42 1   
    25   10   11 2   
    26   10   14 1   
    27   10   43 1   
    28   11   27 2   
    29   12   25 3   
    30   13   15 2   
    31   13   24 1   
    32   13   25 1   
    33   14   15 1   
    34   14   26 2   
    35   15   27 1   
    36   18   19 1   
    37   18   39 1   
    38   19   20 2   
    39   19   21 1   
    40   21   40 1   
    41   22   31 1   
    42   24   41 1   
    43   26   37 1   
    44   27   36 1   
    45   32   42 1   
    46   33   42 1   
@<TRIPOS>SUBSTRUCTURE
     1 AK2         1 TEMP              0 ****  ****    0 ROOT
