@<TRIPOS>MOLECULE
AK2
   43    45     1     0     0
SMALL
bcc


@<TRIPOS>ATOM
      1 C27         0.3270   -1.0970    0.9140 c2        1 AK2     -0.118000
      2 C26         1.5300   -1.1160    1.7680 c3        1 AK2     -0.213000
      3 C24         1.4960    1.3430    1.7040 c2        1 AK2     -0.143000
      4 C23         0.3710    1.3430    0.9280 c2        1 AK2     -0.053000
      5 C22        -0.2350    0.0840    0.5160 c2        1 AK2     -0.009000
      6 C17        -6.0820   -3.1090   -0.7230 c1        1 AK2     -0.139000
      7 C15        -4.6990   -1.2870   -1.0670 c2        1 AK2     -0.161000
      8 C13        -6.8460   -2.3440   -1.5890 c2        1 AK2     -0.483000
      9 C11        -8.1530   -4.0780   -2.7360 c3        1 AK2     -0.055000
     10 C9        -12.8620   -7.4180   -4.9120 c2        1 AK2      0.005000
     11 C8        -13.3460   -6.3200   -4.3740 c1        1 AK2     -0.846000
     12 C4         -7.6090   -7.1620   -4.4490 c1        1 AK2      0.200000
     13 C6         -9.6650   -5.7880   -3.7280 c2        1 AK2      0.311000
     14 C2        -11.3550   -7.4970   -4.6360 c2        1 AK2      0.035000
     15 C1        -10.9360   -6.2170   -4.0000 c2        1 AK2     -0.689000
     16 CL28        2.1960    2.8200    2.1670 cl        1 AK2      0.012000
     17 C25         2.1280    0.1480    2.1620 c1        1 AK2     -0.044000
     18 N20        -1.3620    0.1620   -0.3370 n         1 AK2     -0.308000
     19 C19        -2.4280   -0.7460   -0.2360 c2        1 AK2      0.408000
     20 O21        -2.3420   -1.8050    0.4240 o         1 AK2     -0.372000
     21 N18        -3.6110   -0.4310   -0.9510 n         1 AK2     -0.311000
     22 N16        -4.8790   -2.5090   -0.4360 n3        1 AK2     -0.108000
     23 S14        -6.0480   -0.8970   -2.0260 ss        1 AK2      0.504000
     24 N10        -9.4730   -4.5310   -3.1190 n3        1 AK2     -0.306000
     25 N5         -8.5470   -6.5210   -4.1040 n2        1 AK2     -0.335000
     26 N3        -10.7030   -8.5530   -4.9460 n2        1 AK2     -0.221000
     27 S7        -12.3780   -5.2710   -3.7470 s4        1 AK2      1.320000
     28 H27        -0.1030   -2.0730    0.6320 ha        1 AK2      0.170000
     29 H26         2.3450   -1.7190    1.2590 hc        1 AK2      0.181500
     30 H23        -0.0950    2.2890    0.6010 ha        1 AK2      0.144000
     31 H17        -4.1980   -2.9140    0.1720 hn        1 AK2      0.291000
     32 H12        -8.5470   -1.9270   -2.8180 hc        1 AK2      0.088000
     33 H12A       -8.9060   -2.6910   -1.2140 hc        1 AK2      0.088000
     34 H11        -7.6570   -4.7930   -2.0140 h1        1 AK2      0.106000
     35 H11A       -7.5170   -4.0210   -3.6640 h1        1 AK2      0.106000
     36 H8        -12.5270   -5.4040   -2.4580 hs        1 AK2     -0.168000
     37 H4         -9.7260   -8.5740   -4.7570 hn        1 AK2      0.139000
     38 H25         1.3020   -1.6780    2.7270 hc        1 AK2      0.181500
     39 HN20       -1.5340    1.0630   -0.7260 hn        1 AK2      0.230000
     40 HN18       -3.6250    0.3610   -1.5560 hn        1 AK2      0.249000
     41 HN10      -10.1810   -4.3170   -2.4450 hn        1 AK2      0.202000
     42 C12        -8.1850   -2.6900   -2.0780 c3        1 AK2     -0.059000
     43 H9        -13.3430   -8.1950   -5.5090 ha        1 AK2      0.172000
@<TRIPOS>BOND
     1    1    2 1   
     2    1    5 1   
     3    1   28 1   
     4    2   17 1   
     5    2   29 1   
     6    2   38 1   
     7    3    4 1   
     8    3   16 1   
     9    3   17 1   
    10    4    5 1   
    11    4   30 1   
    12    5   18 1   
    13    6    8 1   
    14    6   22 1   
    15    7   21 1   
    16    7   22 1   
    17    7   23 1   
    18    8   23 1   
    19    8   42 1   
    20    9   24 1   
    21    9   34 1   
    22    9   35 1   
    23    9   42 1   
    24   10   11 1   
    25   10   14 1   
    26   10   43 1   
    27   11   27 1   
    28   12   25 1   
    29   13   15 1   
    30   13   24 1   
    31   13   25 1   
    32   14   15 1   
    33   14   26 1   
    34   15   27 1   
    35   18   19 1   
    36   18   39 1   
    37   19   20 1   
    38   19   21 1   
    39   21   40 1   
    40   22   31 1   
    41   24   41 1   
    42   26   37 1   
    43   27   36 1   
    44   32   42 1   
    45   33   42 1   
@<TRIPOS>SUBSTRUCTURE
     1 AK2         1 TEMP              0 ****  ****    0 ROOT
