@<TRIPOS>MOLECULE
AK2
   43    46     1     0     0
SMALL
bcc


@<TRIPOS>ATOM
      1 C27         5.4770   -1.1470   -0.7280 ca        1 AK2     -0.136000
      2 C26         6.4380   -2.1370   -0.9140 ca        1 AK2     -0.100000
      3 C24         8.1360   -0.6960   -0.0140 ca        1 AK2      0.040400
      4 C23         7.1960    0.3120    0.1920 ca        1 AK2     -0.177000
      5 C22         5.8450    0.0950   -0.1700 ca        1 AK2      0.070600
      6 C17        -0.5950    2.6110   -0.2340 cc        1 AK2      0.345200
      7 C15         1.4290    2.0960    0.5270 cd        1 AK2      0.444300
      8 C13        -0.9520    1.7750    0.8280 cd        1 AK2     -0.232700
      9 C11        -2.9960    0.5790    0.1270 c3        1 AK2      0.201800
     10 C9         -8.6960   -1.4970   -0.6610 cc        1 AK2     -0.246800
     11 C8         -8.9150   -0.7130    0.4370 cd        1 AK2     -0.136400
     12 C4         -5.4090   -1.9380   -2.2390 ca        1 AK2      0.664900
     13 C6         -5.1380   -0.4980   -0.4330 ca        1 AK2      0.721200
     14 C2         -7.3000   -1.4750   -1.0530 ca        1 AK2      0.472100
     15 C1         -6.5460   -0.6300   -0.1740 ca        1 AK2     -0.383700
     16 CL28        9.7570   -0.4170    0.4200 cl        1 AK2     -0.093400
     17 C25         7.7690   -1.9270   -0.5640 ca        1 AK2     -0.143000
     18 N20         4.9320    1.1580   -0.0150 n         1 AK2     -0.458100
     19 C19         3.5640    0.9700    0.2580 c         1 AK2      0.750100
     20 O21         3.0090   -0.1430    0.1650 o         1 AK2     -0.591100
     21 N18         2.8280    2.1190    0.7020 n         1 AK2     -0.491400
     22 N16         0.7510    2.7950   -0.4190 nc        1 AK2     -0.656000
     23 S14         0.4130    1.2220    1.6120 ss        1 AK2      0.040700
     24 N10        -4.3670    0.2570    0.4510 nh        1 AK2     -0.844900
     25 N5         -4.5770   -1.1570   -1.4870 nb        1 AK2     -0.757000
     26 N3         -6.7330   -2.1420   -2.0990 nb        1 AK2     -0.692000
     27 S7         -7.5240    0.0350    1.0150 ss        1 AK2      0.058500
     28 H27         4.4300   -1.3460   -1.0120 ha        1 AK2      0.175000
     29 H26         6.1360   -3.1040   -1.3470 ha        1 AK2      0.143000
     30 H23         7.5150    1.2700    0.6310 ha        1 AK2      0.144000
     31 H17        -1.2940    3.1100   -0.9170 h4        1 AK2      0.047100
     32 H12        -2.3370    0.8810    2.1890 hc        1 AK2      0.058200
     33 H12A       -2.9140    2.3860    1.3640 hc        1 AK2      0.058200
     34 H11        -2.9290    1.1290   -0.8580 h1        1 AK2      0.064200
     35 H11A       -2.4260   -0.3880    0.0160 h1        1 AK2      0.064200
     36 H8         -9.8800   -0.5650    0.9240 h4        1 AK2      0.176000
     37 H4         -4.9130   -2.4660   -3.0820 h5        1 AK2      0.054100
     38 H25         8.5190   -2.7160   -0.7190 ha        1 AK2      0.150000
     39 HN20        5.3470    2.0260    0.2490 hn        1 AK2      0.314500
     40 HN18        3.2310    3.0070    0.4600 hn        1 AK2      0.305500
     41 HN10       -4.8720    0.9690    0.9330 hn        1 AK2      0.414800
     42 C12        -2.3300    1.4360    1.2120 c3        1 AK2     -0.010100
     43 H9         -9.4450   -2.0810   -1.2020 ha        1 AK2      0.174000
@<TRIPOS>BOND
     1    1    2 ar  
     2    1    5 ar  
     3    1   28 1   
     4    2   17 ar  
     5    2   29 1   
     6    3    4 ar  
     7    3   16 1   
     8    3   17 ar  
     9    4    5 ar  
    10    4   30 1   
    11    5   18 1   
    12    6    8 2   
    13    6   22 1   
    14    6   31 1   
    15    7   21 1   
    16    7   22 2   
    17    7   23 1   
    18    8   23 1   
    19    8   42 1   
    20    9   24 1   
    21    9   34 1   
    22    9   35 1   
    23    9   42 1   
    24   10   11 2   
    25   10   14 1   
    26   10   43 1   
    27   11   27 1   
    28   11   36 1   
    29   12   25 ar  
    30   12   26 ar  
    31   12   37 1   
    32   13   15 ar  
    33   13   24 1   
    34   13   25 ar  
    35   14   15 ar  
    36   14   26 ar  
    37   15   27 1   
    38   17   38 1   
    39   18   19 1   
    40   18   39 1   
    41   19   20 2   
    42   19   21 1   
    43   21   40 1   
    44   24   41 1   
    45   32   42 1   
    46   33   42 1   
@<TRIPOS>SUBSTRUCTURE
     1 AK2         1 TEMP              0 ****  ****    0 ROOT
