@<TRIPOS>MOLECULE
AK2
   43    45     1     0     0
SMALL
bcc


@<TRIPOS>ATOM
      1 C27         0.3340   -1.0720    0.8760 c2        1 AK2     -0.118000
      2 C26         1.5530   -1.1000    1.7070 c3        1 AK2     -0.213000
      3 C24         1.4680    1.3580    1.7430 c2        1 AK2     -0.143000
      4 C23         0.3300    1.3670    0.9890 c2        1 AK2     -0.053000
      5 C22        -0.2580    0.1120    0.5370 c2        1 AK2     -0.009000
      6 C17        -6.0630   -3.1490   -0.7250 c1        1 AK2     -0.139000
      7 C15        -4.7220   -1.2870   -1.0220 c2        1 AK2     -0.161000
      8 C13        -6.8580   -2.3670   -1.5480 c2        1 AK2     -0.483000
      9 C11        -8.1510   -4.0840   -2.7340 c3        1 AK2     -0.055000
     10 C9        -12.8350   -7.4360   -4.9470 c2        1 AK2      0.005000
     11 C8        -13.3300   -6.3670   -4.3630 c1        1 AK2     -0.846000
     12 C4         -7.5800   -7.0940   -4.5640 c1        1 AK2      0.200000
     13 C6         -9.6480   -5.7870   -3.7610 c2        1 AK2      0.311000
     14 C2        -11.3210   -7.4950   -4.7000 c2        1 AK2      0.035000
     15 C1        -10.9150   -6.2310   -4.0270 c2        1 AK2     -0.689000
     16 CL28        2.1470    2.8300    2.2530 cl        1 AK2      0.012000
     17 C25         2.1320    0.1600    2.1420 c1        1 AK2     -0.044000
     18 N20        -1.4020    0.2010   -0.2930 n         1 AK2     -0.308000
     19 C19        -2.4480   -0.7330   -0.2100 c2        1 AK2      0.407000
     20 O21        -2.3290   -1.8150    0.4060 o         1 AK2     -0.372000
     21 N18        -3.6500   -0.4140   -0.8910 n         1 AK2     -0.311000
     22 N16        -4.8670   -2.5360   -0.4360 n3        1 AK2     -0.108000
     23 S14        -6.0970   -0.8880   -1.9410 ss        1 AK2      0.504000
     24 N10        -9.4690   -4.5480   -3.1110 n3        1 AK2     -0.306000
     25 N5         -8.5230   -6.4850   -4.1810 n2        1 AK2     -0.335000
     26 N3        -10.6550   -8.5270   -5.0580 n2        1 AK2     -0.221000
     27 S7        -12.3700   -5.3220   -3.7160 s4        1 AK2      1.320000
     28 H27        -0.0810   -2.0450    0.5630 ha        1 AK2      0.170000
     29 H26         2.3700   -1.6650    1.1610 hc        1 AK2      0.181500
     30 H23        -0.1620    2.3140    0.7070 ha        1 AK2      0.144000
     31 H17        -4.1670   -2.9500    0.1440 hn        1 AK2      0.291000
     32 H12        -8.5870   -1.9390   -2.7320 hc        1 AK2      0.088000
     33 H12A       -8.9030   -2.7660   -1.1510 hc        1 AK2      0.088000
     34 H11        -7.6300   -4.8150   -2.0470 h1        1 AK2      0.106000
     35 H11A       -7.5330   -3.9820   -3.6700 h1        1 AK2      0.106000
     36 H8        -12.4950   -5.5030   -2.4300 hs        1 AK2     -0.168000
     37 H4         -9.6750   -8.5360   -4.8860 hn        1 AK2      0.139000
     38 H25         1.3540   -1.7040    2.6470 hc        1 AK2      0.181500
     39 HN20       -1.6000    1.1130   -0.6420 hn        1 AK2      0.230000
     40 HN18       -3.6910    0.4000   -1.4640 hn        1 AK2      0.249000
     41 HN10      -10.1690   -4.3720   -2.4180 hn        1 AK2      0.202000
     42 C12        -8.1980   -2.7210   -2.0270 c3        1 AK2     -0.059000
     43 H9        -13.3110   -8.2010   -5.5630 ha        1 AK2      0.172000
@<TRIPOS>BOND
     1    1    2 1   
     2    1    5 1   
     3    1   28 1   
     4    2   17 1   
     5    2   29 1   
     6    2   38 1   
     7    3    4 1   
     8    3   16 1   
     9    3   17 1   
    10    4    5 1   
    11    4   30 1   
    12    5   18 1   
    13    6    8 1   
    14    6   22 1   
    15    7   21 1   
    16    7   22 1   
    17    7   23 1   
    18    8   23 1   
    19    8   42 1   
    20    9   24 1   
    21    9   34 1   
    22    9   35 1   
    23    9   42 1   
    24   10   11 1   
    25   10   14 1   
    26   10   43 1   
    27   11   27 1   
    28   12   25 1   
    29   13   15 1   
    30   13   24 1   
    31   13   25 1   
    32   14   15 1   
    33   14   26 1   
    34   15   27 1   
    35   18   19 1   
    36   18   39 1   
    37   19   20 1   
    38   19   21 1   
    39   21   40 1   
    40   22   31 1   
    41   24   41 1   
    42   26   37 1   
    43   27   36 1   
    44   32   42 1   
    45   33   42 1   
@<TRIPOS>SUBSTRUCTURE
     1 AK2         1 TEMP              0 ****  ****    0 ROOT
