@<TRIPOS>MOLECULE
AK2
   43    35     1     0     0
SMALL
bcc


@<TRIPOS>ATOM
      1 C27         6.1660    3.6750   -1.0280 c1        1 AK2     -0.136000
      2 C26         7.5150    3.9390   -1.2080 c1        1 AK2     -0.122500
      3 C24         8.0560    2.3350    0.4950 c1        1 AK2     -0.038000
      4 C23         6.7070    2.0720    0.6740 c1        1 AK2     -0.177000
      5 C22         5.7620    2.7420   -0.0870 c1        1 AK2      0.078000
      6 C17        -0.1680    0.1720   -2.2930 c1        1 AK2     -0.117000
      7 C15         1.1480    1.0960   -0.4680 c1        1 AK2     -0.210000
      8 C12        -2.5100   -0.1610   -1.1900 c3        1 AK2     -0.098000
      9 C13        -1.0230    0.1120   -1.1320 c2        1 AK2     -0.426000
     10 C11        -2.8030   -1.4940   -0.5370 c3        1 AK2     -0.033000
     11 C9         -7.9340   -3.3160    2.1960 c1        1 AK2     -0.137000
     12 C8         -8.0480   -1.8870    2.0850 c1        1 AK2     -0.377000
     13 C4         -4.8210   -5.0950    0.6150 c1        1 AK2      0.002000
     14 C6         -4.7760   -2.7440    0.2390 c1        1 AK2      0.201000
     15 C2         -6.5920   -3.7770    1.4320 c1        1 AK2      0.034000
     16 C1         -5.9630   -2.6250    0.9010 c1        1 AK2     -0.480000
     17 CL28        9.2450    1.4770    1.4370 cl        1 AK2     -0.015000
     18 C25         8.4600    3.2690   -0.4460 c1        1 AK2     -0.122500
     19 N20         4.4850    2.5220    0.4900 n         1 AK2     -0.313000
     20 C19         3.4440    1.9530   -0.2880 c2        1 AK2      0.377000
     21 O21         3.6470    1.6530   -1.4470 o         1 AK2     -0.353000
     22 N18         2.1780    1.7000    0.2990 n2        1 AK2     -0.258000
     23 N16         1.2060    0.7970   -1.8630 n2        1 AK2     -0.127000
     24 S14        -0.2450    0.6820    0.0500 ss        1 AK2      0.610000
     25 N10        -4.1490   -1.5100   -0.0770 n3        1 AK2     -0.291000
     26 N5         -4.2010   -3.9630    0.0920 n1        1 AK2     -0.234000
     27 N3         -6.0200   -4.9800    1.2840 n1        1 AK2     -0.166000
     28 S7         -6.8390   -1.3770    1.2800 s         1 AK2      0.528000
     29 H27         5.5010    4.1470   -1.5640 ha        1 AK2      0.174000
     30 H26         7.7990    4.5970   -1.8700 ha        1 AK2      0.146500
     31 H23         6.4220    1.4140    1.3370 ha        1 AK2      0.145000
     32 H17        -0.4040   -0.1250   -3.1930 DU        1 AK2      0.179333
     33 H12        -2.8010   -0.1840   -2.1230 hc        1 AK2      0.099500
     34 H12A       -2.9900    0.5470   -0.7160 hc        1 AK2      0.099500
     35 H11        -2.6730   -2.2130   -1.1900 h1        1 AK2      0.100500
     36 H11A       -2.1970   -1.6270    0.2210 h1        1 AK2      0.100500
     37 H9         -8.5620   -3.9060    2.6550 DU        1 AK2      0.179333
     38 H8         -8.7910   -1.3430    2.4110 DU        1 AK2      0.179333
     39 H4         -4.4050   -5.9720    0.5080 ha        1 AK2      0.190000
     40 H25         9.4090    3.4550   -0.5730 ha        1 AK2      0.146500
     41 HN20        4.3340    2.7450    1.3610 hn        1 AK2      0.229000
     42 HN18        2.0250    1.9280    1.1690 hn        1 AK2      0.219000
     43 HN10       -4.5930   -0.7260    0.0600 hn        1 AK2      0.212000
@<TRIPOS>BOND
     1    1    5 1   
     2    1   29 1   
     3    2   18 1   
     4    2   30 1   
     5    3    4 1   
     6    3   17 1   
     7    4   31 1   
     8    5   19 1   
     9    6    9 1   
    10    6   23 1   
    11    7   23 1   
    12    7   24 1   
    13    8    9 1   
    14    8   10 1   
    15    8   33 1   
    16    8   34 1   
    17    9   24 1   
    18   10   25 1   
    19   10   35 1   
    20   10   36 1   
    21   11   12 1   
    22   11   15 1   
    23   12   28 1   
    24   13   27 1   
    25   13   39 1   
    26   14   25 1   
    27   14   26 1   
    28   15   16 1   
    29   18   40 1   
    30   19   20 1   
    31   19   41 1   
    32   20   21 1   
    33   20   22 1   
    34   22   42 1   
    35   25   43 1   
@<TRIPOS>SUBSTRUCTURE
     1 AK2         1 TEMP              0 ****  ****    0 ROOT
