@<TRIPOS>MOLECULE
AK3
   49    50     1     0     0
SMALL
bcc


@<TRIPOS>ATOM
      1 C31         0.3330    0.0350    4.7410 c1        1 AK3      0.107000
      2 N29         0.6320   -0.4740    2.2880 n3        1 AK3     -0.014000
      3 C24        14.4110    2.1100    7.6270 c2        1 AK3     -0.082000
      4 C23        15.6170    1.8010    8.1160 c2        1 AK3     -0.206000
      5 C22        16.6430    2.1770    5.9040 c1        1 AK3      0.198000
      6 C17         2.7930    2.3090   -0.0360 c1        1 AK3     -0.016000
      7 C20        14.3990    1.3210    5.2820 c2        1 AK3     -0.048000
      8 C15         0.8210    1.2340    0.5420 c2        1 AK3      0.082000
      9 C13         2.8690    0.6750    1.7720 c2        1 AK3      0.189000
     10 C14         1.4660    0.4570    1.5580 c2        1 AK3     -0.275000
     11 C10        11.4790    0.8480    5.8200 c2        1 AK3      0.405000
     12 C8          9.0880    0.3180    5.4520 c2        1 AK3     -0.159000
     13 C4          6.8750   -0.1330    4.5030 c2        1 AK3     -0.484000
     14 C6          7.7730    0.3240    3.5510 c1        1 AK3     -0.146000
     15 C3          5.4780   -0.5020    4.2490 c3        1 AK3     -0.064000
     16 C2          4.9440    0.3150    3.0660 c3        1 AK3     -0.033000
     17 F28        17.5880    2.4800    9.3620 f         1 AK3     -0.160000
     18 N7          9.0110    0.5730    4.0920 n3        1 AK3     -0.107000
     19 S5          7.5940   -0.2390    6.0490 ss        1 AK3      0.509000
     20 C32         0.9510   -1.8710    1.9390 c3        1 AK3     -0.141000
     21 N30         0.5640   -0.2290    3.6080 n2        1 AK3     -0.285000
     22 N16         1.4660    2.1120   -0.2230 n2        1 AK3     -0.249000
     23 N18         3.4830    1.6150    0.9380 n3        1 AK3     -0.215000
     24 N1          3.5840   -0.0280    2.7190 n3        1 AK3     -0.332000
     25 C25        16.2230    2.5750    9.2820 c3        1 AK3      0.456000
     26 F26        15.9610    3.9230    9.2840 f         1 AK3     -0.160000
     27 F27        15.7790    2.1430   10.5110 f         1 AK3     -0.160000
     28 C21        15.7040    1.8740    5.0230 c2        1 AK3     -0.443000
     29 C19        13.7850    1.4090    6.4940 c2        1 AK3     -0.015000
     30 N11        12.5170    0.8470    6.7690 n         1 AK3     -0.299000
     31 O12        11.6780    1.1070    4.6130 o         1 AK3     -0.368000
     32 H31        -0.2660    1.1050    0.3680 h4        1 AK3      0.170000
     33 H24        13.8270    2.9510    8.0500 ha        1 AK3      0.155000
     34 H22        16.2330    0.9450    7.7910 ha        1 AK3      0.185000
     35 H17         4.4590    1.8030    1.0350 hn        1 AK3      0.259000
     36 H20        13.8990    0.8400    4.4220 ha        1 AK3      0.175000
     37 H6          9.7860    0.9020    3.5540 hn        1 AK3      0.292000
     38 H3          4.8500   -0.3140    5.1620 hc        1 AK3      0.086500
     39 H3A         5.4110   -1.6000    4.0130 hc        1 AK3      0.086500
     40 H2          5.6140    0.1270    2.1760 h1        1 AK3      0.108000
     41 H2A         5.0150    1.4110    3.3300 h1        1 AK3      0.108000
     42 H32         0.9120   -1.9280    0.8200 h1        1 AK3      0.093667
     43 H32A        0.1600   -2.5400    2.3690 h1        1 AK3      0.093667
     44 H32B        1.9550   -2.2280    2.2880 h1        1 AK3      0.093667
     45 HN1         3.0890   -0.5950    3.3660 hn        1 AK3      0.237000
     46 H21        15.9380    2.0480    3.9490 ha        1 AK3      0.202000
     47 HN11       12.2790    0.8080    7.7360 hn        1 AK3      0.233000
     48 HN9        10.0630    0.1980    7.2250 hn        1 AK3      0.250000
     49 N9         10.1860    0.4990    6.2840 n         1 AK3     -0.310000
@<TRIPOS>BOND
     1    1   21 1   
     2    2   10 1   
     3    2   20 1   
     4    2   21 1   
     5    3    4 1   
     6    3   29 1   
     7    3   33 1   
     8    4   25 1   
     9    4   34 1   
    10    5   28 1   
    11    6   22 1   
    12    6   23 1   
    13    7   28 1   
    14    7   29 1   
    15    7   36 1   
    16    8   10 1   
    17    8   22 1   
    18    8   32 1   
    19    9   10 1   
    20    9   23 1   
    21    9   24 1   
    22   11   30 1   
    23   11   31 1   
    24   11   49 1   
    25   12   18 1   
    26   12   19 1   
    27   12   49 1   
    28   13   14 1   
    29   13   15 1   
    30   13   19 1   
    31   14   18 1   
    32   15   16 1   
    33   15   38 1   
    34   15   39 1   
    35   16   24 1   
    36   16   40 1   
    37   16   41 1   
    38   17   25 1   
    39   18   37 1   
    40   20   42 1   
    41   20   43 1   
    42   20   44 1   
    43   23   35 1   
    44   24   45 1   
    45   25   26 1   
    46   25   27 1   
    47   28   46 1   
    48   29   30 1   
    49   30   47 1   
    50   48   49 1   
@<TRIPOS>SUBSTRUCTURE
     1 AK3         1 TEMP              0 ****  ****    0 ROOT
