@<TRIPOS>MOLECULE
AK3
   49    40     1     0     0
SMALL
bcc


@<TRIPOS>ATOM
      1 C31        -6.8640   -3.7590   -4.5860 c1        1 AK3     -0.149000
      2 N29        -6.4780   -2.8710   -2.6100 n2        1 AK3     -0.133000
      3 C24         6.6250    1.8630    2.6260 c1        1 AK3     -0.136000
      4 C23         7.2750    2.6530    3.4870 c1        1 AK3     -0.136000
      5 C22         6.7980    2.8030    4.7930 c1        1 AK3     -0.103000
      6 C17        -3.7130   -2.0710   -5.4790 c1        1 AK3     -0.025000
      7 C20         4.9940    1.3290    4.3190 c1        1 AK3     -0.110500
      8 C15        -5.6910   -3.0420   -4.6560 c1        1 AK3     -0.035000
      9 C13        -4.3440   -1.7300   -3.2270 c1        1 AK3      0.155000
     10 C14        -5.4590   -2.4970   -3.4320 c1        1 AK3     -0.150000
     11 C10         3.2080    0.6710    1.9470 c1        1 AK3      0.378000
     12 C8          1.0720    0.5590    0.5880 c1        1 AK3     -0.217000
     13 C4         -1.3360    0.5260   -0.0430 c1        1 AK3     -0.424000
     14 C6         -0.9850    1.8790    0.3390 c1        1 AK3     -0.121000
     15 C3         -2.7310    0.0220   -0.3450 c2        1 AK3     -0.096000
     16 C2         -2.8140   -0.4060   -1.8050 c3        1 AK3     -0.047000
     17 F28         8.5970    4.4980    3.7960 f         1 AK3     -0.165333
     18 N7          0.5370    1.9010    0.7380 n2        1 AK3     -0.122000
     19 S5         -0.0650   -0.3500    0.0980 ss        1 AK3      0.620000
     20 C32        -7.2900   -2.9100   -1.4660 c2        1 AK3     -0.056000
     21 N30        -7.3430   -3.6530   -3.3340 n2        1 AK3     -0.024000
     22 N16        -4.8180   -2.8290   -5.6770 n1        1 AK3     -0.131000
     23 N18        -3.4730   -1.5170   -4.2450 n1        1 AK3     -0.217000
     24 N1         -4.1200   -0.8810   -2.0850 n3        1 AK3     -0.279000
     25 C25         8.4250    3.5190    2.9930 c3        1 AK3      0.466000
     26 F26         9.4800    2.8260    2.9420 f         1 AK3     -0.165333
     27 F27         8.1380    3.9900    1.7650 f         1 AK3     -0.165333
     28 C21         5.6490    2.1290    5.1960 c1        1 AK3     -0.110500
     29 C19         5.4690    1.1830    3.0270 c1        1 AK3      0.069000
     30 N11         4.6590    0.4650    2.0150 n2        1 AK3     -0.314000
     31 O12         2.6370    1.4760    2.7710 o         1 AK3     -0.353000
     32 N9          2.4650    0.1570    0.7990 n2        1 AK3     -0.255000
     33 H31        -7.2770   -4.2570   -5.3180 DU        1 AK3      0.193000
     34 H24         6.9730    1.7520    1.6730 ha        1 AK3      0.149000
     35 H22         7.2660    3.3710    5.4110 ha        1 AK3      0.154000
     36 H17        -3.0740   -1.9150   -6.2320 ha        1 AK3      0.193000
     37 H20         4.2200    0.8740    4.5880 ha        1 AK3      0.162500
     38 H6         -1.5890    2.6460    0.3450 DU        1 AK3      0.193000
     39 H3         -3.3540    0.7060   -0.1850 ha        1 AK3      0.098500
     40 H3A        -2.9330   -0.7490    0.2370 ha        1 AK3      0.098500
     41 H2         -2.6110    0.3670   -2.3880 h1        1 AK3      0.101000
     42 H2A        -2.1770   -1.1060   -1.9680 h1        1 AK3      0.101000
     43 H32        -8.1920   -3.1420   -1.7220 ha        1 AK3      0.100000
     44 H32A       -6.9370   -3.5950   -0.8260 ha        1 AK3      0.100000
     45 H32B       -7.2880   -1.9820   -1.0120 ha        1 AK3      0.100000
     46 HN1        -4.8220   -0.7090   -1.4830 hn        1 AK3      0.197000
     47 H21         5.3230    2.2290    6.0870 ha        1 AK3      0.162500
     48 HN11        5.0870   -0.0450    1.3550 hn        1 AK3      0.231000
     49 HN9         2.8800   -0.3760    0.1910 hn        1 AK3      0.219000
@<TRIPOS>BOND
     1    1    8 1   
     2    1   21 1   
     3    2   10 1   
     4    2   21 1   
     5    3   29 1   
     6    3   34 1   
     7    4    5 1   
     8    4   25 1   
     9    5   35 1   
    10    6   23 1   
    11    6   36 1   
    12    7   28 1   
    13    7   37 1   
    14    8   22 1   
    15    9   10 1   
    16    9   24 1   
    17   11   31 1   
    18   11   32 1   
    19   12   18 1   
    20   12   19 1   
    21   13   14 1   
    22   13   19 1   
    23   14   18 1   
    24   15   16 1   
    25   15   39 1   
    26   15   40 1   
    27   16   24 1   
    28   16   41 1   
    29   16   42 1   
    30   17   25 1   
    31   20   43 1   
    32   20   44 1   
    33   20   45 1   
    34   24   46 1   
    35   25   26 1   
    36   25   27 1   
    37   28   47 1   
    38   29   30 1   
    39   30   48 1   
    40   32   49 1   
@<TRIPOS>SUBSTRUCTURE
     1 AK3         1 TEMP              0 ****  ****    0 ROOT
