@<TRIPOS>MOLECULE
AK3
   49    50     1     0     0
SMALL
bcc


@<TRIPOS>ATOM
      1 C31         0.6970   -3.0140    1.9850 c1        1 AK3      0.105000
      2 N29         0.8570   -0.5210    2.3670 n3        1 AK3     -0.023000
      3 C24        14.6450    1.2260    7.7770 c2        1 AK3     -0.082000
      4 C23        15.9580    0.9710    7.7760 c2        1 AK3     -0.206000
      5 C22        16.3870    3.0200    6.4680 c1        1 AK3      0.198000
      6 C17         3.1070    1.6140   -0.5080 c1        1 AK3     -0.016000
      7 C20        14.1610    2.3320    5.6170 c2        1 AK3     -0.047000
      8 C15         1.1060    0.6310    0.1220 c2        1 AK3      0.047000
      9 C13         3.0260    0.4560    1.6370 c2        1 AK3      0.230000
     10 C14         1.6360    0.1830    1.3660 c2        1 AK3     -0.288000
     11 C10        11.5130    0.9330    5.8940 c2        1 AK3      0.404000
     12 C8          9.1690    0.2560    5.4680 c2        1 AK3     -0.161000
     13 C4          6.8440    0.0950    4.7130 c2        1 AK3     -0.483000
     14 C6          7.4490    1.2730    4.3040 c1        1 AK3     -0.146000
     15 C3          5.4560   -0.2920    4.4390 c3        1 AK3     -0.064000
     16 C2          5.0180    0.3010    3.0930 c3        1 AK3     -0.030000
     17 F28        18.0860    1.0350    8.9450 f         1 AK3     -0.160000
     18 N7          8.7520    1.3540    4.7320 n3        1 AK3     -0.107000
     19 S5          7.9140   -0.8830    5.6170 ss        1 AK3      0.510000
     20 C32        -0.4200    0.1750    2.6170 c3        1 AK3     -0.138000
     21 N30         0.7260   -1.8350    2.1040 n2        1 AK3     -0.283000
     22 N16         1.8110    1.3230   -0.7730 n2        1 AK3     -0.249000
     23 N18         3.7050    1.1960    0.6640 n3        1 AK3     -0.222000
     24 N1          3.6450    0.0000    2.7730 n3        1 AK3     -0.322000
     25 C25        16.7380    0.8240    9.0780 c3        1 AK3      0.456000
     26 F26        16.3460    1.6660   10.0890 f         1 AK3     -0.160000
     27 F27        16.6430   -0.4320    9.6300 f         1 AK3     -0.160000
     28 C21        15.3020    3.2030    5.7330 c2        1 AK3     -0.443000
     29 C19        13.8450    1.3940    6.5520 c2        1 AK3     -0.015000
     30 N11        12.7420    0.5170    6.4340 n         1 AK3     -0.299000
     31 O12        11.3920    2.0050    5.2620 o         1 AK3     -0.368000
     32 H31         0.0520    0.4070   -0.1340 h4        1 AK3      0.155000
     33 H24        14.0940    1.3510    8.7280 ha        1 AK3      0.154000
     34 H22        16.5670    0.7750    6.8760 ha        1 AK3      0.186000
     35 H17         4.6650    1.4330    0.8020 hn        1 AK3      0.258000
     36 H20        13.5220    2.4890    4.7280 ha        1 AK3      0.174000
     37 H6          9.3450    2.1340    4.5330 hn        1 AK3      0.292000
     38 H3          4.7860    0.0900    5.2590 hc        1 AK3      0.087000
     39 H3A         5.3550   -1.4110    4.4170 hc        1 AK3      0.087000
     40 H2          5.1760    1.4200    3.1340 h1        1 AK3      0.106500
     41 H2A         5.6860   -0.1150    2.2840 h1        1 AK3      0.106500
     42 H32        -1.1280    0.1710    1.7470 h1        1 AK3      0.094667
     43 H32A       -0.1570    1.2350    2.8710 h1        1 AK3      0.094667
     44 H32B       -0.9240   -0.3010    3.4980 h1        1 AK3      0.094667
     45 HN1         3.0970   -0.4730    3.4550 hn        1 AK3      0.259000
     46 H21        15.2570    4.1270    5.1150 ha        1 AK3      0.202000
     47 HN11       12.7480   -0.2470    7.0750 hn        1 AK3      0.233000
     48 HN9        10.5500   -0.8380    6.4700 hn        1 AK3      0.249000
     49 N9         10.4100    0.0600    6.0620 n         1 AK3     -0.310000
@<TRIPOS>BOND
     1    1   21 1   
     2    2   10 1   
     3    2   20 1   
     4    2   21 1   
     5    3    4 1   
     6    3   29 1   
     7    3   33 1   
     8    4   25 1   
     9    4   34 1   
    10    5   28 1   
    11    6   22 1   
    12    6   23 1   
    13    7   28 1   
    14    7   29 1   
    15    7   36 1   
    16    8   10 1   
    17    8   22 1   
    18    8   32 1   
    19    9   10 1   
    20    9   23 1   
    21    9   24 1   
    22   11   30 1   
    23   11   31 1   
    24   11   49 1   
    25   12   18 1   
    26   12   19 1   
    27   12   49 1   
    28   13   14 1   
    29   13   15 1   
    30   13   19 1   
    31   14   18 1   
    32   15   16 1   
    33   15   38 1   
    34   15   39 1   
    35   16   24 1   
    36   16   40 1   
    37   16   41 1   
    38   17   25 1   
    39   18   37 1   
    40   20   42 1   
    41   20   43 1   
    42   20   44 1   
    43   23   35 1   
    44   24   45 1   
    45   25   26 1   
    46   25   27 1   
    47   28   46 1   
    48   29   30 1   
    49   30   47 1   
    50   48   49 1   
@<TRIPOS>SUBSTRUCTURE
     1 AK3         1 TEMP              0 ****  ****    0 ROOT
