@<TRIPOS>MOLECULE
AK3
   49    50     1     0     0
SMALL
bcc


@<TRIPOS>ATOM
      1 C31         0.6700   -3.0470    2.1150 c1        1 AK3      0.105000
      2 N29         0.8480   -0.5440    2.4130 n3        1 AK3     -0.023000
      3 C24        14.6520    1.2910    7.7520 c2        1 AK3     -0.082000
      4 C23        15.9630    1.0290    7.7570 c2        1 AK3     -0.206000
      5 C22        16.4010    3.0360    6.3890 c1        1 AK3      0.198000
      6 C17         3.1100    1.4760   -0.5350 c1        1 AK3     -0.016000
      7 C20        14.1700    2.3360    5.5620 c2        1 AK3     -0.047000
      8 C15         1.1030    0.5290    0.1290 c2        1 AK3      0.047000
      9 C13         3.0230    0.3930    1.6490 c2        1 AK3      0.230000
     10 C14         1.6300    0.1210    1.3880 c2        1 AK3     -0.288000
     11 C10        11.5150    0.9600    5.8830 c2        1 AK3      0.404000
     12 C8          9.1670    0.2830    5.4800 c2        1 AK3     -0.161000
     13 C4          6.8400    0.1120    4.7330 c2        1 AK3     -0.483000
     14 C6          7.4510    1.2730    4.2870 c1        1 AK3     -0.146000
     15 C3          5.4500   -0.2760    4.4730 c3        1 AK3     -0.064000
     16 C2          5.0140    0.2740    3.1080 c3        1 AK3     -0.030000
     17 F28        18.0930    1.1160    8.9210 f         1 AK3     -0.160000
     18 N7          8.7550    1.3600    4.7110 n7        1 AK3     -0.107000
     19 S5          7.9060   -0.8450    5.6660 ss        1 AK3      0.510000
     20 C32        -0.4250    0.1690    2.6390 c3        1 AK3     -0.138000
     21 N30         0.7080   -1.8650    2.1940 n2        1 AK3     -0.283000
     22 N16         1.8120    1.1860   -0.7890 n2        1 AK3     -0.249000
     23 N18         3.7070    1.0950    0.6500 n7        1 AK3     -0.222000
     24 N1          3.6390   -0.0290    2.7990 n7        1 AK3     -0.322000
     25 C25        16.7440    0.9160    9.0620 c3        1 AK3      0.456000
     26 F26        16.3580    1.7900   10.0490 f         1 AK3     -0.160000
     27 F27        16.6440   -0.3230    9.6520 f         1 AK3     -0.160000
     28 C21        15.3170    3.2030    5.6510 c2        1 AK3     -0.443000
     29 C19        13.8510    1.4270    6.5240 c2        1 AK3     -0.015000
     30 N11        12.7430    0.5530    6.4340 ns        1 AK3     -0.299000
     31 O12        11.3990    2.0130    5.2190 o         1 AK3     -0.368000
     32 H31         0.0470    0.3040   -0.1180 h4        1 AK3      0.155000
     33 H24        14.1020    1.4470    8.7010 ha        1 AK3      0.154000
     34 H22        16.5690    0.8030    6.8630 ha        1 AK3      0.186000
     35 H17         4.6680    1.3300    0.7800 hn        1 AK3      0.258000
     36 H20        13.5310    2.4700    4.6690 ha        1 AK3      0.174000
     37 H6          9.3520    2.1300    4.4880 hn        1 AK3      0.292000
     38 H3          4.7830    0.1390    5.2800 hc        1 AK3      0.087000
     39 H3A         5.3420   -1.3940    4.4890 hc        1 AK3      0.087000
     40 H2          5.1800    1.3930    3.1100 h1        1 AK3      0.106500
     41 H2A         5.6790   -0.1730    2.3140 h1        1 AK3      0.106500
     42 H32        -1.1330    0.1400    1.7700 h1        1 AK3      0.094667
     43 H32A       -0.1540    1.2350    2.8560 h1        1 AK3      0.094667
     44 H32B       -0.9310   -0.2740    3.5360 h1        1 AK3      0.094667
     45 HN1         3.0890   -0.4740    3.4970 hn        1 AK3      0.259000
     46 H21        15.2750    4.1090    5.0050 ha        1 AK3      0.202000
     47 HN11       12.7460   -0.1920    7.0970 hn        1 AK3      0.233000
     48 HN9        10.5430   -0.7890    6.5130 hn        1 AK3      0.249000
     49 N9         10.4080    0.0980    6.0780 ns        1 AK3     -0.310000
@<TRIPOS>BOND
     1    1   21 1   
     2    2   10 1   
     3    2   20 1   
     4    2   21 1   
     5    3    4 1   
     6    3   29 1   
     7    3   33 1   
     8    4   25 1   
     9    4   34 1   
    10    5   28 1   
    11    6   22 1   
    12    6   23 1   
    13    7   28 1   
    14    7   29 1   
    15    7   36 1   
    16    8   10 1   
    17    8   22 1   
    18    8   32 1   
    19    9   10 1   
    20    9   23 1   
    21    9   24 1   
    22   11   30 1   
    23   11   31 1   
    24   11   49 1   
    25   12   18 1   
    26   12   19 1   
    27   12   49 1   
    28   13   14 1   
    29   13   15 1   
    30   13   19 1   
    31   14   18 1   
    32   15   16 1   
    33   15   38 1   
    34   15   39 1   
    35   16   24 1   
    36   16   40 1   
    37   16   41 1   
    38   17   25 1   
    39   18   37 1   
    40   20   42 1   
    41   20   43 1   
    42   20   44 1   
    43   23   35 1   
    44   24   45 1   
    45   25   26 1   
    46   25   27 1   
    47   28   46 1   
    48   29   30 1   
    49   30   47 1   
    50   48   49 1   
@<TRIPOS>SUBSTRUCTURE
     1 AK3         1 TEMP              0 ****  ****    0 ROOT
