@<TRIPOS>MOLECULE
AK3
   49    52     1     0     0
SMALL
bcc


@<TRIPOS>ATOM
      1 C31        10.1210    0.6330   -0.1550 cc        1 AK3      0.238200
      2 N29         8.3620    1.0500    1.0950 na        1 AK3      0.110900
      3 C24        -6.5350   -0.1690   -0.5900 ca        1 AK3     -0.136000
      4 C23        -7.7250    0.2310    0.0140 ca        1 AK3     -0.143300
      5 C22        -7.7870    0.4940    1.3830 ca        1 AK3     -0.103000
      6 C17         7.5870   -0.8570   -2.4000 ca        1 AK3      0.637900
      7 C20        -5.4350   -0.0620    1.5770 ca        1 AK3     -0.109000
      8 C15         8.9800    0.1030   -0.8980 ca        1 AK3      0.323000
      9 C13         6.5410   -0.0040   -0.4870 ca        1 AK3      0.676200
     10 C14         7.8450    0.4060   -0.0410 ca        1 AK3     -0.325800
     11 C10        -2.9000   -0.4430   -0.0160 c         1 AK3      0.751100
     12 C8         -0.5300   -0.8160   -0.3580 cc        1 AK3      0.440300
     13 C4          1.7100   -0.3010    0.4010 cc        1 AK3     -0.226700
     14 C6          1.3580   -1.6540    0.4610 cd        1 AK3      0.344200
     15 C3          3.0010    0.2550    0.8310 c3        1 AK3     -0.010100
     16 C2          4.1180   -0.1810   -0.1270 c3        1 AK3      0.189800
     17 F28        -9.7080   -0.7910   -0.9600 f         1 AK3     -0.236633
     18 N7          0.0890   -1.9550    0.0360 nd        1 AK3     -0.648000
     19 S5          0.4420    0.6010   -0.2000 ss        1 AK3      0.035700
     20 C32         7.5770    1.6710    2.1320 c3        1 AK3      0.042600
     21 N30         9.6980    1.1890    0.9950 nd        1 AK3     -0.491100
     22 N16         8.8570   -0.5340   -2.0870 nb        1 AK3     -0.657000
     23 N18         6.4400   -0.6450   -1.6830 nb        1 AK3     -0.743000
     24 N1          5.4110    0.3340    0.2750 nh        1 AK3     -0.834900
     25 C25        -8.9800    0.3690   -0.8400 c3        1 AK3      0.687200
     26 F26        -9.8900    1.2880   -0.3760 f         1 AK3     -0.236633
     27 F27        -8.7490    0.7520   -2.1390 f         1 AK3     -0.236633
     28 C21        -6.6350    0.3450    2.1520 ca        1 AK3     -0.112000
     29 C19        -5.3670   -0.3250    0.1910 ca        1 AK3      0.061600
     30 N11        -4.1970   -0.7980   -0.4350 n         1 AK3     -0.460100
     31 O12        -2.6850    0.1400    1.0660 o         1 AK3     -0.592100
     32 H31        11.1710    0.6030   -0.4500 h4        1 AK3      0.071800
     33 H24        -6.5240   -0.3580   -1.6760 ha        1 AK3      0.149000
     34 H22        -8.7340    0.8180    1.8420 ha        1 AK3      0.154000
     35 H17         7.4330   -1.3770   -3.3700 h5        1 AK3      0.056100
     36 H20        -4.5370   -0.1690    2.2110 ha        1 AK3      0.178000
     37 H6          2.0030   -2.4660    0.8150 h4        1 AK3      0.048100
     38 H3          2.9490    1.3770    0.8680 hc        1 AK3      0.059200
     39 H3A         3.2270   -0.1030    1.8740 hc        1 AK3      0.059200
     40 H2          4.1200   -1.3090   -0.1850 h1        1 AK3      0.061700
     41 H2A         3.8950    0.2130   -1.1590 h1        1 AK3      0.061700
     42 H32         7.0790    0.8700    2.7420 h1        1 AK3      0.060700
     43 H32A        8.2320    2.2830    2.8070 h1        1 AK3      0.060700
     44 H32B        6.7990    2.3370    1.6710 h1        1 AK3      0.060700
     45 HN1         5.5780    0.2800    1.2600 hn        1 AK3      0.401800
     46 H21        -6.6720    0.5510    3.2340 ha        1 AK3      0.147000
     47 HN11       -4.3200   -1.0880   -1.3810 hn        1 AK3      0.317500
     48 HN9        -2.0020   -1.4780   -1.5710 hn        1 AK3      0.305500
     49 N9         -1.8230   -0.7370   -0.9180 n         1 AK3     -0.488400
@<TRIPOS>BOND
     1    1    8 1   
     2    1   21 2   
     3    1   32 1   
     4    2   10 1   
     5    2   20 1   
     6    2   21 1   
     7    3    4 ar  
     8    3   29 ar  
     9    3   33 1   
    10    4    5 ar  
    11    4   25 1   
    12    5   28 ar  
    13    5   34 1   
    14    6   22 ar  
    15    6   23 ar  
    16    6   35 1   
    17    7   28 ar  
    18    7   29 ar  
    19    7   36 1   
    20    8   10 ar  
    21    8   22 ar  
    22    9   10 ar  
    23    9   23 ar  
    24    9   24 1   
    25   11   30 1   
    26   11   31 2   
    27   11   49 1   
    28   12   18 2   
    29   12   19 1   
    30   12   49 1   
    31   13   14 2   
    32   13   15 1   
    33   13   19 1   
    34   14   18 1   
    35   14   37 1   
    36   15   16 1   
    37   15   38 1   
    38   15   39 1   
    39   16   24 1   
    40   16   40 1   
    41   16   41 1   
    42   17   25 1   
    43   20   42 1   
    44   20   43 1   
    45   20   44 1   
    46   24   45 1   
    47   25   26 1   
    48   25   27 1   
    49   28   46 1   
    50   29   30 1   
    51   30   47 1   
    52   48   49 1   
@<TRIPOS>SUBSTRUCTURE
     1 AK3         1 TEMP              0 ****  ****    0 ROOT
