@<TRIPOS>MOLECULE
AK4
   51    48     1     0     0
SMALL
bcc


@<TRIPOS>ATOM
      1 C30       159.9870 -374.3700 -167.8870 c1        1 AK4      0.456000
      2 C28       159.1000 -366.2750 -170.4530 c1        1 AK4      0.370000
      3 C24       -90.8120  218.8230   94.4670 c2        1 AK4     -0.168000
      4 C23       -89.9490  217.6770   94.2450 c2        1 AK4     -0.087000
      5 C22       -88.9360  217.2610   95.0290 c2        1 AK4     -0.042000
      6 C17       158.3510 -370.3620 -164.6610 c1        1 AK4      0.359000
      7 C20       -87.4320  217.7350   96.9390 c1        1 AK4      0.265000
      8 C15       158.2860 -367.0310 -166.8120 c2        1 AK4     -0.023000
      9 C13       158.8350 -369.5260 -167.0180 c2        1 AK4      0.053000
     10 C14       158.7340 -368.2430 -167.5240 c2        1 AK4     -0.035000
     11 C10       -92.2060  221.6030   94.2780 c2        1 AK4      0.429000
     12 C8        -94.1860  225.0860   95.4100 c2        1 AK4     -0.408000
     13 C4        -96.4440  225.5830   97.0560 c2        1 AK4     -0.005000
     14 C6        -95.9230  224.2350   96.8340 c1        1 AK4     -0.014000
     15 C3        -95.8560  226.6730   96.4720 c2        1 AK4     -0.546000
     16 C2        -97.6220  225.6740   97.9370 c3        1 AK4     -0.197000
     17 O32       159.7650 -373.1910 -167.8830 o         1 AK4     -0.226500
     18 O31       160.2050 -375.5300 -167.8890 o         1 AK4     -0.226500
     19 C29       159.4700 -369.5380 -169.3210 c1        1 AK4      0.199000
     20 N26       159.1280 -368.2720 -168.9310 n3        1 AK4     -0.019000
     21 N27       159.1120 -367.2030 -169.6980 n2        1 AK4     -0.301000
     22 N18       158.5830 -369.9930 -165.7750 n2        1 AK4     -0.354000
     23 N16       158.7790 -365.8630 -166.8240 n2        1 AK4     -0.126000
     24 S5        -94.5510  226.6390   95.4880 ss        1 AK4      1.018000
     25 N7        -94.8480  224.0700   96.0400 n3        1 AK4     -0.067000
     26 O12       -92.8090  222.6490   94.6810 o         1 AK4     -0.546000
     27 N11       -91.0440  221.2210   94.9490 n         1 AK4     -0.329000
     28 C19       -90.3190  220.0450   94.7640 c2        1 AK4     -0.036000
     29 C21       -88.5540  217.9010   96.2630 c2        1 AK4     -0.479000
     30 H28       157.3870 -367.2140 -166.1780 h4        1 AK4      0.199000
     31 H24       -91.8920  218.6190   94.3580 ha        1 AK4      0.152000
     32 H22       -88.3520  216.3650   94.7480 ha        1 AK4      0.158000
     33 H17       159.5890 -365.6610 -167.3700 hn        1 AK4      0.174000
     34 H20       -89.2260  220.1940   94.9070 h4        1 AK4      0.160000
     35 H6        -94.4990  223.1220   95.8970 hn        1 AK4      0.332000
     36 H3        -97.3740  225.2430   98.9440 hc        1 AK4      0.129000
     37 H3A       -98.4600  225.0610   97.5100 hc        1 AK4      0.129000
     38 H2        -97.9680  226.7280   98.0660 hc        1 AK4      0.129000
     39 H2A       -96.2770  227.6820   96.6630 h4        1 AK4      0.223000
     40 H29        -5.5270   54.3090   14.3780 ha        1 AK4      0.000000
     41 H29A       -5.8590   54.8370   14.6420 ha        1 AK4      0.000000
     42 HN1       160.2110 -370.8870 -167.8960 hn        1 AK4      0.301500
     43 HN9       -93.3080  224.7620   94.7860 h5        1 AK4      0.268000
     44 HN11      -92.1910  220.1600   92.7850 hn        1 AK4      0.248500
     45 H21       -89.3030  218.5970   96.7070 ha        1 AK4      0.192000
     46 H112      -90.7430  221.8390   95.6710 hn        1 AK4      0.258000
     47 H12       158.6340 -371.1850 -168.3300 hn        1 AK4      0.301500
     48 H92       -93.4650  221.2950   92.7120 hn        1 AK4      0.248500
     49 N1        159.3120 -370.4350 -168.1240 n4        1 AK4     -0.102000
     50 N9        -92.7010  220.9000   93.2030 n         1 AK4     -0.406000
     51 CL25      -90.3350  216.7920   92.8340 cl        1 AK4     -0.009000
@<TRIPOS>BOND
     1    1   17 1   
     2    1   18 1   
     3    2   21 1   
     4    3    4 1   
     5    3   28 1   
     6    3   31 1   
     7    4    5 1   
     8    4   51 1   
     9    5   29 1   
    10    5   32 1   
    11    6   22 1   
    12    7   29 1   
    13    8   10 1   
    14    8   23 1   
    15    8   30 1   
    16    9   10 1   
    17    9   22 1   
    18    9   49 1   
    19   10   20 1   
    20   11   26 1   
    21   11   27 1   
    22   11   50 1   
    23   12   24 1   
    24   12   25 1   
    25   12   43 1   
    26   13   14 1   
    27   13   15 1   
    28   13   16 1   
    29   14   25 1   
    30   15   24 1   
    31   15   39 1   
    32   16   36 1   
    33   16   37 1   
    34   16   38 1   
    35   19   20 1   
    36   19   49 1   
    37   20   21 1   
    38   23   33 1   
    39   25   35 1   
    40   27   28 1   
    41   27   46 1   
    42   28   34 1   
    43   29   45 1   
    44   40   41 1   
    45   42   49 1   
    46   44   50 1   
    47   47   49 1   
    48   48   50 1   
@<TRIPOS>SUBSTRUCTURE
     1 AK4         1 TEMP              0 ****  ****    0 ROOT
