@<TRIPOS>MOLECULE
AK4
   48    59     1     0     0
SMALL
bcc


@<TRIPOS>ATOM
      1 C30         0.0000    0.0000    0.0000 c2        1 AK4      0.341000
      2 C28        -4.2480    0.7640   -0.7310 c2        1 AK4     -0.219000
      3 C24         2.3080  -13.0670   -1.6960 c2        1 AK4     -0.326000
      4 C23         2.4100  -14.2210   -2.4510 c3        1 AK4     -0.233000
      5 C22         2.0630  -15.4420   -1.8990 c2        1 AK4     -0.325000
      6 C17        -4.9570   -2.8120   -0.2320 c2        1 AK4     -0.437000
      7 C20         1.5120  -14.3630    0.1660 c3        1 AK4      0.039000
      8 C15        -4.2780   -0.6390   -0.5820 c3        1 AK4     -0.447000
      9 C13        -2.7170   -2.4760   -0.6850 c2        1 AK4      0.033000
     10 C14        -2.9640   -1.0990   -0.7800 c3        1 AK4     -0.394000
     11 C10         1.4040  -10.8080   -0.0660 c2        1 AK4      0.357000
     12 C8          1.0740   -8.4600    0.0140 c2        1 AK4     -0.455000
     13 C4          0.5590   -6.1720   -0.7320 c2        1 AK4      0.089000
     14 C6          0.4710   -7.1230   -1.6640 c2        1 AK4     -0.601000
     15 C3          0.2930   -4.7020   -0.9380 DU        1 AK4      0.232000
     16 C2         -1.1840   -4.4090   -0.6700 DU        1 AK4      0.483000
     17 O32         1.3420    0.0000    0.0000 o         1 AK4     -0.591000
     18 O31        -0.6040    0.0000    1.0470 o         1 AK4     -0.591000
     19 C29        -0.7540    0.0050   -1.3050 c3        1 AK4     -0.258000
     20 N26        -2.1940    0.0040   -1.0360 n3        1 AK4      0.314000
     21 N27        -3.0260    1.1310   -0.9970 n2        1 AK4     -0.143000
     22 N18        -3.7360   -3.2840   -0.4120 n2        1 AK4     -0.051000
     23 N16        -5.2390   -1.5320   -0.3110 n2        1 AK4      0.834000
     24 S5          1.0390   -6.9340    0.7830 ss        1 AK4      0.335000
     25 N7          0.7530   -8.3380   -1.2360 n2        1 AK4      0.594000
     26 O12         1.1090  -10.7970   -1.2450 o         1 AK4     -0.497000
     27 N11         1.7250  -11.9680    0.5390 ns        1 AK4     -0.339000
     28 C19         1.8580  -13.1360   -0.3830 c3        1 AK4      0.312000
     29 C21         1.6150  -15.5120   -0.5930 c2        1 AK4     -0.003000
     30 H28        -3.6460   -0.1300   -0.8440 DU        1 AK4      0.349000
     31 H24         2.0110  -12.1510   -1.2000 DU        1 AK4      0.287000
     32 H22         2.6020  -14.9560   -2.7040 DU        1 AK4      0.347000
     33 H17        -4.9940   -1.7340   -0.3350 h5        1 AK4     -0.103000
     34 H20         1.8360  -13.6400   -0.5730 hc        1 AK4     -0.301000
     35 H6          0.6590   -8.1870   -1.7350 h4        1 AK4      0.143000
     36 H3         -0.7580   -4.4960   -0.7770 ha        1 AK4     -0.346000
     37 H3A         0.3510   -5.7470   -0.6560 ha        1 AK4     -0.346000
     38 H2         -0.7590   -5.1840   -1.2970 DU        1 AK4      0.054000
     39 H2A        -0.1310   -4.2650   -0.4600 DU        1 AK4      0.054000
     40 H29        -0.4540   -1.0240   -1.4580 h1        1 AK4      0.171000
     41 H29A       -0.8910   -0.9950   -0.9110 h1        1 AK4      0.171000
     42 HN1        -1.5960   -3.9660   -0.9610 DU        1 AK4      0.216000
     43 HN9         1.2030   -8.7160    0.3680 hn        1 AK4      0.357000
     44 HN11        1.5580  -10.9980    0.3570 hn        1 AK4      0.351000
     45 H21         1.3880  -14.4610   -0.7240 DU        1 AK4      0.097000
     46 N1         -1.4420   -2.9810   -0.8700 n7        1 AK4     -0.278000
     47 N9          1.4070   -9.6580    0.6380 ns        1 AK4     -0.418000
     48 Cl25        2.9710  -14.1380   -4.0910 cl        1 AK4      0.144000
@<TRIPOS>BOND
     1    1   17 1   
     2    1   18 1   
     3    1   19 1   
     4    2    8 1   
     5    2   21 1   
     6    2   30 1   
     7    3    4 1   
     8    3   28 1   
     9    3   31 1   
    10    4    5 1   
    11    4   32 1   
    12    4   48 1   
    13    5   29 1   
    14    5   32 1   
    15    6   22 1   
    16    6   23 1   
    17    6   33 1   
    18    7   28 1   
    19    7   29 1   
    20    7   34 1   
    21    7   45 1   
    22    8   10 1   
    23    8   23 1   
    24    8   30 1   
    25    9   10 1   
    26    9   22 1   
    27    9   46 1   
    28   10   20 1   
    29   10   30 1   
    30   11   26 1   
    31   11   27 1   
    32   11   47 1   
    33   12   24 1   
    34   12   25 1   
    35   12   47 1   
    36   13   14 1   
    37   13   15 1   
    38   13   24 1   
    39   14   25 1   
    40   14   35 1   
    41   15   16 1   
    42   15   36 1   
    43   15   37 1   
    44   15   38 1   
    45   15   39 1   
    46   16   38 1   
    47   16   39 1   
    48   16   42 1   
    49   16   46 1   
    50   19   20 1   
    51   19   40 1   
    52   19   41 1   
    53   20   21 1   
    54   27   28 1   
    55   27   44 1   
    56   28   31 1   
    57   29   45 1   
    58   42   46 1   
    59   43   47 1   
@<TRIPOS>SUBSTRUCTURE
     1 AK4         1 TEMP              0 ****  ****    0 ROOT
