@<TRIPOS>MOLECULE
AK4
   48    51     1     0     0
SMALL
bcc


@<TRIPOS>ATOM
      1 C30         5.7610   -2.0810    0.4680 c         1 AK4      0.907600
      2 C28         7.9110    1.9040    0.2820 cc        1 AK4      0.193200
      3 C24        -6.7030    0.8230   -0.2660 ca        1 AK4     -0.139000
      4 C23        -7.8680    1.5520   -0.5070 ca        1 AK4      0.042400
      5 C22        -8.7970    1.8060    0.5040 ca        1 AK4     -0.157000
      6 C17         4.5870    3.4820    0.0640 ca        1 AK4      0.627900
      7 C20        -7.3930    0.5910    2.0570 ca        1 AK4     -0.188000
      8 C15         6.5340    2.3310    0.1360 ca        1 AK4      0.304000
      9 C13         4.4120    1.2130   -0.4980 ca        1 AK4      0.710200
     10 C14         5.8360    1.1170   -0.2640 ca        1 AK4     -0.327800
     11 C10        -4.0890   -0.3740    0.6660 c         1 AK4      0.747100
     12 C8         -1.8840   -1.3510    0.4460 cc        1 AK4      0.390300
     13 C4          0.3120   -1.4250   -0.5700 cc        1 AK4     -0.164700
     14 C6         -0.6110   -2.3500   -1.0720 cd        1 AK4      0.312200
     15 C3          1.7160   -1.3420   -0.9970 c3        1 AK4     -0.049100
     16 C2          2.2680    0.0840   -0.8580 c3        1 AK4      0.211800
     17 O32         6.3220   -2.3600    1.5510 o         1 AK4     -0.812800
     18 O31         4.5880   -2.4260    0.1350 o         1 AK4     -0.812800
     19 C29         6.5750   -1.3030   -0.6170 c3        1 AK4     -0.097700
     20 N26         6.8050    0.1040   -0.3330 na        1 AK4      0.180900
     21 N27         8.0080    0.5820    0.0030 nd        1 AK4     -0.498100
     22 N18         3.8060    2.4190   -0.3080 nb        1 AK4     -0.787000
     23 N16         5.9090    3.5300    0.2960 nb        1 AK4     -0.695000
     24 S5         -0.4000   -0.4920    0.6200 ss        1 AK4      0.031700
     25 N7         -1.8590   -2.3160   -0.5040 nd        1 AK4     -0.642000
     26 O12        -3.9500    0.2990   -0.3730 o         1 AK4     -0.578100
     27 N11        -5.3340   -0.4700    1.3330 n         1 AK4     -0.469100
     28 C19        -6.4500    0.3290    1.0320 ca        1 AK4      0.085600
     29 C21        -8.5460    1.3160    1.7840 ca        1 AK4     -0.100000
     30 H28         8.7680    2.5070    0.5740 h4        1 AK4      0.048800
     31 H24        -5.9840    0.6450   -1.0850 ha        1 AK4      0.190000
     32 H22        -9.7090    2.3820    0.2970 ha        1 AK4      0.143000
     33 H17         4.0290    4.4310    0.1910 h5        1 AK4      0.030100
     34 H20        -7.2220    0.2210    3.0800 ha        1 AK4      0.130000
     35 H6         -0.4070   -3.0820   -1.8620 h4        1 AK4      0.045100
     36 H3          2.3380   -2.0580   -0.3760 hc        1 AK4      0.097200
     37 H3A         1.8080   -1.6780   -2.0650 hc        1 AK4      0.097200
     38 H2          1.8270    0.7410   -1.6600 h1        1 AK4      0.041200
     39 H2A         1.9360    0.5000    0.1400 h1        1 AK4      0.041200
     40 H29         7.5700   -1.8210   -0.7120 h1        1 AK4      0.059700
     41 H29A        6.0410   -1.3620   -1.6050 h1        1 AK4      0.059700
     42 HN1         4.1490   -0.7760   -0.8270 hn        1 AK4      0.474800
     43 HN9        -3.2270   -1.8150    1.8690 hn        1 AK4      0.292500
     44 HN11       -5.3320   -0.8410    2.2590 hn        1 AK4      0.309500
     45 H21        -9.2680    1.5100    2.5920 ha        1 AK4      0.132000
     46 N1          3.7070    0.1190   -0.9890 nh        1 AK4     -0.843900
     47 N9         -2.9800   -1.0380    1.2830 n         1 AK4     -0.475400
     48 CL25       -8.1630    2.1430   -2.0770 cl        1 AK4     -0.097400
@<TRIPOS>BOND
     1    1   17 1   
     2    1   18 1   
     3    1   19 1   
     4    2    8 1   
     5    2   21 2   
     6    2   30 1   
     7    3    4 ar  
     8    3   28 ar  
     9    3   31 1   
    10    4    5 ar  
    11    4   48 1   
    12    5   29 ar  
    13    5   32 1   
    14    6   22 ar  
    15    6   23 ar  
    16    6   33 1   
    17    7   28 ar  
    18    7   29 ar  
    19    7   34 1   
    20    8   10 ar  
    21    8   23 ar  
    22    9   10 ar  
    23    9   22 ar  
    24    9   46 1   
    25   10   20 1   
    26   11   26 2   
    27   11   27 1   
    28   11   47 1   
    29   12   24 1   
    30   12   25 2   
    31   12   47 1   
    32   13   14 2   
    33   13   15 1   
    34   13   24 1   
    35   14   25 1   
    36   14   35 1   
    37   15   16 1   
    38   15   36 1   
    39   15   37 1   
    40   16   38 1   
    41   16   39 1   
    42   16   46 1   
    43   19   20 1   
    44   19   40 1   
    45   19   41 1   
    46   20   21 1   
    47   27   28 1   
    48   27   44 1   
    49   29   45 1   
    50   42   46 1   
    51   43   47 1   
@<TRIPOS>SUBSTRUCTURE
     1 AK4         1 TEMP              0 ****  ****    0 ROOT
