@<TRIPOS>MOLECULE
AK4
   48    38     1     0     0
SMALL
bcc


@<TRIPOS>ATOM
      1 C30        -0.7410    8.2270    0.5100 c1        1 AK4      0.328000
      2 C28        -4.1030    7.0930    1.5120 c1        1 AK4     -0.194000
      3 C24         3.8000   -6.6410   -0.8990 c1        1 AK4     -0.139000
      4 C23         4.6180   -7.5470   -1.5940 c1        1 AK4     -0.036000
      5 C22         4.1010   -8.7710   -2.0200 c2        1 AK4     -0.157000
      6 C17        -4.9390    3.5360    0.7040 c1        1 AK4     -0.036000
      7 C20         1.9350   -8.2000   -1.0580 c1        1 AK4     -0.188000
      8 C15        -4.1450    5.7160    1.1890 c1        1 AK4     -0.054000
      9 C13        -2.6250    3.9490    0.7120 c1        1 AK4      0.189000
     10 C14        -2.8720    5.2840    1.0370 c1        1 AK4     -0.152000
     11 C10         1.5470   -4.7170   -0.4560 c1        1 AK4      0.375000
     12 C8          0.7120   -2.3200   -0.1990 c1        1 AK4     -0.256000
     13 C4          0.4930    0.1330   -0.2170 c1        1 AK4     -0.364000
     14 C6          1.2030   -0.2580   -1.3800 c1        1 AK4     -0.139000
     15 C3          0.3120    1.6030    0.2950 c2        1 AK4     -0.133000
     16 C2         -1.1860    1.9870    0.2510 c3        1 AK4     -0.027000
     17 O32        -0.0760    9.2510    0.8680 o         1 AK4     -0.547000
     18 O31        -1.4500    8.2630   -0.5660 o         1 AK4     -0.547000
     19 C29        -0.7480    7.0110    1.3630 c2        1 AK4     -0.108000
     20 N26        -2.0180    6.3700    1.2600 n2        1 AK4     -0.062000
     21 N27        -2.7980    7.4750    1.5510 n2        1 AK4     -0.031000
     22 N18        -3.6490    3.0980    0.5500 n1        1 AK4     -0.263000
     23 N16        -5.1840    4.8460    1.0230 n1        1 AK4     -0.169000
     24 N1         -1.3220    3.3740    0.5450 n3        1 AK4     -0.287000
     25 S5          0.1540   -1.1390    0.5740 ss        1 AK4      0.589000
     26 N7          1.3430   -1.8180   -1.3700 n2        1 AK4     -0.122000
     27 N9          0.7250   -3.7270    0.2530 n1        1 AK4     -0.243000
     28 O12         2.2420   -4.3660   -1.4520 o         1 AK4     -0.343000
     29 N11         1.6130   -6.0370    0.0120 n3        1 AK4     -0.323000
     30 C19         2.4540   -6.9710   -0.6310 c1        1 AK4      0.093000
     31 CL25        6.3470   -7.2180   -1.7650 cl        1 AK4     -0.017000
     32 C21         2.7520   -9.1040   -1.7520 c1        1 AK4     -0.100000
     33 H28        -4.8810    7.6630    1.7280 DU        1 AK4      0.186000
     34 H24         4.2010   -5.8440   -0.4830 ha        1 AK4      0.190000
     35 H22         4.6960   -9.4250   -2.5230 ha        1 AK4      0.144000
     36 H17        -5.7010    2.9150    0.5220 ha        1 AK4      0.166000
     37 H20         0.9600   -8.4390   -0.8640 ha        1 AK4      0.130000
     38 H6          1.5380    0.3270   -2.0540 DU        1 AK4      0.186000
     39 H3          0.6340    1.6670    1.2060 ha        1 AK4      0.135500
     40 H3A         0.8360    2.2300   -0.2910 ha        1 AK4      0.135500
     41 H2         -1.5330    1.8100   -0.6130 h1        1 AK4      0.080000
     42 H2A        -1.6670    1.4730    0.9000 h1        1 AK4      0.080000
     43 H29        -0.0610    6.4090    1.0670 h4        1 AK4      0.099000
     44 H29A       -0.5780    7.2700    2.3170 h4        1 AK4      0.099000
     45 HN1        -0.6040    3.8890    0.5850 hn        1 AK4      0.270000
     46 HN9         0.2040   -3.9930    1.0240 hn        1 AK4      0.207000
     47 HN11        1.0660   -6.3030    0.6280 hn        1 AK4      0.224000
     48 H21         2.3950  -10.0310   -2.0010 ha        1 AK4      0.133000
@<TRIPOS>BOND
     1    1   17 1   
     2    1   18 1   
     3    2    8 1   
     4    2   21 1   
     5    3    4 1   
     6    3   34 1   
     7    4    5 1   
     8    5   32 1   
     9    5   35 1   
    10    6   22 1   
    11    6   36 1   
    12    7   30 1   
    13    7   37 1   
    14    8   23 1   
    15    9   10 1   
    16    9   24 1   
    17   11   28 1   
    18   11   29 1   
    19   12   25 1   
    20   12   26 1   
    21   13   14 1   
    22   13   25 1   
    23   14   26 1   
    24   15   16 1   
    25   15   39 1   
    26   15   40 1   
    27   16   24 1   
    28   16   41 1   
    29   16   42 1   
    30   19   20 1   
    31   19   43 1   
    32   19   44 1   
    33   20   21 1   
    34   24   45 1   
    35   27   46 1   
    36   29   30 1   
    37   29   47 1   
    38   32   48 1   
@<TRIPOS>SUBSTRUCTURE
     1 AK4         1 TEMP              0 ****  ****    0 ROOT
