@<TRIPOS>MOLECULE
AK5
   51    53     1     0     0
SMALL
bcc


@<TRIPOS>ATOM
      1 C28         0.3530    0.6620    0.3860 ca        1 AK5     -0.170500
      2 C27         1.7080    0.7160    0.7050 ca        1 AK5     -0.104500
      3 C26         2.1670    0.3080    1.9550 ca        1 AK5     -0.159000
      4 C24        -0.1000   -0.2280    2.6030 ca        1 AK5     -0.170500
      5 C23        -0.5770    0.1870    1.3340 ca        1 AK5      0.070600
      6 C16        -4.8670    0.8010    0.8810 ca        1 AK5     -0.097000
      7 C17        -6.2530    0.6530    0.8760 ca        1 AK5     -0.187000
      8 O19        -8.2340   -0.3730   -0.1290 os        1 AK5     -0.344900
      9 C20        -2.6130    0.3130   -0.1210 c         1 AK5      0.684700
     10 C15        -4.0980    0.1400   -0.0740 ca        1 AK5     -0.154600
     11 C13        -6.0910   -0.8530   -1.0620 ca        1 AK5      0.041600
     12 C14        -4.6960   -0.6720   -1.0420 ca        1 AK5     -0.076000
     13 C9         -5.1810   -8.3730   -6.0560 ca        1 AK5      0.700900
     14 C7         -7.0400   -8.7560   -7.3890 ca        1 AK5      0.741200
     15 C5         -6.8720   -6.8200   -5.9160 ca        1 AK5      0.573600
     16 C6         -7.6220   -7.5500   -6.8670 ca        1 AK5     -0.365500
     17 C3         -6.1690   -2.7250   -2.6980 c         1 AK5      0.666100
     18 C2         -6.4400   -4.7080   -4.1800 c3        1 AK5     -0.039300
     19 C1         -7.1110   -3.4770   -3.6270 c3        1 AK5     -0.146400
     20 BR30       -9.2940   -6.9320   -7.3890 br        1 AK5     -0.054100
     21 N8         -5.7850   -9.1620   -6.9670 nb        1 AK5     -0.775000
     22 N10        -5.6460   -7.2260   -5.5000 nb        1 AK5     -0.756000
     23 S4         -7.5960   -5.4050   -5.3250 ss        1 AK5     -0.213400
     24 O12        -4.9730   -3.0400   -2.5760 o         1 AK5     -0.578100
     25 N11        -6.7320   -1.6450   -2.0280 n         1 AK5     -0.465100
     26 C18        -6.8660   -0.1660   -0.0740 ca        1 AK5      0.097100
     27 C29        -9.0330    0.4410    0.7230 c3        1 AK5      0.117700
     28 O21        -2.0290    0.6100   -1.1770 o         1 AK5     -0.575100
     29 N22        -1.9590    0.1220    1.0900 n         1 AK5     -0.469100
     30 C25         1.2560   -0.1630    2.8990 ca        1 AK5     -0.104500
     31 H28         0.0210    0.9890   -0.6140 ha        1 AK5      0.149500
     32 H27         2.4200    1.0870   -0.0480 ha        1 AK5      0.132000
     33 H26         3.2390    0.3550    2.1950 ha        1 AK5      0.132000
     34 H24        -0.7970   -0.6060    3.3650 ha        1 AK5      0.149500
     35 H16        -4.3960    1.4540    1.6310 ha        1 AK5      0.142000
     36 H17        -6.8530    1.1840    1.6280 ha        1 AK5      0.143000
     37 H14        -4.0570   -1.1690   -1.7940 ha        1 AK5      0.190000
     38 H9         -4.1750   -8.7060   -5.7190 h5        1 AK5      0.057100
     39 H2         -5.4760   -4.4430   -4.6810 h1        1 AK5      0.100700
     40 H2A        -6.1890   -5.4260   -3.3610 h1        1 AK5      0.100700
     41 H1         -7.4070   -2.7880   -4.4650 hc        1 AK5      0.077700
     42 H1A        -8.0420   -3.7660   -3.0700 hc        1 AK5      0.077700
     43 HN31       -8.5700   -9.2070   -8.6720 hn        1 AK5      0.447800
     44 HN3A       -7.2840  -10.3310   -8.6890 hn        1 AK5      0.447800
     45 HN11       -7.7210   -1.5290   -2.0840 hn        1 AK5      0.329500
     46 H29        -8.8380    0.1930    1.7950 h1        1 AK5      0.048367
     47 H29A       -8.8460    1.5250    0.5280 h1        1 AK5      0.048367
     48 H29B      -10.0790    0.1610    0.4390 h1        1 AK5      0.048367
     49 HN22       -2.5150   -0.1920    1.8550 hn        1 AK5      0.318500
     50 H25         1.6090   -0.4890    3.8890 ha        1 AK5      0.132000
     51 N31        -7.7190   -9.5360   -8.2890 nh        1 AK5     -0.962500
@<TRIPOS>BOND
     1    1    2 ar  
     2    1    5 ar  
     3    1   31 1   
     4    2    3 ar  
     5    2   32 1   
     6    3   30 ar  
     7    3   33 1   
     8    4    5 ar  
     9    4   30 ar  
    10    4   34 1   
    11    5   29 1   
    12    6    7 ar  
    13    6   10 ar  
    14    6   35 1   
    15    7   26 ar  
    16    7   36 1   
    17    8   26 1   
    18    8   27 1   
    19    9   10 1   
    20    9   28 2   
    21    9   29 1   
    22   10   12 ar  
    23   11   12 ar  
    24   11   25 1   
    25   11   26 ar  
    26   12   37 1   
    27   13   21 ar  
    28   13   22 ar  
    29   13   38 1   
    30   14   16 ar  
    31   14   21 ar  
    32   14   51 1   
    33   15   16 ar  
    34   15   22 ar  
    35   15   23 1   
    36   16   20 1   
    37   17   19 1   
    38   17   24 2   
    39   17   25 1   
    40   18   19 1   
    41   18   23 1   
    42   18   39 1   
    43   18   40 1   
    44   19   41 1   
    45   19   42 1   
    46   25   45 1   
    47   27   46 1   
    48   27   47 1   
    49   27   48 1   
    50   29   49 1   
    51   30   50 1   
    52   43   51 1   
    53   44   51 1   
@<TRIPOS>SUBSTRUCTURE
     1 AK5         1 TEMP              0 ****  ****    0 ROOT
