@<TRIPOS>MOLECULE
AK5
   51    43     1     0     0
SMALL
bcc


@<TRIPOS>ATOM
      1 C28         7.1450   -0.5260    2.0190 c1        1 AK5     -0.186000
      2 C27         8.5310   -0.3880    2.1440 c1        1 AK5     -0.130750
      3 C26         9.0830    0.8610    2.4570 c1        1 AK5     -0.130750
      4 C24         6.8540    1.8140    2.5150 c1        1 AK5     -0.130750
      5 C23         6.3110    0.5800    2.2060 c1        1 AK5      0.078000
      6 C16         1.9800    0.7120    2.6190 c1        1 AK5     -0.096000
      7 C17         0.6090    0.7340    2.7670 c1        1 AK5     -0.188000
      8 O19        -1.6250    1.0390    1.5200 os        1 AK5     -0.226000
      9 C20         4.0560    0.8170    1.2080 c1        1 AK5      0.359000
     10 C15         2.5380    0.8150    1.3670 c1        1 AK5     -0.135000
     11 C13         0.3560    0.9630    0.4040 c1        1 AK5      0.047000
     12 C14         1.7340    0.9400    0.2620 c2        1 AK5     -0.076000
     13 C9         -6.4540   -3.8440   -3.5330 c1        1 AK5      0.038000
     14 C7         -8.0980   -2.1710   -3.3730 c1        1 AK5      0.223000
     15 C5         -5.8020   -1.5920   -3.3490 c1        1 AK5     -0.088000
     16 C6         -7.1320   -1.2260   -3.3030 c2        1 AK5     -0.375000
     17 C3         -1.1530   -0.0030   -1.3470 c1        1 AK5      0.310000
     18 C2         -2.9990   -0.9670   -2.7540 c3        1 AK5     -0.313000
     19 C1         -1.9700    0.1670   -2.6500 c2        1 AK5     -0.180000
     20 BR30       -7.2860    0.6580   -3.4980 br        1 AK5      0.092000
     21 N31        -9.4440   -1.8030   -3.2620 n2        1 AK5     -0.360000
     22 N8         -7.7600   -3.4830   -3.4880 n1        1 AK5     -0.250000
     23 N10        -5.4690   -2.8810   -3.4620 n2        1 AK5     -0.240000
     24 S4         -4.5280   -0.3250   -3.4220 s         1 AK5      0.321000
     25 O12        -1.0070   -1.1180   -0.8570 o         1 AK5     -0.342000
     26 N11        -0.4820    1.1390   -0.7570 n2        1 AK5     -0.314000
     27 C18        -0.2060    0.8600    1.6500 c2        1 AK5      0.054000
     28 C29        -2.2710    1.4710    2.7350 c3        1 AK5     -0.072000
     29 O21         4.5450    0.9070    0.1120 o         1 AK5     -0.336000
     30 N22         4.9020    0.6430    2.3630 n3        1 AK5     -0.324000
     31 C25         8.2510    1.9600    2.6420 c1        1 AK5     -0.130750
     32 H28         6.7580   -1.3960    1.8020 ha        1 AK5      0.127000
     33 H27         9.1270   -1.1800    2.0090 ha        1 AK5      0.142000
     34 H26        10.0750    0.9620    2.5480 ha        1 AK5      0.142000
     35 H24         6.2740    2.5760    2.6430 ha        1 AK5      0.142000
     36 H16         2.5520    0.6240    3.3990 ha        1 AK5      0.142000
     37 H17         0.1950    0.6540    3.6990 ha        1 AK5      0.143000
     38 H14         2.1360    1.0120   -0.6300 ha        1 AK5      0.190000
     39 H9         -6.2080   -4.7990   -3.6170 ha        1 AK5      0.191000
     40 H2         -3.1560   -1.3300   -1.8870 h1        1 AK5      0.126000
     41 H2A        -2.6490   -1.6820   -3.3540 h1        1 AK5      0.126000
     42 H1         -1.3570    0.1350   -3.4340 ha        1 AK5      0.130000
     43 H1A        -2.4320    1.0250   -2.6340 ha        1 AK5      0.130000
     44 HN31       -9.6750   -0.9170   -3.2410 hn        1 AK5      0.245000
     45 HN3A      -10.1110   -2.4650   -3.2050 hn        1 AK5      0.245000
     46 HN11       -0.6250    1.9960   -1.1040 hn        1 AK5      0.245000
     47 H29        -3.2600    1.5390    2.5840 h1        1 AK5      0.087667
     48 H29A       -1.9170    2.3530    3.0000 h1        1 AK5      0.087667
     49 H29B       -2.0950    0.8260    3.4400 h1        1 AK5      0.087667
     50 HN22        4.5250    0.4790    3.1850 hn        1 AK5      0.232000
     51 H25         8.6340    2.8350    2.8610 ha        1 AK5      0.142000
@<TRIPOS>BOND
     1    1    5 1   
     2    1   32 1   
     3    2    3 1   
     4    2   33 1   
     5    3   34 1   
     6    4   31 1   
     7    4   35 1   
     8    5   30 1   
     9    6   10 1   
    10    6   36 1   
    11    7   27 1   
    12    7   37 1   
    13    8   27 1   
    14    8   28 1   
    15    9   29 1   
    16    9   30 1   
    17   10   12 1   
    18   11   12 1   
    19   11   27 1   
    20   12   38 1   
    21   13   23 1   
    22   13   39 1   
    23   14   16 1   
    24   14   22 1   
    25   15   16 1   
    26   15   23 1   
    27   16   20 1   
    28   17   25 1   
    29   17   26 1   
    30   18   19 1   
    31   18   24 1   
    32   18   40 1   
    33   18   41 1   
    34   19   42 1   
    35   19   43 1   
    36   21   44 1   
    37   21   45 1   
    38   26   46 1   
    39   28   47 1   
    40   28   48 1   
    41   28   49 1   
    42   30   50 1   
    43   31   51 1   
@<TRIPOS>SUBSTRUCTURE
     1 AK5         1 TEMP              0 ****  ****    0 ROOT
