@<TRIPOS>MOLECULE
AK5
   51    53     1     0     0
SMALL
bcc


@<TRIPOS>ATOM
      1 C28        -7.2890   -2.6140    1.2070 ca        1 AK5     -0.170500
      2 C27        -8.1420   -3.7150    1.2260 ca        1 AK5     -0.104500
      3 C26        -8.9160   -4.0410    0.1150 ca        1 AK5     -0.159000
      4 C24        -7.9880   -2.1520   -1.0750 ca        1 AK5     -0.170500
      5 C23        -7.1970   -1.8110    0.0510 ca        1 AK5      0.070600
      6 C16        -5.3370    2.1290    0.1060 ca        1 AK5     -0.097000
      7 C17        -4.6170    3.2790   -0.2090 ca        1 AK5     -0.187000
      8 O19        -2.4420    4.3690   -0.4730 os        1 AK5     -0.344900
      9 C20        -5.4050   -0.2660    0.8720 c         1 AK5      0.684700
     10 C15        -4.6590    0.9720    0.4860 ca        1 AK5     -0.154600
     11 C13        -2.5100    2.0900    0.2300 ca        1 AK5      0.041600
     12 C14        -3.2640    0.9480    0.5580 ca        1 AK5     -0.076000
     13 C9          4.9080   -2.9260   -1.1970 ca        1 AK5      0.700900
     14 C7          6.8500   -1.7700   -0.6780 ca        1 AK5      0.741200
     15 C5          4.6370   -0.7840   -0.4020 ca        1 AK5      0.573600
     16 C6          6.0400   -0.6490   -0.2870 ca        1 AK5     -0.365500
     17 C3         -0.2690    1.0130    0.1660 c         1 AK5      0.666100
     18 C2          2.0260    0.1020   -0.1680 c3        1 AK5     -0.039300
     19 C1          1.2210    1.3240    0.1980 c3        1 AK5     -0.146400
     20 BR30        6.7610    0.9400    0.3500 br        1 AK5     -0.054100
     21 N8          6.2540   -2.9330   -1.1370 nb        1 AK5     -0.775000
     22 N10         4.0580   -1.9230   -0.8590 nb        1 AK5     -0.756000
     23 S4          3.7190    0.5610    0.0680 ss        1 AK5     -0.212400
     24 O12        -0.6980   -0.1480    0.0570 o         1 AK5     -0.579100
     25 N11        -1.1080    2.1130    0.3070 n         1 AK5     -0.464100
     26 C18        -3.2220    3.2700   -0.1580 ca        1 AK5      0.098100
     27 C29        -3.1320    5.5970   -0.6810 c3        1 AK5      0.117700
     28 O21        -5.1600   -0.8640    1.9340 o         1 AK5     -0.575100
     29 N22        -6.3750   -0.6760   -0.0340 n         1 AK5     -0.469100
     30 C25        -8.8330   -3.2540   -1.0320 ca        1 AK5     -0.104500
     31 H28        -6.6860   -2.3840    2.1010 ha        1 AK5      0.149500
     32 H27        -8.1980   -4.3320    2.1360 ha        1 AK5      0.132000
     33 H26        -9.5860   -4.9120    0.1420 ha        1 AK5      0.132000
     34 H24        -7.9400   -1.5500   -1.9950 ha        1 AK5      0.149500
     35 H16        -6.4370    2.1510    0.0680 ha        1 AK5      0.142000
     36 H17        -5.1600    4.1900   -0.5000 ha        1 AK5      0.143000
     37 H14        -2.7590    0.0180    0.8780 ha        1 AK5      0.190000
     38 H9          4.4350   -3.8610   -1.5690 h5        1 AK5      0.057100
     39 H2          1.7430   -0.7660    0.4780 h1        1 AK5      0.100700
     40 H2A         1.8260   -0.2040   -1.2240 h1        1 AK5      0.100700
     41 H1          1.4530    2.1610   -0.5130 hc        1 AK5      0.077700
     42 H1A         1.4850    1.6660    1.2360 hc        1 AK5      0.077700
     43 HN31        8.6510   -0.9200   -0.2050 hn        1 AK5      0.447300
     44 HN3A        8.7650   -2.5030   -0.8380 hn        1 AK5      0.447300
     45 HN11       -0.6950    3.0190    0.2680 hn        1 AK5      0.329500
     46 H29        -2.3040    6.3360   -0.8260 h1        1 AK5      0.048367
     47 H29A       -3.7680    5.5350   -1.5980 h1        1 AK5      0.048367
     48 H29B       -3.7490    5.8630    0.2110 h1        1 AK5      0.048367
     49 HN22       -6.4310   -0.1680   -0.8900 hn        1 AK5      0.318500
     50 H25        -9.4400   -3.5050   -1.9150 ha        1 AK5      0.132000
     51 N31         8.2190   -1.7040   -0.6280 nh        1 AK5     -0.961500
@<TRIPOS>BOND
     1    1    2 ar  
     2    1    5 ar  
     3    1   31 1   
     4    2    3 ar  
     5    2   32 1   
     6    3   30 ar  
     7    3   33 1   
     8    4    5 ar  
     9    4   30 ar  
    10    4   34 1   
    11    5   29 1   
    12    6    7 ar  
    13    6   10 ar  
    14    6   35 1   
    15    7   26 ar  
    16    7   36 1   
    17    8   26 1   
    18    8   27 1   
    19    9   10 1   
    20    9   28 2   
    21    9   29 1   
    22   10   12 ar  
    23   11   12 ar  
    24   11   25 1   
    25   11   26 ar  
    26   12   37 1   
    27   13   21 ar  
    28   13   22 ar  
    29   13   38 1   
    30   14   16 ar  
    31   14   21 ar  
    32   14   51 1   
    33   15   16 ar  
    34   15   22 ar  
    35   15   23 1   
    36   16   20 1   
    37   17   19 1   
    38   17   24 2   
    39   17   25 1   
    40   18   19 1   
    41   18   23 1   
    42   18   39 1   
    43   18   40 1   
    44   19   41 1   
    45   19   42 1   
    46   25   45 1   
    47   27   46 1   
    48   27   47 1   
    49   27   48 1   
    50   29   49 1   
    51   30   50 1   
    52   43   51 1   
    53   44   51 1   
@<TRIPOS>SUBSTRUCTURE
     1 AK5         1 TEMP              0 ****  ****    0 ROOT
