@<TRIPOS>MOLECULE
AK6
   57    60     1     0     0
SMALL
bcc


@<TRIPOS>ATOM
      1 C30        -6.8730    0.9200    1.0620 ca        1 AK6     -0.026000
      2 C28        -8.8590    0.6050   -0.3320 ca        1 AK6      0.425800
      3 C26        -6.8500    0.8740   -1.3710 ca        1 AK6      0.433200
      4 C23         2.9580   -5.4750    0.4790 c3        1 AK6      0.117700
      5 C22         7.1270    2.7880   -1.1330 ca        1 AK6     -0.170500
      6 C17         7.0450    1.9410   -0.0080 ca        1 AK6      0.070600
      7 C20         8.7730    4.1660   -0.0040 ca        1 AK6     -0.159000
      8 C12         3.0520   -3.1300    0.0460 ca        1 AK6      0.097100
      9 C11         4.4470   -3.1430    0.0950 ca        1 AK6     -0.187000
     10 C10         5.1690   -1.9850   -0.1840 ca        1 AK6     -0.098000
     11 C9          4.4920   -0.8150   -0.5250 ca        1 AK6     -0.154600
     12 C8          3.0970   -0.7870   -0.5940 ca        1 AK6     -0.078000
     13 C7          2.3410   -1.9370   -0.3010 ca        1 AK6      0.043600
     14 C3          0.0990   -0.8580   -0.2280 c         1 AK6      0.664100
     15 C2         -2.1980    0.0990   -0.1700 c3        1 AK6     -0.009300
     16 C1         -1.3910   -1.1710   -0.2510 c3        1 AK6     -0.141400
     17 O15         4.9850    1.0750   -1.9040 o         1 AK6     -0.576100
     18 N16         6.2180    0.8070    0.0430 n         1 AK6     -0.470100
     19 C21         7.9850    3.8850   -1.1180 ca        1 AK6     -0.104500
     20 C19         8.6990    3.3340    1.1120 ca        1 AK6     -0.104500
     21 C18         7.8490    2.2350    1.1220 ca        1 AK6     -0.170500
     22 N5          0.9390   -1.9560   -0.3740 n         1 AK6     -0.464100
     23 O6          0.5260    0.3030   -0.1040 o         1 AK6     -0.587100
     24 S4         -3.9040   -0.3680   -0.1460 ss        1 AK6     -0.313200
     25 C25        -6.1560    0.9990   -0.1300 ca        1 AK6     -0.227600
     26 C29        -8.2510    0.7190    0.9900 ca        1 AK6     -0.201100
     27 C33        -9.3210    0.5840    1.9450 cc        1 AK6     -0.176200
     28 C32       -10.4960    0.4000    1.2220 cd        1 AK6     -0.104100
     29 N31       -10.2360    0.4120   -0.1510 na        1 AK6     -0.287100
     30 N27        -8.1630    0.6820   -1.5080 nb        1 AK6     -0.670000
     31 H30        -6.3700    1.0110    2.0360 ha        1 AK6      0.144000
     32 H26        -6.2840    0.9330   -2.3190 h4        1 AK6      0.026100
     33 H24        -4.3780    1.7940    0.7750 h1        1 AK6      0.068200
     34 H24A       -4.3830    1.8080   -1.0320 h1        1 AK6      0.068200
     35 H23         3.5680   -5.7050   -0.4270 h1        1 AK6      0.048033
     36 H23A        3.6000   -5.4560    1.3930 h1        1 AK6      0.048033
     37 H23B        2.1270   -6.2170    0.5980 h1        1 AK6      0.048033
     38 H20         9.4450    5.0340   -0.0040 ha        1 AK6      0.132000
     39 H11         4.9890   -4.0640    0.3550 ha        1 AK6      0.143000
     40 H10         6.2680   -2.0110   -0.1490 ha        1 AK6      0.142000
     41 H8          2.5940    0.1540   -0.8840 ha        1 AK6      0.190000
     42 H2         -1.9300    0.6740    0.7510 h1        1 AK6      0.077700
     43 H2A        -1.9770    0.7580   -1.0450 h1        1 AK6      0.077700
     44 H1         -1.6420   -1.7240   -1.1960 hc        1 AK6      0.080700
     45 H1A        -1.6370   -1.8380    0.6190 hc        1 AK6      0.080700
     46 HN16        6.2840    0.2640    0.8760 hn        1 AK6      0.318500
     47 H21         8.0350    4.5370   -2.0040 ha        1 AK6      0.132000
     48 H19         9.3160    3.5480    1.9980 ha        1 AK6      0.132000
     49 H18         7.8090    1.5970    2.0180 ha        1 AK6      0.149500
     50 HN5         0.5240   -2.8620   -0.3570 hn        1 AK6      0.330500
     51 H33        -9.2200    0.6200    3.0260 ha        1 AK6      0.160000
     52 H32       -11.5180    0.2600    1.5840 h4        1 AK6      0.169000
     53 HN31      -10.8960    0.2960   -0.8740 hn        1 AK6      0.309700
     54 C24        -4.6990    1.2240   -0.1320 c3        1 AK6      0.060000
     55 O13         2.2710   -4.2370    0.3290 os        1 AK6     -0.343900
     56 C14         5.2380    0.4340   -0.8700 c         1 AK6      0.685700
     57 H22         6.5140    2.5950   -2.0290 ha        1 AK6      0.149500
@<TRIPOS>BOND
     1    1   25 ar  
     2    1   26 ar  
     3    1   31 1   
     4    2   26 ar  
     5    2   29 1   
     6    2   30 ar  
     7    3   25 ar  
     8    3   30 ar  
     9    3   32 1   
    10    4   35 1   
    11    4   36 1   
    12    4   37 1   
    13    4   55 1   
    14    5    6 ar  
    15    5   19 ar  
    16    5   57 1   
    17    6   18 1   
    18    6   21 ar  
    19    7   19 ar  
    20    7   20 ar  
    21    7   38 1   
    22    8    9 ar  
    23    8   13 ar  
    24    8   55 1   
    25    9   10 ar  
    26    9   39 1   
    27   10   11 ar  
    28   10   40 1   
    29   11   12 ar  
    30   11   56 1   
    31   12   13 ar  
    32   12   41 1   
    33   13   22 1   
    34   14   16 1   
    35   14   22 1   
    36   14   23 2   
    37   15   16 1   
    38   15   24 1   
    39   15   42 1   
    40   15   43 1   
    41   16   44 1   
    42   16   45 1   
    43   17   56 2   
    44   18   46 1   
    45   18   56 1   
    46   19   47 1   
    47   20   21 ar  
    48   20   48 1   
    49   21   49 1   
    50   22   50 1   
    51   24   54 1   
    52   25   54 1   
    53   26   27 1   
    54   27   28 2   
    55   27   51 1   
    56   28   29 1   
    57   28   52 1   
    58   29   53 1   
    59   33   54 1   
    60   34   54 1   
@<TRIPOS>SUBSTRUCTURE
     1 AK6         1 TEMP              0 ****  ****    0 ROOT
