@<TRIPOS>MOLECULE
AK6
   57    58     1     0     0
SMALL
bcc


@<TRIPOS>ATOM
      1 C30         0.0600    0.2670    0.2420 c2        1 AK6     -0.042000
      2 C28         0.4980    0.2090    2.6300 c2        1 AK6      0.021000
      3 C26         2.2530   -0.1200    1.2140 c2        1 AK6     -0.040000
      4 C23         6.9560    6.5400   -6.6600 c1        1 AK6     -0.004000
      5 C22         5.6780   -0.6090  -12.6510 c2        1 AK6     -0.147000
      6 C17         6.7380    0.0410  -12.0940 c2        1 AK6     -0.020000
      7 C20         7.0340   -2.2300  -13.8620 c1        1 AK6      0.134000
      8 C12         5.8990    4.6700   -7.7030 ca        1 AK6     -0.106000
      9 C11         6.4500    4.8150   -8.9740 ca        1 AK6     -0.134000
     10 C10         6.3300    3.7850   -9.9020 ca        1 AK6     -0.120000
     11 C9          5.6390    2.6230   -9.5460 ca        1 AK6     -0.102000
     12 C8          5.0630    2.4770   -8.2850 ca        1 AK6     -0.099000
     13 C7          5.1830    3.5040   -7.3210 ca        1 AK6      0.102000
     14 C3          4.1760    2.2720   -5.4010 c2        1 AK6      0.312000
     15 C2          3.1460    1.1720   -3.4230 c3        1 AK6     -0.272000
     16 C1          3.6000    2.4830   -4.0080 c3        1 AK6     -0.170000
     17 O15         4.3380    1.0220  -10.7580 o         1 AK6     -0.328000
     18 N16         6.6200    1.0770  -11.1580 n         1 AK6     -0.315000
     19 C21         5.8570   -1.6970  -13.5880 c2        1 AK6     -0.397000
     20 C19         8.6670   -1.6270  -12.1010 c1        1 AK6     -0.037000
     21 C18         8.1490   -0.3310  -12.4940 c3        1 AK6     -0.234000
     22 N5          4.6130    3.4250   -6.0460 n         1 AK6     -0.324000
     23 O6          4.2470    1.1460   -5.9230 o         1 AK6     -0.342000
     24 S4          2.4980    1.5170   -1.8140 ss        1 AK6      0.061000
     25 C25         1.4380    0.0180    0.0720 c2        1 AK6     -0.132000
     26 C29        -0.4260    0.3660    1.5270 c2        1 AK6     -0.160000
     27 C33        -1.7840    0.6160    2.1050 c3        1 AK6     -0.206000
     28 C32        -1.5480    0.5860    3.6190 c1        1 AK6     -0.014000
     29 N31        -0.2510    0.3540    3.8510 nh        1 AK6     -0.187000
     30 N27         1.8190   -0.0320    2.4910 n2        1 AK6     -0.134000
     31 H30        -0.5980    0.3800   -0.6330 ha        1 AK6      0.150000
     32 H26         3.3370   -0.3140    1.1090 h4        1 AK6      0.169000
     33 H24         2.9110   -0.7820   -1.2720 h1        1 AK6      0.111000
     34 H24A        1.2740   -0.5380   -1.9950 h1        1 AK6      0.111000
     35 H23         8.1340    5.6990   -4.7750 ha        1 AK6      0.005000
     36 H23A        7.8290    6.4710   -7.3440 ha        1 AK6      0.036000
     37 H23B        8.4570    5.3060   -5.2240 ha        1 AK6      0.005000
     38 H20         7.9860   -2.3500  -11.6300 ha        1 AK6      0.064000
     39 H11         6.9740    5.7450   -9.2450 ha        1 AK6      0.146000
     40 H10         6.7560    3.9020  -10.9090 ha        1 AK6      0.146000
     41 H8          4.5040    1.5520   -8.0530 ha        1 AK6      0.195000
     42 H2          4.3850    2.9460   -3.3500 hc        1 AK6      0.124000
     43 H2A         4.0000    0.4530   -3.3630 h1        1 AK6      0.118500
     44 H1          2.7350    3.1970   -4.0710 hc        1 AK6      0.124000
     45 H1A         2.3670    0.7030   -4.0740 h1        1 AK6      0.118500
     46 HN16        7.4730    1.5070  -10.8730 hn        1 AK6      0.233000
     47 H21         4.9320   -2.0870  -14.0560 ha        1 AK6      0.193000
     48 H19         8.2330   -0.2830  -13.6300 hc        1 AK6      0.161500
     49 H18         8.9060    0.4270  -12.1290 hc        1 AK6      0.161500
     50 HN5         4.5870    4.2820   -5.5340 hn        1 AK6      0.250000
     51 H33        -2.5220   -0.1750    1.8240 hc        1 AK6      0.140500
     52 H32        -2.1970    1.6130    1.8090 hc        1 AK6      0.140500
     53 HN31        0.1820    0.2850    4.7390 hn        1 AK6      0.267000
     54 C24         2.0180   -0.1090   -1.2780 c3        1 AK6     -0.216000
     55 O13         5.9740    5.7290   -6.7530 os        1 AK6     -0.048000
     56 C14         5.4570    1.5110  -10.5320 c2        1 AK6      0.349000
     57 H22         4.6330   -0.3580  -12.4020 ha        1 AK6      0.179000
@<TRIPOS>BOND
     1    1   25 1   
     2    1   26 1   
     3    1   31 1   
     4    2   26 1   
     5    2   29 1   
     6    2   30 1   
     7    3   25 1   
     8    3   30 1   
     9    3   32 1   
    10    4   36 1   
    11    4   55 1   
    12    5    6 1   
    13    5   19 1   
    14    5   57 1   
    15    6   18 1   
    16    6   21 1   
    17    7   19 1   
    18    8    9 1   
    19    8   13 1   
    20    8   55 1   
    21    9   10 1   
    22    9   39 1   
    23   10   11 1   
    24   10   40 1   
    25   11   12 1   
    26   11   56 1   
    27   12   13 1   
    28   12   41 1   
    29   13   22 1   
    30   14   16 1   
    31   14   22 1   
    32   14   23 1   
    33   15   16 1   
    34   15   24 1   
    35   15   43 1   
    36   15   45 1   
    37   16   42 1   
    38   16   44 1   
    39   17   56 1   
    40   18   46 1   
    41   18   56 1   
    42   19   47 1   
    43   20   21 1   
    44   20   38 1   
    45   21   48 1   
    46   21   49 1   
    47   22   50 1   
    48   24   54 1   
    49   25   54 1   
    50   26   27 1   
    51   27   28 1   
    52   27   51 1   
    53   27   52 1   
    54   28   29 1   
    55   29   53 1   
    56   33   54 1   
    57   34   54 1   
    58   35   37 1   
@<TRIPOS>SUBSTRUCTURE
     1 AK6         1 TEMP              0 ****  ****    0 ROOT
