@<TRIPOS>MOLECULE
AK6
   57    44     1     0     0
SMALL
bcc


@<TRIPOS>ATOM
      1 C30        -7.3860    1.1420    2.4630 c1        1 AK6     -0.026000
      2 C28        -8.8710   -0.1460    3.7960 c1        1 AK6      0.035000
      3 C26        -7.0790   -1.2030    2.6670 c1        1 AK6     -0.031000
      4 C24        -5.5740   -0.0870    1.1390 c3        1 AK6     -0.212000
      5 C23         2.0390    4.0170    0.4290 c3        1 AK6     -0.072000
      6 C22         8.0600   -2.0820   -2.7830 c1        1 AK6     -0.155000
      7 C17         6.9100   -1.7900   -3.5000 c1        1 AK6      0.078000
      8 C20         8.7910   -3.5270   -4.5630 c1        1 AK6     -0.139500
      9 C12         2.3170    1.8250   -0.4930 c1        1 AK6      0.049000
     10 C14         5.1440   -1.1290   -1.9440 c1        1 AK6      0.358000
     11 C11         3.2430    2.1750   -1.4540 c1        1 AK6     -0.139500
     12 C10         4.1870    1.2340   -1.8910 c1        1 AK6     -0.139500
     13 C9          4.1880   -0.0330   -1.3610 c1        1 AK6     -0.133000
     14 C8          3.2460   -0.3820   -0.3860 c1        1 AK6     -0.079000
     15 C7          2.3210    0.5400    0.0420 c1        1 AK6      0.051000
     16 C3         -0.1350    0.1460    0.5400 c1        1 AK6      0.308000
     17 C2         -2.6420   -0.3110    0.8130 c3        1 AK6     -0.281000
     18 C1         -1.2600    0.0170    1.5680 c3        1 AK6     -0.173000
     19 O15         5.1790   -2.2530   -1.4310 o         1 AK6     -0.335000
     20 N16         6.0090   -0.8170   -3.0180 n2        1 AK6     -0.324000
     21 C21         8.9990   -2.9450   -3.3070 c1        1 AK6     -0.139500
     22 C19         7.6400   -3.2360   -5.2810 c1        1 AK6     -0.139500
     23 C18         6.7010   -2.3730   -4.7580 c1        1 AK6     -0.139500
     24 O13         1.4120    2.8160    0.0310 os        1 AK6     -0.228000
     25 N5          1.2760    0.2730    0.9970 n2        1 AK6     -0.317000
     26 O6         -0.4040    0.2690   -0.6450 o         1 AK6     -0.343000
     27 S4         -3.9890   -0.3040    2.0050 ss        1 AK6      0.070000
     28 C25        -6.6870    0.0210    2.1530 c1        1 AK6     -0.157000
     29 C29        -8.4820    1.0630    3.2860 c1        1 AK6     -0.124000
     30 C33        -9.3450    2.0090    3.7410 c1        1 AK6     -0.188000
     31 C32       -10.2730    1.3900    4.5360 c1        1 AK6     -0.076000
     32 N31        -9.9790    0.0610    4.5680 n1        1 AK6     -0.200000
     33 N27        -8.1650   -1.2820    3.4830 n1        1 AK6     -0.142000
     34 H30        -7.1160    1.9850    2.1090 ha        1 AK6      0.143000
     35 H26        -6.5850   -1.9960    2.4460 ha        1 AK6      0.164000
     36 H24        -5.5420    0.7360    0.5960 h1        1 AK6      0.105500
     37 H24A       -5.7410   -0.8820    0.5370 h1        1 AK6      0.105500
     38 H23         1.4330    4.5240    1.0160 h1        1 AK6      0.087333
     39 H23A        2.2430    4.5390   -0.3430 h1        1 AK6      0.087333
     40 H23B        2.9000    3.8040    0.9320 h1        1 AK6      0.087333
     41 H22         8.2090   -1.6680   -1.8880 ha        1 AK6      0.173000
     42 H20         9.4500   -4.1330   -4.9310 ha        1 AK6      0.134667
     43 H11         3.2390    3.1000   -1.8390 ha        1 AK6      0.134667
     44 H10         4.8190    1.4690   -2.5450 ha        1 AK6      0.134667
     45 H8          3.2460   -1.2410   -0.0260 ha        1 AK6      0.191000
     46 H2         -2.8070    0.3630    0.1330 h1        1 AK6      0.106000
     47 H2A        -2.5820   -1.2060    0.3850 h1        1 AK6      0.106000
     48 H1         -1.3490    0.8540    2.0610 hc        1 AK6      0.129000
     49 H1A        -1.0620   -0.6670    2.1560 hc        1 AK6      0.129000
     50 HN16        5.9670   -0.0120   -3.4100 hn        1 AK6      0.231000
     51 H21         9.8130   -3.1520   -2.7990 ha        1 AK6      0.134667
     52 H19         7.4930   -3.6460   -6.1650 ha        1 AK6      0.134667
     53 H18         5.8860   -2.1670   -5.2660 ha        1 AK6      0.134667
     54 HN5         1.4900    0.1070    1.8800 hn        1 AK6      0.244000
     55 H33        -9.3110    2.9240    3.5450 DU        1 AK6      0.197000
     56 H32       -11.0620    1.8270    4.9630 DU        1 AK6      0.197000
     57 HN31      -10.4250   -0.5580    5.0100 DU        1 AK6      0.197000
@<TRIPOS>BOND
     1    1   29 1   
     2    1   34 1   
     3    2   33 1   
     4    3   28 1   
     5    3   35 1   
     6    4   27 1   
     7    4   28 1   
     8    4   36 1   
     9    4   37 1   
    10    5   24 1   
    11    5   38 1   
    12    5   39 1   
    13    5   40 1   
    14    6    7 1   
    15    6   41 1   
    16    7   20 1   
    17    8   21 1   
    18    8   42 1   
    19    9   15 1   
    20    9   24 1   
    21   10   13 1   
    22   10   19 1   
    23   11   12 1   
    24   11   43 1   
    25   12   44 1   
    26   13   14 1   
    27   14   45 1   
    28   15   25 1   
    29   16   18 1   
    30   16   26 1   
    31   17   18 1   
    32   17   27 1   
    33   17   46 1   
    34   17   47 1   
    35   18   48 1   
    36   18   49 1   
    37   20   50 1   
    38   21   51 1   
    39   22   23 1   
    40   22   52 1   
    41   23   53 1   
    42   25   54 1   
    43   30   31 1   
    44   31   32 1   
@<TRIPOS>SUBSTRUCTURE
     1 AK6         1 TEMP              0 ****  ****    0 ROOT
