@<TRIPOS>MOLECULE
AK6
   59    58     1     0     0
SMALL
bcc


@<TRIPOS>ATOM
      1 C30        -1.1030   -0.1120    1.1560 c2        1 AK6     -0.014000
      2 C28        -0.2920    1.0980    3.1090 c2        1 AK6      0.099000
      3 C26         1.2480    0.0290    1.8040 c2        1 AK6      0.018000
      4 C23        10.3200    5.7320  -10.1130 c2        1 AK6      0.187000
      5 C22         6.2090   -0.5970  -12.9120 c2        1 AK6     -0.162000
      6 C17         6.4260    0.4340  -11.9700 c1        1 AK6     -0.002000
      7 C20         6.7650    0.6540  -15.0180 c2        1 AK6     -0.133000
      8 C12         5.7680    3.8060   -8.0130 c2        1 AK6     -0.050000
      9 C11         6.7810    3.7710   -9.0580 c3        1 AK6     -0.220000
     10 C10         7.7920    2.7290   -8.9630 c2        1 AK6      0.155000
     11 C9          7.7580    1.8150   -7.9200 c2        1 AK6     -0.239000
     12 C8          6.7620    1.8830   -6.9420 c2        1 AK6      0.076000
     13 C7          5.7540    2.8970   -6.9540 c2        1 AK6      0.012000
     14 C3          4.7930    2.1990   -4.7570 c3        1 AK6      0.094000
     15 C2          1.7630   -0.6490   -2.9100 c3        1 AK6     -0.604000
     16 C1          0.4170   -0.5450   -3.3650 c1        1 AK6      0.459000
     17 O15         8.7010   -0.1440   -6.9740 o         1 AK6     -0.246000
     18 N16         6.6030    1.2490  -11.1550 n1        1 AK6     -0.195000
     19 C21         6.3670   -0.4980  -14.2430 c2        1 AK6      0.000000
     20 C19         6.6470    1.9090  -14.6660 c1        1 AK6     -0.106000
     21 C18         6.5280    3.1720  -14.4000 c2        1 AK6     -0.176000
     22 N5          4.8250    3.0340   -5.9230 n3        1 AK6     -0.351000
     23 O6          3.9710    1.0400   -4.8770 oh        1 AK6     -0.380000
     24 S4          1.0120    0.0120   -1.4010 ss        1 AK6      0.372000
     25 C25         0.2560   -0.4390    0.9060 c2        1 AK6     -0.247000
     26 C29        -1.3890    0.6580    2.2540 c2        1 AK6     -0.161000
     27 C33        -2.6570    1.1920    2.8450 c3        1 AK6     -0.226000
     28 C32        -2.1890    1.9670    4.0800 c1        1 AK6      0.069000
     29 N31        -0.8470    1.8730    4.1700 nh        1 AK6     -0.196000
     30 N27         1.0090    0.7900    2.8860 n2        1 AK6     -0.131000
     31 H30        -1.8990   -0.4820    0.4910 ha        1 AK6      0.158000
     32 H26         2.3150   -0.2320    1.6540 h4        1 AK6      0.175000
     33 H24         1.5270   -1.9260   -0.0270 h1        1 AK6      0.152500
     34 H24A       -0.2130   -1.9460   -0.5740 h1        1 AK6      0.152500
     35 H23        10.1840    6.8320  -10.1730 h4        1 AK6      0.101000
     36 H23A       11.3230    5.3380  -10.3800 h4        1 AK6      0.101000
     37 H23B        5.0020    4.6000   -8.0950 ha        1 AK6      0.179000
     38 H20         7.1850    0.4210  -16.0180 ha        1 AK6      0.169000
     39 H11         7.3240    4.7860   -9.1120 hc        1 AK6      0.253000
     40 H10         6.2820    3.7080  -10.0870 hc        1 AK6      0.253000
     41 H8          6.7780    1.1130   -6.1440 ha        1 AK6      0.182000
     42 H2          5.8370    1.9040   -4.4540 h2        1 AK6      0.124000
     43 H2A         2.2560   -1.6560   -2.8870 h1        1 AK6      0.255000
     44 H1          4.2950    2.7890   -3.9290 h2        1 AK6      0.124000
     45 H1A         2.5270    0.0430   -3.3790 h1        1 AK6      0.255000
     46 HN16        8.5850    2.7080   -9.7370 ha        1 AK6      0.206000
     47 H21         6.1850   -1.4080  -14.8530 ha        1 AK6      0.156000
     48 H19         5.6250    3.7440  -14.6680 ha        1 AK6      0.144500
     49 H18         7.3270    3.7490  -13.9120 ha        1 AK6      0.144500
     50 HN5         4.3890    0.4160   -5.4830 ho        1 AK6      0.214000
     51 H33        -3.3610    0.3800    3.1610 hc        1 AK6      0.162500
     52 H32        -3.2040    1.8810    2.1530 hc        1 AK6      0.162500
     53 HN31       -0.2830    2.2710    4.8880 hn        1 AK6      0.289000
     54 C24         0.6240   -1.2980   -0.2200 c3        1 AK6     -0.203000
     55 C14         8.7740    0.7280   -7.8360 c2        1 AK6      0.226000
     56 H162        9.5790    0.7680   -8.5990 h4        1 AK6      0.142000
     57 H52         3.9700    3.4820   -6.1700 hn        1 AK6      0.241000
     58 O13         9.4010    4.9830   -9.7650 o         1 AK6     -0.385000
     59 H22         5.8940   -1.5570  -12.4600 ha        1 AK6      0.164000
@<TRIPOS>BOND
     1    1   25 1   
     2    1   26 1   
     3    1   31 1   
     4    2   26 1   
     5    2   29 1   
     6    2   30 1   
     7    3   25 1   
     8    3   30 1   
     9    3   32 1   
    10    4   35 1   
    11    4   36 1   
    12    4   58 1   
    13    5    6 1   
    14    5   19 1   
    15    5   59 1   
    16    6   18 1   
    17    7   19 1   
    18    7   20 1   
    19    7   38 1   
    20    8    9 1   
    21    8   13 1   
    22    8   37 1   
    23    9   10 1   
    24    9   39 1   
    25    9   40 1   
    26   10   11 1   
    27   10   46 1   
    28   11   12 1   
    29   11   55 1   
    30   12   13 1   
    31   12   41 1   
    32   13   22 1   
    33   14   22 1   
    34   14   23 1   
    35   14   42 1   
    36   14   44 1   
    37   15   16 1   
    38   15   24 1   
    39   15   43 1   
    40   15   45 1   
    41   17   55 1   
    42   19   47 1   
    43   20   21 1   
    44   21   48 1   
    45   21   49 1   
    46   22   57 1   
    47   23   50 1   
    48   24   54 1   
    49   25   54 1   
    50   26   27 1   
    51   27   28 1   
    52   27   51 1   
    53   27   52 1   
    54   28   29 1   
    55   29   53 1   
    56   33   54 1   
    57   34   54 1   
    58   55   56 1   
@<TRIPOS>SUBSTRUCTURE
     1 AK6         1 TEMP              0 ****  ****    0 ROOT
