@<TRIPOS>MOLECULE
AK7
   45    55     1     0     0
SMALL
bcc


@<TRIPOS>ATOM
      1 N29         0.0000    0.0000    0.0000 n8        1 AK7     -0.038000
      2 C24        12.7750    1.7160    8.3460 c3        1 AK7     -0.228000
      3 C23        13.8090    2.6100    8.5470 c3        1 AK7     -0.105000
      4 C22        15.1020    2.2620    8.2030 c2        1 AK7      0.044000
      5 C16        10.7690    0.0030    7.2400 c2        1 AK7      0.386000
      6 O18        10.5510    1.1980    7.1770 o         1 AK7     -0.509000
      7 C20        14.3340    0.1240    7.4460 c2        1 AK7     -0.088000
      8 C12         8.5280   -0.4170    6.5910 c2        1 AK7     -0.446000
      9 C14         6.9480    1.0880    6.1330 c2        1 AK7     -0.649000
     10 C10         6.1990    0.0060    5.9140 c3        1 AK7      0.242000
     11 C9          4.7520    0.0020    5.4950 DU        1 AK7      0.001000
     12 C8          4.6640    0.0010    3.9660 c3        1 AK7     -0.141000
     13 C4          3.5730    0.0000    0.0000 c2        1 AK7     -0.424000
     14 C6          2.9260   -0.0040    2.2120 c2        1 AK7     -0.118000
     15 C2          1.3120   -0.0020    0.4490 c3        1 AK7      0.336000
     16 C1          1.5920   -0.0070    1.8120 c2        1 AK7     -0.369000
     17 Br30        0.1970   -0.0120    3.0890 br        1 AK7      0.122000
     18 N5          3.8780    0.0000    1.2820 n2        1 AK7      0.530000
     19 N3          2.3230    0.0010   -0.4180 n2        1 AK7     -0.109000
     20 N13         8.1920    0.8310    6.4940 n2        1 AK7      0.611000
     21 S11         7.1970   -1.4170    6.1990 ss        1 AK7      0.166000
     22 N17        11.9910   -0.4420    7.5940 ns        1 AK7     -0.132000
     23 C19        13.0360    0.4680    7.7950 c3        1 AK7     -0.035000
     24 C21        15.3650    1.0200    7.6550 c3        1 AK7     -0.177000
     25 C25        16.7760    0.6450    7.2820 c3        1 AK7      0.426000
     26 F26        17.6350    1.7080    7.5800 f         1 AK7     -0.126000
     27 F27        17.1650   -0.4880    8.0060 f         1 AK7     -0.126000
     28 F28        16.8380    0.3660    5.9120 f         1 AK7     -0.126000
     29 HN29        0.6800   -0.0640    0.7310 DU        1 AK7     -0.321000
     30 HN2A        0.8110   -0.0760    0.5820 hn        1 AK7      0.211000
     31 H23        12.9080    2.3900    7.9880 DU        1 AK7      0.207000
     32 H22        14.1480    2.1760    7.6980 DU        1 AK7      0.022000
     33 H20        14.1300    1.0970    7.8760 DU        1 AK7      0.144000
     34 H14         7.9780    1.3040    6.3890 h4        1 AK7      0.138000
     35 H9          5.8200   -0.1030    5.6430 ha        1 AK7     -0.327000
     36 H9A         5.4470    0.8070    5.6970 DU        1 AK7      0.200000
     37 H8          4.4620   -0.4460    4.9320 DU        1 AK7      0.030500
     38 H8A         4.4590    0.4480    4.9320 DU        1 AK7      0.030500
     39 H4          4.0460   -0.2000    0.9530 h5        1 AK7      0.070000
     40 HN17       11.1340   -0.2680    7.1070 hn        1 AK7      0.089000
     41 N7          3.2570   -0.0030    3.5590 n7        1 AK7      0.050000
     42 N15         9.7880   -0.8760    6.9560 ns        1 AK7      0.126000
     43 H24        11.7630    1.9880    8.6170 hc        1 AK7      0.201000
     44 HN7         2.7840   -0.7780    3.9790 hn        1 AK7      0.080000
     45 HN15        9.7380   -1.8740    7.0190 hn        1 AK7      0.133000
@<TRIPOS>BOND
     1    1   15 1   
     2    1   29 1   
     3    1   30 1   
     4    2    3 1   
     5    2   23 1   
     6    2   31 1   
     7    2   43 1   
     8    3    4 1   
     9    3   31 1   
    10    3   32 1   
    11    4   24 1   
    12    4   32 1   
    13    5    6 1   
    14    5   22 1   
    15    5   42 1   
    16    7   23 1   
    17    7   24 1   
    18    7   33 1   
    19    8   20 1   
    20    8   21 1   
    21    8   42 1   
    22    9   10 1   
    23    9   20 1   
    24    9   34 1   
    25   10   11 1   
    26   10   21 1   
    27   10   36 1   
    28   11   12 1   
    29   11   35 1   
    30   11   36 1   
    31   11   37 1   
    32   11   38 1   
    33   12   37 1   
    34   12   38 1   
    35   12   41 1   
    36   13   18 1   
    37   13   19 1   
    38   13   39 1   
    39   14   16 1   
    40   14   18 1   
    41   14   41 1   
    42   15   16 1   
    43   15   19 1   
    44   15   29 1   
    45   16   17 1   
    46   22   23 1   
    47   22   40 1   
    48   23   33 1   
    49   24   25 1   
    50   24   33 1   
    51   25   26 1   
    52   25   27 1   
    53   25   28 1   
    54   41   44 1   
    55   42   45 1   
@<TRIPOS>SUBSTRUCTURE
     1 AK7         1 TEMP              0 ****  ****    0 ROOT
