@<TRIPOS>MOLECULE
AK7
   45    38     1     0     0
SMALL
bcc


@<TRIPOS>ATOM
      1 N29        -2.8890    5.6240   -7.8020 n3        1 AK7     -0.360000
      2 C24         0.0610   -3.7560    5.4410 c1        1 AK7     -0.111000
      3 C23         0.3510   -3.7390    6.8280 c1        1 AK7     -0.111000
      4 C22         1.6500   -3.4980    7.2640 c1        1 AK7     -0.103000
      5 C16         0.7660   -2.4470    2.3320 c1        1 AK7      0.378000
      6 O18         1.0020   -1.3780    2.8550 o         1 AK7     -0.352000
      7 C20         2.3670   -3.2930    4.9640 c1        1 AK7     -0.136000
      8 C12         0.0960   -1.2640    0.2590 c1        1 AK7     -0.219000
      9 C14         0.2550    1.0190   -0.5300 c1        1 AK7     -0.121000
     10 C10        -0.8590    0.4460   -1.2340 c1        1 AK7     -0.421000
     11 C9         -1.8510    1.2100   -2.1130 c2        1 AK7     -0.102000
     12 C8         -1.0880    1.8780   -3.2990 c3        1 AK7     -0.019000
     13 C4          0.1590    3.9490   -6.7370 c1        1 AK7      0.052000
     14 C6         -1.5520    3.3730   -5.2360 c1        1 AK7      0.226000
     15 C2         -1.9830    4.8320   -7.0520 c2        1 AK7      0.231000
     16 C1         -2.4190    4.1570   -5.9470 c1        1 AK7     -0.434000
     17 BR30       -4.2130    4.4180   -5.3140 br        1 AK7      0.054000
     18 N5         -0.2790    3.2680   -5.6240 n1        1 AK7     -0.272000
     19 N3         -0.7050    4.7270   -7.4410 n2        1 AK7     -0.274000
     20 N7         -2.0040    2.6970   -4.0600 n3        1 AK7     -0.305000
     21 N13         0.8530   -0.0720    0.4130 n2        1 AK7     -0.122000
     22 S11        -1.0050   -0.9930   -0.7760 ss        1 AK7      0.619000
     23 N15         0.2910   -2.4880    0.9860 n2        1 AK7     -0.255000
     24 N17         0.7710   -3.6130    3.1030 n2        1 AK7     -0.315000
     25 C19         1.0590   -3.5360    4.5270 c1        1 AK7      0.070000
     26 C21         2.6590   -3.2760    6.3430 c1        1 AK7     -0.136000
     27 C25         4.1200   -3.1760    6.8170 c3        1 AK7      0.466000
     28 F26         4.8400   -2.5590    5.9010 f         1 AK7     -0.165333
     29 F27         4.1700   -2.4750    7.9760 f         1 AK7     -0.165333
     30 F28         4.6190   -4.4200    7.0200 f         1 AK7     -0.165333
     31 HN29       -3.1560    5.3480   -8.6610 hn        1 AK7      0.240000
     32 HN2A       -3.2320    6.4050   -7.4390 hn        1 AK7      0.240000
     33 H24        -0.8690   -3.9290    5.1290 ha        1 AK7      0.162500
     34 H23        -0.3490   -3.8930    7.4670 ha        1 AK7      0.162500
     35 H22         1.8570   -3.4870    8.2520 ha        1 AK7      0.154000
     36 H20         3.0630   -3.1390    4.3260 ha        1 AK7      0.148000
     37 H14         0.5890    1.9530   -0.6270 DU        1 AK7      0.186000
     38 H9         -2.3030    1.9160   -1.5700 ha        1 AK7      0.101000
     39 H9A        -2.5280    0.5810   -2.4680 ha        1 AK7      0.101000
     40 H8         -0.7060    1.1730   -3.8890 h1        1 AK7      0.100500
     41 H8A        -0.3640    2.4390   -2.9450 h1        1 AK7      0.100500
     42 H4          1.0870    3.8740   -7.0210 ha        1 AK7      0.189000
     43 HN7        -2.8670    2.8110   -3.7690 hn        1 AK7      0.234000
     44 HN15        0.0660   -3.3010    0.5960 hn        1 AK7      0.219000
     45 HN17        0.4680   -4.3650    2.7570 hn        1 AK7      0.230000
@<TRIPOS>BOND
     1    1   15 1   
     2    1   31 1   
     3    1   32 1   
     4    2    3 1   
     5    2   33 1   
     6    3   34 1   
     7    4   26 1   
     8    4   35 1   
     9    5    6 1   
    10    5   23 1   
    11    7   25 1   
    12    7   36 1   
    13    8   21 1   
    14    8   22 1   
    15    9   10 1   
    16    9   21 1   
    17   10   22 1   
    18   11   12 1   
    19   11   38 1   
    20   11   39 1   
    21   12   20 1   
    22   12   40 1   
    23   12   41 1   
    24   13   19 1   
    25   13   42 1   
    26   14   18 1   
    27   14   20 1   
    28   15   16 1   
    29   15   19 1   
    30   16   17 1   
    31   20   43 1   
    32   23   44 1   
    33   24   25 1   
    34   24   45 1   
    35   26   27 1   
    36   27   28 1   
    37   27   29 1   
    38   27   30 1   
@<TRIPOS>SUBSTRUCTURE
     1 AK7         1 TEMP              0 ****  ****    0 ROOT
