@<TRIPOS>MOLECULE
AK7
   45    45     1     0     0
SMALL
bcc


@<TRIPOS>ATOM
      1 N29        -1.5480   -0.9160    1.7730 nh        1 AK7     -0.510100
      2 C24        16.2380    3.9260    7.7380 c2        1 AK7     -0.229100
      3 C23        16.2810    2.7510    8.2830 c1        1 AK7      0.012200
      4 C22        16.3570    1.5710    8.8420 ce        1 AK7     -0.168100
      5 C16        10.9010    1.0540    6.7020 c         1 AK7      0.783100
      6 O18        10.1850    1.6680    7.5260 o         1 AK7     -0.611100
      7 C20        14.0140    0.8740    8.6020 c1        1 AK7     -0.103800
      8 C12         9.1240    0.7930    4.9220 c         1 AK7      0.476400
      9 C14         6.8210    1.4880    5.4160 cg        1 AK7     -0.062300
     10 C10         6.1210    1.0210    4.2480 ce        1 AK7     -0.104700
     11 C9          5.2550   -0.0010    4.2660 c2        1 AK7     -0.198200
     12 C8          4.4650   -0.3930    3.0580 c3        1 AK7      0.072500
     13 C4          1.5600   -1.4870    0.0950 c1        1 AK7      0.199400
     14 C6          2.1220   -0.7380    2.3380 c2        1 AK7      0.187800
     15 C2         -0.2020   -0.9930    1.5530 ce        1 AK7      0.625600
     16 C1          0.7260   -0.6370    2.6050 ce        1 AK7     -0.417900
     17 BR30        0.1160   -0.0620    4.2740 br        1 AK7     -0.081700
     18 N5          2.5010   -1.1620    1.0660 nh        1 AK7     -0.267600
     19 N3          0.2550   -1.4090    0.3190 ne        1 AK7     -0.747700
     20 N13         8.0940    1.4080    5.7080 n         1 AK7     -0.306500
     21 S11         8.8590    0.2620    3.4380 s         1 AK7     -0.400400
     22 N17        12.2390    0.7620    7.0050 n         1 AK7     -0.480100
     23 C19        12.7740    1.1170    8.2460 c2        1 AK7      0.025500
     24 C21        15.2360    0.6610    9.0080 ce        1 AK7     -0.070300
     25 C25        15.5930   -0.6420    9.7470 c3        1 AK7      0.671100
     26 F26        15.9780   -0.4510   11.0500 f         1 AK7     -0.232967
     27 F27        14.5840   -1.5690    9.8210 f         1 AK7     -0.232967
     28 F28        16.6400   -1.3280    9.1800 f         1 AK7     -0.232967
     29 HN29       -1.8950   -0.6220    2.6520 hn        1 AK7      0.292200
     30 HN2A       -2.1860   -1.1590    1.0540 hn        1 AK7      0.292200
     31 H23        16.4100    4.0830    6.6620 ha        1 AK7      0.143500
     32 H22        17.3260    1.2030    9.2320 ha        1 AK7      0.162000
     33 H20        12.0640    1.6340    8.9320 h4        1 AK7      0.201000
     34 H14         8.3650    1.8250    6.5890 hn        1 AK7      0.379500
     35 H9          6.2490    1.6580    3.3490 ha        1 AK7      0.158000
     36 H9A         5.1130   -0.6280    5.1600 ha        1 AK7      0.141000
     37 H8          4.6680    0.3300    2.2120 h1        1 AK7      0.049700
     38 H8A         4.8200   -1.4150    2.7270 h1        1 AK7      0.049700
     39 H4          3.4630   -1.2530    0.8310 hn        1 AK7      0.297700
     40 HN17       12.8140    0.2630    6.3650 hn        1 AK7      0.332500
     41 N7          3.0490   -0.4560    3.3210 nh        1 AK7     -0.336300
     42 N15        10.4150    0.6380    5.4400 n         1 AK7     -0.556500
     43 H24        16.0320    4.8370    8.3220 ha        1 AK7      0.143500
     44 HN7         2.7170   -0.0630    4.1750 hn        1 AK7      0.304700
     45 HN15       11.0440    0.1810    4.8030 hn        1 AK7      0.352500
@<TRIPOS>BOND
     1    1   15 2   
     2    1   29 1   
     3    1   30 1   
     4    2    3 2   
     5    2   31 1   
     6    2   43 1   
     7    3    4 2   
     8    4   24 1   
     9    4   32 1   
    10    5    6 2   
    11    5   22 1   
    12    5   42 1   
    13    7   23 2   
    14    7   24 2   
    15    8   20 1   
    16    8   21 2   
    17    8   42 1   
    18    9   10 1   
    19    9   20 3   
    20   10   11 2   
    21   10   35 1   
    22   11   12 1   
    23   11   36 1   
    24   12   37 1   
    25   12   38 1   
    26   12   41 1   
    27   13   18 2   
    28   13   19 2   
    29   14   16 2   
    30   14   18 1   
    31   14   41 1   
    32   15   16 1   
    33   15   19 1   
    34   16   17 1   
    35   18   39 1   
    36   20   34 1   
    37   22   23 1   
    38   22   40 1   
    39   23   33 1   
    40   24   25 1   
    41   25   26 1   
    42   25   27 1   
    43   25   28 1   
    44   41   44 1   
    45   42   45 1   
@<TRIPOS>SUBSTRUCTURE
     1 AK7         1 TEMP              0 ****  ****    0 ROOT
