@<TRIPOS>MOLECULE
AK7
   45    47     1     0     0
SMALL
bcc


@<TRIPOS>ATOM
      1 N29         9.4100    1.4580   -0.4850 nh        1 AK7     -0.961500
      2 C24        -6.1010   -1.4090   -1.2310 ca        1 AK7     -0.109000
      3 C23        -7.2870   -1.6510   -1.9170 ca        1 AK7     -0.112000
      4 C22        -8.4710   -1.0120   -1.5520 ca        1 AK7     -0.103000
      5 C16        -3.6200   -0.3070    0.0890 c         1 AK7      0.751100
      6 O18        -3.3770   -0.7660   -1.0460 o         1 AK7     -0.591100
      7 C20        -7.2800    0.1530    0.2140 ca        1 AK7     -0.136000
      8 C12        -1.2580   -0.1810    0.6170 cc        1 AK7      0.441300
      9 C14         0.6770   -1.2620    0.7750 cd        1 AK7      0.346200
     10 C10         0.9990   -0.3570   -0.2410 cc        1 AK7     -0.223700
     11 C9          2.2950   -0.2930   -0.9320 c3        1 AK7     -0.016100
     12 C8          3.3820    0.2320    0.0170 c3        1 AK7      0.220800
     13 C4          6.8710    1.3530    2.0230 ca        1 AK7      0.714900
     14 C6          5.8040    0.7040    0.0730 ca        1 AK7      0.750200
     15 C2          8.1950    1.2630    0.1270 ca        1 AK7      0.752200
     16 C1          7.0490    0.8470   -0.6270 ca        1 AK7     -0.426500
     17 BR30        7.1770    0.5020   -2.4560 br        1 AK7     -0.087100
     18 N5          5.7210    0.9760    1.4240 nb        1 AK7     -0.799000
     19 N3          8.0970    1.5110    1.4840 nb        1 AK7     -0.801000
     20 N13        -0.6010   -1.1730    1.2650 nd        1 AK7     -0.648000
     21 S11        -0.3090    0.6210   -0.5820 ss        1 AK7      0.028700
     22 N17        -4.9240   -0.2630    0.6190 n         1 AK7     -0.461100
     23 C19        -6.0800   -0.5000   -0.1510 ca        1 AK7      0.062600
     24 C21        -8.4550   -0.1150   -0.4850 ca        1 AK7     -0.143300
     25 C25        -9.7370    0.6070   -0.0840 c3        1 AK7      0.687200
     26 F26       -10.8920   -0.0850   -0.3560 f         1 AK7     -0.236633
     27 F27        -9.8310    0.9030    1.2550 f         1 AK7     -0.236633
     28 F28        -9.9170    1.8190   -0.7060 f         1 AK7     -0.236633
     29 HN29       10.2100    1.6650    0.0620 hn        1 AK7      0.444800
     30 HN2A        9.5330    1.1570   -1.4200 hn        1 AK7      0.444800
     31 H23        -7.2880   -2.3610   -2.7580 ha        1 AK7      0.147000
     32 H22        -9.4090   -1.2130   -2.0920 ha        1 AK7      0.154000
     33 H20        -7.3080    0.8670    1.0530 ha        1 AK7      0.148000
     34 H14         1.3530   -2.0190    1.1930 h4        1 AK7      0.051100
     35 H9          2.5720   -1.3200   -1.2980 hc        1 AK7      0.061200
     36 H9A         2.2210    0.3730   -1.8340 hc        1 AK7      0.061200
     37 H8          3.0990    1.2680    0.3630 h1        1 AK7      0.060700
     38 H8A         3.4210   -0.4320    0.9290 h1        1 AK7      0.060700
     39 H4          6.7960    1.5610    3.1130 h5        1 AK7      0.052100
     40 HN17       -5.0770    0.2780    1.4430 hn        1 AK7      0.317500
     41 N7          4.6850    0.2480   -0.5980 nh        1 AK7     -0.864900
     42 N15        -2.5720    0.2500    0.8950 n         1 AK7     -0.488400
     43 H24        -5.1770   -1.9260   -1.5440 ha        1 AK7      0.178000
     44 HN7         4.7260    0.2350   -1.5920 hn        1 AK7      0.441800
     45 HN15       -2.7620    0.2830    1.8810 hn        1 AK7      0.305500
@<TRIPOS>BOND
     1    1   15 1   
     2    1   29 1   
     3    1   30 1   
     4    2    3 ar  
     5    2   23 ar  
     6    2   43 1   
     7    3    4 ar  
     8    3   31 1   
     9    4   24 ar  
    10    4   32 1   
    11    5    6 2   
    12    5   22 1   
    13    5   42 1   
    14    7   23 ar  
    15    7   24 ar  
    16    7   33 1   
    17    8   20 2   
    18    8   21 1   
    19    8   42 1   
    20    9   10 2   
    21    9   20 1   
    22    9   34 1   
    23   10   11 1   
    24   10   21 1   
    25   11   12 1   
    26   11   35 1   
    27   11   36 1   
    28   12   37 1   
    29   12   38 1   
    30   12   41 1   
    31   13   18 ar  
    32   13   19 ar  
    33   13   39 1   
    34   14   16 ar  
    35   14   18 ar  
    36   14   41 1   
    37   15   16 ar  
    38   15   19 ar  
    39   16   17 1   
    40   22   23 1   
    41   22   40 1   
    42   24   25 1   
    43   25   26 1   
    44   25   27 1   
    45   25   28 1   
    46   41   44 1   
    47   42   45 1   
@<TRIPOS>SUBSTRUCTURE
     1 AK7         1 TEMP              0 ****  ****    0 ROOT
