@<TRIPOS>MOLECULE
AK7
   45    45     1     0     0
SMALL
bcc


@<TRIPOS>ATOM
      1 N29         1.4720    0.6990    0.0670 n3        1 AK7     -0.342000
      2 C24        14.2600    4.0120    5.3400 c2        1 AK7     -0.169000
      3 C23        14.7620    3.0290    6.0200 c1        1 AK7     -0.120000
      4 C22        15.2950    2.0480    6.7010 c2        1 AK7     -0.098000
      5 C16         9.6780    0.3940    6.9600 c2        1 AK7      0.364000
      6 O18         9.2020    1.1340    7.8470 o         1 AK7     -0.359000
      7 C20        13.2410    0.9880    7.5330 c1        1 AK7     -0.241000
      8 C12         7.4730   -0.2150    6.2190 c2        1 AK7     -0.596000
      9 C14         5.4560   -0.4310    7.3490 c2        1 AK7      0.055000
     10 C10         5.1400    0.1660    6.0530 c2        1 AK7     -0.844000
     11 C9          4.5650   -0.7200    8.3160 c2        1 AK7     -0.325000
     12 C8          5.5380   -1.4300    4.0370 c1        1 AK7     -0.209000
     13 C4          4.8760    1.3870    0.9520 c1        1 AK7      0.002000
     14 C6          4.1710   -0.4870    2.3050 c2        1 AK7      0.184000
     15 C2          2.6830    0.6020    0.6850 c2        1 AK7      0.255000
     16 C1          2.9020   -0.4290    1.6990 c2        1 AK7     -0.399000
     17 BR30        1.5430   -1.6190    2.1680 br        1 AK7      0.076000
     18 N5          5.1390    0.4250    1.9200 n3        1 AK7     -0.206000
     19 N3          3.6910    1.4740    0.3520 n2        1 AK7     -0.286000
     20 N13         6.8590   -0.7480    7.4170 na        1 AK7     -0.188000
     21 S11         6.4190    0.3700    5.1510 ss        1 AK7      1.290000
     22 N17        11.0760    0.2320    6.8500 n         1 AK7     -0.326000
     23 C19        11.9340    0.9600    7.6680 c2        1 AK7      0.096000
     24 C21        14.5400    1.0520    7.4450 c2        1 AK7     -0.015000
     25 C25        15.4230    0.0230    8.1740 c3        1 AK7      0.452000
     26 F26        16.2660    0.5760    9.1070 f         1 AK7     -0.165667
     27 F27        14.7490   -0.9520    8.8630 f         1 AK7     -0.165667
     28 F28        16.2610   -0.6750    7.3380 f         1 AK7     -0.165667
     29 HN29        0.7330    0.0860    0.3080 hn        1 AK7      0.250000
     30 HN2A        1.3170    1.4020   -0.6170 hn        1 AK7      0.250000
     31 H23        14.0030    3.9190    4.2740 ha        1 AK7      0.139500
     32 H22        16.3960    1.9330    6.7400 ha        1 AK7      0.157000
     33 H20        11.4310    1.5260    8.4860 h4        1 AK7      0.198000
     34 H14         7.3030   -0.4280    8.2590 hn        1 AK7      0.201000
     35 H9          4.1190    0.4720    5.8430 h4        1 AK7      0.184000
     36 H9A         4.8490   -1.1510    9.2800 ha        1 AK7      0.117000
     37 H8          5.6930   -2.2770    4.7340 ha        1 AK7      0.123000
     38 H8A         3.4990   -0.5280    8.1660 ha        1 AK7      0.117000
     39 H4          6.0470    0.3910    2.3390 hn        1 AK7      0.270000
     40 HN17       11.4610   -0.2580    6.0750 hn        1 AK7      0.239000
     41 N7          4.4600   -1.4830    3.2910 n3        1 AK7     -0.156000
     42 N15         8.8650   -0.2740    5.9860 n         1 AK7     -0.207000
     43 H24        14.0650    4.9970    5.7900 ha        1 AK7      0.139500
     44 HN7         3.7530   -2.1980    3.3640 hn        1 AK7      0.226000
     45 HN15        9.1710   -1.2150    5.8030 hn        1 AK7      0.198000
@<TRIPOS>BOND
     1    1   15 1   
     2    1   29 1   
     3    1   30 1   
     4    2    3 1   
     5    2   31 1   
     6    2   43 1   
     7    3    4 1   
     8    4   24 1   
     9    4   32 1   
    10    5    6 1   
    11    5   22 1   
    12    5   42 1   
    13    7   23 1   
    14    7   24 1   
    15    8   20 1   
    16    8   21 1   
    17    8   42 1   
    18    9   10 1   
    19    9   11 1   
    20    9   20 1   
    21   10   21 1   
    22   10   35 1   
    23   11   36 1   
    24   11   38 1   
    25   12   37 1   
    26   12   41 1   
    27   13   18 1   
    28   13   19 1   
    29   14   16 1   
    30   14   18 1   
    31   14   41 1   
    32   15   16 1   
    33   15   19 1   
    34   16   17 1   
    35   18   39 1   
    36   20   34 1   
    37   22   23 1   
    38   22   40 1   
    39   23   33 1   
    40   24   25 1   
    41   25   26 1   
    42   25   27 1   
    43   25   28 1   
    44   41   44 1   
    45   42   45 1   
@<TRIPOS>SUBSTRUCTURE
     1 AK7         1 TEMP              0 ****  ****    0 ROOT
