@<TRIPOS>MOLECULE
AK8
   57    60     1     0     0
SMALL
bcc


@<TRIPOS>ATOM
      1 N1         -5.9900    0.8470    0.9360 nb        1 AK8     -0.731000
      2 N3         -3.3950   -2.6390    0.2190 nb        1 AK8     -0.713000
      3 C4         -8.2810    0.8560   -0.6240 ca        1 AK8      0.461200
      4 C5         -5.5520   -1.4880    0.4220 cp        1 AK8     -0.282800
      5 C6         -6.1290   -2.6630    0.9160 ca        1 AK8     -0.050000
      6 C7         -5.3470   -3.8080    1.0640 ca        1 AK8     -0.285300
      7 C8         -3.9890   -3.7410    0.7090 ca        1 AK8      0.438200
      8 C10        -7.2350    4.2660    1.5320 c3        1 AK8      0.196100
      9 C13        -0.0520   -0.0830    0.2560 ca        1 AK8     -0.127000
     10 C15        -0.4370    0.1890   -2.1340 ca        1 AK8     -0.172000
     11 C17        -2.7260    0.0050   -3.1150 c3        1 AK8     -0.051800
     12 C20         5.3980   -1.3090    0.5890 ca        1 AK8     -0.109000
     13 C21         6.5930   -1.6090    1.2350 ca        1 AK8     -0.113000
     14 C22         7.7460   -0.8640    0.9970 ca        1 AK8     -0.105000
     15 C24         6.5030    0.5320   -0.5540 ca        1 AK8     -0.139000
     16 C1         -6.7920    1.9720    0.7580 ca        1 AK8      0.867900
     17 N2         -7.9580    1.9990   -0.0020 nb        1 AK8     -0.743000
     18 C3         -7.5230   -0.3220   -0.5320 ca        1 AK8     -0.416600
     19 C2         -6.3630   -0.2700    0.2760 cp        1 AK8      0.545800
     20 C9         -4.1710   -1.5330    0.0760 ca        1 AK8      0.653600
     21 O1         -3.6620   -0.3720   -0.4840 os        1 AK8     -0.348400
     22 C11        -2.2770   -0.2830   -0.6580 ca        1 AK8      0.086100
     23 C16        -1.8020   -0.0370   -1.9580 ca        1 AK8     -0.045300
     24 C12        -1.4110   -0.3120    0.4380 ca        1 AK8     -0.101000
     25 C14         0.4540    0.1730   -1.0360 ca        1 AK8      0.054600
     26 N5          1.8120    0.4840   -1.2660 n         1 AK8     -0.457100
     27 C18         2.8650   -0.0970   -0.5300 c         1 AK8      0.770100
     28 O2          2.6670   -0.7290    0.5300 o         1 AK8     -0.605100
     29 N6          4.1710    0.0800   -1.0500 n         1 AK8     -0.466100
     30 C19         5.3340   -0.2290   -0.3190 ca        1 AK8      0.064600
     31 C23         7.6890    0.2020    0.0990 ca        1 AK8     -0.143300
     32 C25         8.9450    1.0160   -0.1890 c3        1 AK8      0.686200
     33 F2          9.8490    1.0600    0.8440 f         1 AK8     -0.237300
     34 F3          9.6800    0.5570   -1.2570 f         1 AK8     -0.237300
     35 F1          8.7150    2.3370   -0.4900 f         1 AK8     -0.237300
     36 H4         -9.2060    0.8920   -1.2290 h4        1 AK8      0.025100
     37 H6         -7.1950   -2.6720    1.1900 ha        1 AK8      0.147000
     38 H7         -5.7760   -4.7400    1.4520 ha        1 AK8      0.149000
     39 H8         -3.3270   -4.6200    0.8170 h4        1 AK8      0.028100
     40 H10        -6.6620    5.1030    2.0110 h1        1 AK8      0.044367
     41 H10A       -7.6260    4.6150    0.5390 h1        1 AK8      0.044367
     42 H10B       -8.1120    4.0040    2.1850 h1        1 AK8      0.044367
     43 H13         0.6230   -0.1150    1.1270 ha        1 AK8      0.172000
     44 H15        -0.0660    0.3820   -3.1530 ha        1 AK8      0.132000
     45 H17        -3.5490   -0.7410   -2.9830 hc        1 AK8      0.051033
     46 H17A       -3.1890    1.0210   -3.1920 hc        1 AK8      0.051033
     47 H17B       -2.1880   -0.2160   -4.0690 hc        1 AK8      0.051033
     48 H20         4.4990   -1.9140    0.7990 ha        1 AK8      0.178000
     49 H21         6.6260   -2.4510    1.9440 ha        1 AK8      0.146000
     50 H22         8.6890   -1.1040    1.5110 ha        1 AK8      0.153000
     51 H24         6.4960    1.3870   -1.2490 ha        1 AK8      0.147000
     52 HN4        -5.6340    3.0510    2.0420 hn        1 AK8      0.433800
     53 H3         -7.8090   -1.2360   -1.0600 ha        1 AK8      0.154000
     54 H12        -1.8070   -0.5200    1.4440 ha        1 AK8      0.153000
     55 HN5         2.0080    0.7820   -2.1980 hn        1 AK8      0.308500
     56 HN6         4.3000    0.7760   -1.7520 hn        1 AK8      0.310500
     57 N4         -6.3410    3.1630    1.3460 nh        1 AK8     -0.833900
@<TRIPOS>BOND
     1    1   16 ar  
     2    1   19 ar  
     3    2    7 ar  
     4    2   20 ar  
     5    3   17 ar  
     6    3   18 ar  
     7    3   36 1   
     8    4    5 ar  
     9    4   19 1   
    10    4   20 ar  
    11    5    6 ar  
    12    5   37 1   
    13    6    7 ar  
    14    6   38 1   
    15    7   39 1   
    16    8   40 1   
    17    8   41 1   
    18    8   42 1   
    19    8   57 1   
    20    9   24 ar  
    21    9   25 ar  
    22    9   43 1   
    23   10   23 ar  
    24   10   25 ar  
    25   10   44 1   
    26   11   23 1   
    27   11   45 1   
    28   11   46 1   
    29   11   47 1   
    30   12   13 ar  
    31   12   30 ar  
    32   12   48 1   
    33   13   14 ar  
    34   13   49 1   
    35   14   31 ar  
    36   14   50 1   
    37   15   30 ar  
    38   15   31 ar  
    39   15   51 1   
    40   16   17 ar  
    41   16   57 1   
    42   18   19 ar  
    43   18   53 1   
    44   20   21 1   
    45   21   22 1   
    46   22   23 ar  
    47   22   24 ar  
    48   24   54 1   
    49   25   26 1   
    50   26   27 1   
    51   26   55 1   
    52   27   28 2   
    53   27   29 1   
    54   29   30 1   
    55   29   56 1   
    56   31   32 1   
    57   32   33 1   
    58   32   34 1   
    59   32   35 1   
    60   52   57 1   
@<TRIPOS>SUBSTRUCTURE
     1 AK8         1 TEMP              0 ****  ****    0 ROOT
