@<TRIPOS>MOLECULE
AK8
   57    59     1     0     0
SMALL
bcc


@<TRIPOS>ATOM
      1 N1          0.4000   -0.1430   -0.0690 n2        1 AK8     -0.270000
      2 N3         -3.9070   -0.3610   -0.3550 n2        1 AK8     -0.270000
      3 C4          1.6870    0.1490    2.4550 c1        1 AK8     -0.080000
      4 C5         -1.8000   -0.0790    0.9400 c2        1 AK8     -0.200000
      5 C6         -2.6190   -0.1660    2.1400 c2        1 AK8     -0.108000
      6 C7         -3.9540   -0.3790    2.0570 c2        1 AK8     -0.228000
      7 C8         -4.6050   -0.5800    0.7640 c1        1 AK8     -0.057000
      8 C10         5.0660    0.3300    1.9900 c1        1 AK8     -0.036000
      9 C13        -3.1470   -0.1430   -4.8520 cx        1 AK8     -0.176000
     10 C15        -3.8860    1.1400   -4.4320 cx        1 AK8     -0.141000
     11 C17        -3.9380    2.4030   -2.2470 c2        1 AK8     -0.164000
     12 C20        -8.8970   -2.8110   -6.5480 c2        1 AK8     -0.081000
     13 C21       -10.0410   -3.4520   -6.8340 c2        1 AK8     -0.180000
     14 C22       -10.3570   -4.0580   -8.1090 c2        1 AK8     -0.059000
     15 C24        -7.6160   -3.4850   -8.5080 c1        1 AK8      0.255000
     16 C1          1.7420   -0.0790    0.0660 c2        1 AK8      0.216000
     17 N2          2.3930    0.1010    1.3460 n7        1 AK8     -0.245000
     18 C3          0.2050    0.0400    2.4170 c3        1 AK8     -0.246000
     19 C2         -0.4150   -0.0590    1.0430 c2        1 AK8      0.147000
     20 C9         -2.5940   -0.0740   -0.2940 c2        1 AK8      0.240000
     21 O1         -1.9020    0.2630   -1.4360 os        1 AK8     -0.125000
     22 C11        -2.5930    0.3020   -2.6380 c2        1 AK8      0.057000
     23 C16        -3.5190    1.3960   -3.0080 c2        1 AK8     -0.066000
     24 C12        -2.3890   -0.5820   -3.6530 c2        1 AK8     -0.135000
     25 C14        -4.6680   -0.1400   -4.6900 cx        1 AK8      0.004000
     26 N5         -5.5440   -0.2010   -5.8100 ns        1 AK8     -0.324000
     27 C18        -6.2290   -1.4070   -6.0670 c2        1 AK8      0.356000
     28 O2         -6.2530   -2.3380   -5.2350 o         1 AK8     -0.351000
     29 N6         -6.8960   -1.5160   -7.3300 ns        1 AK8     -0.272000
     30 C19        -7.7950   -2.6110   -7.4950 c2        1 AK8     -0.272000
     31 C23        -9.5840   -4.9690   -8.7160 c2        1 AK8     -0.233000
     32 C25        -9.9580   -5.5640  -10.0650 c3        1 AK8      0.456000
     33 F2        -10.7480   -6.6860   -9.9770 f         1 AK8     -0.166000
     34 F3        -10.6590   -4.7270  -10.9000 f         1 AK8     -0.166000
     35 F1         -8.8820   -5.9710  -10.8130 f         1 AK8     -0.166000
     36 H4          3.4350    0.1750    1.3990 hn        1 AK8      0.315000
     37 H6         -0.2020    0.9430    2.9540 hc        1 AK8      0.160000
     38 H7         -2.1200   -0.0790    3.1170 ha        1 AK8      0.116000
     39 H8         -4.5900   -0.4470    2.9500 ha        1 AK8      0.143000
     40 H10         3.4950   -0.0480   -1.0190 hn        1 AK8      0.247500
     41 H10A        5.6000   -0.5270    2.4180 ha        1 AK8      0.056500
     42 H10B        5.4990    1.3020    2.2570 ha        1 AK8      0.056500
     43 H13        -2.6740   -0.2760   -5.8340 hc        1 AK8      0.135000
     44 H15        -5.0910   -0.6950   -3.8160 h1        1 AK8      0.188000
     45 H17        -3.9910    2.0160   -5.0870 hc        1 AK8      0.135000
     46 H17A       -4.6340    3.1660   -2.6180 ha        1 AK8      0.122000
     47 H17B       -3.6250    2.5070   -1.2000 ha        1 AK8      0.122000
     48 H20        -8.7290   -2.3930   -5.5370 ha        1 AK8      0.166000
     49 H21       -10.8410   -3.5220   -6.0740 ha        1 AK8      0.155000
     50 H22       -11.3030   -3.7200   -8.5750 ha        1 AK8      0.150000
     51 H24        -8.6850   -5.4310   -8.2730 ha        1 AK8      0.184000
     52 HN4         2.0840   -0.3000   -1.9480 hn        1 AK8      0.247500
     53 H3         -0.0720   -0.8640    3.0300 hc        1 AK8      0.160000
     54 H12        -1.7700   -1.4780   -3.6400 ha        1 AK8      0.158000
     55 HN5        -5.2790    0.3530   -6.5940 hn        1 AK8      0.210000
     56 HN6        -7.2940   -0.6630   -7.6710 hn        1 AK8      0.207000
     57 N4          2.5230   -0.2230   -1.0610 n8        1 AK8     -0.353000
@<TRIPOS>BOND
     1    1   16 1   
     2    1   19 1   
     3    2    7 1   
     4    2   20 1   
     5    3   17 1   
     6    3   18 1   
     7    4    5 1   
     8    4   19 1   
     9    4   20 1   
    10    5    6 1   
    11    5   38 1   
    12    6    7 1   
    13    6   39 1   
    14    8   41 1   
    15    8   42 1   
    16    9   10 1   
    17    9   24 1   
    18    9   25 1   
    19    9   43 1   
    20   10   23 1   
    21   10   25 1   
    22   10   45 1   
    23   11   23 1   
    24   11   46 1   
    25   11   47 1   
    26   12   13 1   
    27   12   30 1   
    28   12   48 1   
    29   13   14 1   
    30   13   49 1   
    31   14   31 1   
    32   14   50 1   
    33   15   30 1   
    34   16   17 1   
    35   16   57 1   
    36   17   36 1   
    37   18   19 1   
    38   18   37 1   
    39   18   53 1   
    40   20   21 1   
    41   21   22 1   
    42   22   23 1   
    43   22   24 1   
    44   24   54 1   
    45   25   26 1   
    46   25   44 1   
    47   26   27 1   
    48   26   55 1   
    49   27   28 1   
    50   27   29 1   
    51   29   30 1   
    52   29   56 1   
    53   31   32 1   
    54   31   51 1   
    55   32   33 1   
    56   32   34 1   
    57   32   35 1   
    58   40   57 1   
    59   52   57 1   
@<TRIPOS>SUBSTRUCTURE
     1 AK8         1 TEMP              0 ****  ****    0 ROOT
