@<TRIPOS>MOLECULE
AK8
   57    48     1     0     0
SMALL
bcc


@<TRIPOS>ATOM
      1 N1          3.5950   -1.8880    3.8970 n1        1 AK8     -0.229000
      2 N3         -0.0810    0.0640    2.8110 n1        1 AK8     -0.187000
      3 C4          5.4920   -0.0960    4.6540 c1        1 AK8     -0.123167
      4 C5          1.8600   -0.5310    4.0560 c1        1 AK8     -0.107000
      5 C6          1.0810   -0.8450    5.1320 c1        1 AK8     -0.123167
      6 C7         -0.2740   -0.7080    5.0550 c1        1 AK8     -0.123167
      7 C8         -0.8590   -0.2500    3.8850 c1        1 AK8     -0.027000
      8 C10         6.6230   -4.0260    3.9260 c3        1 AK8     -0.082000
      9 C13         0.1160   -0.2510   -1.2700 c1        1 AK8     -0.127000
     10 C15         0.4090    2.1090   -0.9470 c1        1 AK8     -0.141000
     11 C17         1.5650    3.0190    1.0880 c3        1 AK8     -0.178000
     12 C20        -4.8160    2.2350   -4.4190 c1        1 AK8     -0.141000
     13 C21        -6.1600    2.1240   -4.7400 c1        1 AK8     -0.123167
     14 C22        -6.6260    0.9930   -5.3920 c1        1 AK8     -0.123167
     15 C24        -4.4040    0.0830   -5.4010 c1        1 AK8     -0.138000
     16 N4          5.2670   -3.6200    3.7730 n3        1 AK8     -0.275000
     17 C1          4.8980   -2.2720    4.0210 c1        1 AK8      0.144000
     18 N2          5.8420   -1.3660    4.4010 n1        1 AK8     -0.213000
     19 C3          4.1880    0.2880    4.5310 c1        1 AK8     -0.123167
     20 C2          3.2420   -0.6190    4.1500 c1        1 AK8      0.107000
     21 C9          1.2730   -0.0720    2.8860 c1        1 AK8      0.142000
     22 O1          2.0780    0.3070    1.7990 os        1 AK8     -0.151000
     23 C11         1.2640    0.5610    0.6780 c2        1 AK8      0.039000
     24 C16         1.0770    1.8640    0.2430 c1        1 AK8     -0.038000
     25 C12         0.7830   -0.4970   -0.0790 c2        1 AK8     -0.101000
     26 C14        -0.0720    1.0520   -1.7040 c1        1 AK8      0.068500
     27 N5         -0.6120    1.2950   -2.9980 n         1 AK8     -0.316500
     28 C18        -1.9950    1.0780   -3.2430 c2        1 AK8      0.397000
     29 O2         -2.7150    0.6840   -2.3490 o         1 AK8     -0.365000
     30 N6         -2.5450    1.3770   -4.5210 n         1 AK8     -0.316500
     31 C19        -3.9380    1.2150   -4.7490 c1        1 AK8      0.068500
     32 C23        -5.7490   -0.0270   -5.7220 c1        1 AK8     -0.136000
     33 C25        -6.2520   -1.2480   -6.4660 c3        1 AK8      0.465000
     34 F2         -7.4130   -1.6490   -5.9320 f         1 AK8     -0.165667
     35 F3         -6.4370   -0.9390   -7.7570 f         1 AK8     -0.165667
     36 F1         -5.3510   -2.2330   -6.3680 f         1 AK8     -0.165667
     37 H4          6.1690    0.5520    4.9270 ha        1 AK8      0.155500
     38 H6          1.4940   -1.1680    5.9560 ha        1 AK8      0.155500
     39 H7         -0.8320   -0.9330    5.8240 ha        1 AK8      0.155500
     40 H8         -1.8290   -0.1510    3.8300 ha        1 AK8      0.165000
     41 H10         6.7630   -4.8820    3.4650 h1        1 AK8      0.084000
     42 H10A        7.2150   -3.3460    3.5380 h1        1 AK8      0.084000
     43 H10B        6.8280   -4.1320    4.8800 h1        1 AK8      0.084000
     44 H13        -0.2230   -0.9960   -1.8020 ha        1 AK8      0.173000
     45 H15         0.2780    3.0270   -1.2530 ha        1 AK8      0.155000
     46 H17         1.5990    3.8320    0.5410 hc        1 AK8      0.089667
     47 H17A        0.9510    3.1570    1.8390 hc        1 AK8      0.089667
     48 H17B        2.4610    2.8180    1.4300 hc        1 AK8      0.089667
     49 H20        -4.4880    3.0320   -3.9600 ha        1 AK8      0.155000
     50 H21        -6.7790    2.8430   -4.5070 ha        1 AK8      0.155500
     51 H22        -7.5730    0.9150   -5.6180 ha        1 AK8      0.155500
     52 H24        -3.7860   -0.6350   -5.6340 ha        1 AK8      0.147000
     53 HN4         4.6330   -4.2280    3.5290 hn        1 AK8      0.223000
     54 H3          3.9320    1.2120    4.7150 ha        1 AK8      0.155500
     55 H12         0.9150   -1.4140    0.2260 ha        1 AK8      0.153000
     56 HN5        -0.0710    1.5920   -3.6690 hn        1 AK8      0.224000
     57 HN6        -2.0080    1.6940   -5.1860 hn        1 AK8      0.224000
@<TRIPOS>BOND
     1    1   20 1   
     2    2    7 1   
     3    3   19 1   
     4    3   37 1   
     5    4   21 1   
     6    5    6 1   
     7    5   38 1   
     8    6   39 1   
     9    7   40 1   
    10    8   16 1   
    11    8   41 1   
    12    8   42 1   
    13    8   43 1   
    14    9   25 1   
    15    9   44 1   
    16   10   26 1   
    17   10   45 1   
    18   11   24 1   
    19   11   46 1   
    20   11   47 1   
    21   11   48 1   
    22   12   31 1   
    23   12   49 1   
    24   13   14 1   
    25   13   50 1   
    26   14   51 1   
    27   15   32 1   
    28   15   52 1   
    29   16   17 1   
    30   16   53 1   
    31   17   18 1   
    32   19   54 1   
    33   21   22 1   
    34   22   23 1   
    35   23   24 1   
    36   23   25 1   
    37   25   55 1   
    38   26   27 1   
    39   27   28 1   
    40   27   56 1   
    41   28   29 1   
    42   28   30 1   
    43   30   31 1   
    44   30   57 1   
    45   32   33 1   
    46   33   34 1   
    47   33   35 1   
    48   33   36 1   
@<TRIPOS>SUBSTRUCTURE
     1 AK8         1 TEMP              0 ****  ****    0 ROOT
