@<TRIPOS>MOLECULE
AK8
   57    58     1     0     0
SMALL
bcc


@<TRIPOS>ATOM
      1 N1          0.1800    0.5800   -0.0190 n2        1 AK8     -0.261000
      2 N3         -2.7440   -2.3380    1.1860 n2        1 AK8     -0.283000
      3 C4          1.6290    2.1020    1.9120 c1        1 AK8     -0.033000
      4 C5         -1.1080   -0.5370    1.6960 c2        1 AK8     -0.188000
      5 C6         -1.2780   -0.8880    3.1000 c2        1 AK8     -0.111000
      6 C7         -2.0770   -1.9190    3.4650 c2        1 AK8     -0.221000
      7 C8         -2.7330   -2.7510    2.4570 c1        1 AK8     -0.045000
      8 C10         2.2660    2.6620   -2.2150 c3        1 AK8     -0.087000
      9 C13        -3.7730   -3.4990   -2.3780 c1        1 AK8     -0.079000
     10 C15        -4.9160   -1.3480   -2.7450 c1        1 AK8     -0.142000
     11 C17        -4.5820    0.6120   -1.2530 c3        1 AK8     -0.169000
     12 C20        -7.2720   -1.7230   -8.6470 c3        1 AK8     -0.087000
     13 C21        -8.1820   -1.4060   -9.7780 c2        1 AK8     -0.073000
     14 C22        -9.2770   -2.0680  -10.0280 c1        1 AK8     -0.160000
     15 C24        -9.0240   -3.3240   -7.9790 c1        1 AK8      0.170000
     16 C1          1.1120    1.4870   -0.3690 c2        1 AK8      0.214000
     17 N2          1.8210    2.2790    0.6160 n3        1 AK8     -0.215000
     18 C3          0.6510    1.0880    2.3850 c3        1 AK8     -0.251000
     19 C2         -0.1210    0.3580    1.3130 c2        1 AK8      0.136000
     20 C9         -2.0330   -1.2600    0.8110 c2        1 AK8      0.243000
     21 O1         -2.1390   -0.7580   -0.4640 os        1 AK8     -0.135000
     22 C11        -3.0320   -1.3740   -1.3450 c2        1 AK8      0.036000
     23 C16        -4.1450   -0.7070   -1.7570 c2        1 AK8      0.009000
     24 C12        -2.6370   -2.6870   -1.9350 c3        1 AK8     -0.207000
     25 C14        -5.4470   -2.0380   -3.5790 c1        1 AK8      0.004000
     26 N5         -6.1030   -2.8280   -4.4480 n         1 AK8     -0.224000
     27 C18        -6.5730   -2.2910   -5.6820 c2        1 AK8      0.376000
     28 O2         -6.6210   -1.0590   -5.8690 o         1 AK8     -0.347000
     29 N6         -6.9610   -3.2240   -6.6770 n         1 AK8     -0.271000
     30 C19        -7.8100   -2.7950   -7.7290 c2        1 AK8     -0.266000
     31 C23       -10.3810   -2.7140  -10.2650 c2        1 AK8     -0.115000
     32 C25       -10.4770   -3.9020  -11.2180 c3        1 AK8      0.457000
     33 F2        -10.8440   -3.5470  -12.4950 f         1 AK8     -0.162333
     34 F3         -9.3310   -4.6360  -11.3860 f         1 AK8     -0.162333
     35 F1        -11.4240   -4.8220  -10.8410 f         1 AK8     -0.162333
     36 H4          2.4790    2.9630    0.3070 hn        1 AK8      0.265000
     37 H6          1.2250    0.3520    3.0190 hc        1 AK8      0.166000
     38 H7         -0.7160   -0.3110    3.8500 ha        1 AK8      0.120000
     39 H8         -2.2250   -2.1990    4.5170 ha        1 AK8      0.148000
     40 H10         1.8960    3.6850   -1.9330 h1        1 AK8      0.093667
     41 H10A        3.3140    2.5340   -1.8270 h1        1 AK8      0.093667
     42 H10B        2.2920    2.5880   -3.3360 h1        1 AK8      0.093667
     43 H13        -1.9400   -2.4780   -2.7960 hc        1 AK8      0.136500
     44 H15        -4.5590   -3.6500   -1.6190 ha        1 AK8      0.054000
     45 H17        -4.6240    1.3500   -2.0930 hc        1 AK8      0.093333
     46 H17A       -3.8760    0.9920   -0.4750 hc        1 AK8      0.093333
     47 H17B       -5.6040    0.5310   -0.8050 hc        1 AK8      0.093333
     48 H20        -6.2780   -2.0500   -9.0610 hc        1 AK8      0.138500
     49 H21        -7.0990   -0.7850   -8.0430 hc        1 AK8      0.138500
     50 H22        -7.8780   -0.5480  -10.4050 ha        1 AK8      0.163000
     51 H24       -11.3450   -2.4490   -9.7980 ha        1 AK8      0.182000
     52 HN4         0.8760    1.1000   -2.3620 hn        1 AK8      0.271000
     53 H3         -0.0640    1.6260    3.0730 hc        1 AK8      0.166000
     54 H12        -2.0610   -3.3160   -1.1920 hc        1 AK8      0.136500
     55 HN5        -5.7980   -3.7850   -4.4160 hn        1 AK8      0.256000
     56 HN6        -7.1460   -4.1570   -6.3730 hn        1 AK8      0.221000
     57 N4          1.4120    1.6340   -1.7120 n3        1 AK8     -0.307000
@<TRIPOS>BOND
     1    1   16 1   
     2    1   19 1   
     3    2    7 1   
     4    2   20 1   
     5    3   17 1   
     6    3   18 1   
     7    4    5 1   
     8    4   19 1   
     9    4   20 1   
    10    5    6 1   
    11    5   38 1   
    12    6    7 1   
    13    6   39 1   
    14    8   40 1   
    15    8   41 1   
    16    8   42 1   
    17    8   57 1   
    18    9   24 1   
    19    9   44 1   
    20   10   23 1   
    21   10   25 1   
    22   11   23 1   
    23   11   45 1   
    24   11   46 1   
    25   11   47 1   
    26   12   13 1   
    27   12   30 1   
    28   12   48 1   
    29   12   49 1   
    30   13   14 1   
    31   13   50 1   
    32   14   31 1   
    33   15   30 1   
    34   16   17 1   
    35   16   57 1   
    36   17   36 1   
    37   18   19 1   
    38   18   37 1   
    39   18   53 1   
    40   20   21 1   
    41   21   22 1   
    42   22   23 1   
    43   22   24 1   
    44   24   43 1   
    45   24   54 1   
    46   25   26 1   
    47   26   27 1   
    48   26   55 1   
    49   27   28 1   
    50   27   29 1   
    51   29   30 1   
    52   29   56 1   
    53   31   32 1   
    54   31   51 1   
    55   32   33 1   
    56   32   34 1   
    57   32   35 1   
    58   52   57 1   
@<TRIPOS>SUBSTRUCTURE
     1 AK8         1 TEMP              0 ****  ****    0 ROOT
