@<TRIPOS>MOLECULE
AK8
   60    63     1     0     0
SMALL
bcc


@<TRIPOS>ATOM
      1 N1          0.1190    0.5800   -0.0860 n2        1 AK8     -0.148000
      2 N3         -3.8660    0.8030   -1.7010 n2        1 AK8     -0.277000
      3 C4          0.7950    2.0900    2.2390 c1        1 AK8      0.082000
      4 C5         -2.2030    1.2890    0.0480 c2        1 AK8     -0.053000
      5 C6         -3.2140    2.1940    0.6180 c2        1 AK8     -0.126000
      6 C7         -4.3760    2.4530   -0.0320 c2        1 AK8     -0.164000
      7 C8         -4.5030    1.9450   -1.3930 c1        1 AK8      0.083000
      8 C10         3.4020    0.8360   -0.9340 c3        1 AK8     -0.198000
      9 C13        -3.8590   -3.9590   -1.7140 c3        1 AK8     -0.263000
     10 C15        -4.1400   -2.1000   -4.1570 c1        1 AK8     -0.177000
     11 C17        -2.5040   -0.3080   -4.1980 c3        1 AK8     -0.263000
     12 C20        -9.9590   -3.1870   -6.6870 c3        1 AK8     -0.119000
     13 C21       -10.1980   -2.1710   -7.8110 c2        1 AK8      0.038000
     14 C22        -9.0820   -2.1430   -8.5480 cu        1 AK8     -0.165000
     15 C24        -8.0510   -3.0750   -8.0370 cu        1 AK8     -0.206000
     16 C1          1.3360    0.6470    0.4100 c2        1 AK8      0.030000
     17 N2          1.7100    1.3860    1.5900 n3        1 AK8     -0.200000
     18 C3         -0.6070    2.1250    1.7660 c3        1 AK8     -0.254000
     19 C2         -0.9220    1.3010    0.5400 c2        1 AK8      0.037000
     20 C9         -2.7600    0.4670   -1.0490 c2        1 AK8      0.158000
     21 O1         -2.0660   -0.6740   -1.4370 os        1 AK8     -0.143000
     22 C11        -2.8640   -1.6470   -2.0940 c2        1 AK8     -0.094000
     23 C16        -3.1820   -1.3880   -3.4580 c2        1 AK8      0.388000
     24 C12        -3.1860   -2.7310   -1.3110 c2        1 AK8      0.118000
     25 C14        -5.0110   -2.5950   -4.8450 c1        1 AK8      0.135000
     26 N5         -5.9440   -3.1220   -5.6340 n         1 AK8     -0.196000
     27 C18        -6.8280   -4.0980   -5.1490 c2        1 AK8      0.340000
     28 O2         -6.8310   -4.5650   -4.0110 o         1 AK8     -0.189000
     29 N6         -7.8620   -4.6680   -6.1100 n4        1 AK8      0.007000
     30 C19        -8.5120   -3.6850   -6.9360 c2        1 AK8     -0.166000
     31 C23        -7.8100   -2.2500   -9.2530 cx        1 AK8      0.069000
     32 C25        -6.7400   -1.1260   -9.1430 c3        1 AK8      0.442000
     33 F2         -5.8490   -1.1420  -10.1770 f         1 AK8     -0.143667
     34 F3         -7.2430    0.1400   -9.0860 f         1 AK8     -0.143667
     35 F1         -5.9570   -1.2480   -8.0110 f         1 AK8     -0.143667
     36 H4          2.6560    1.3710    1.9190 hn        1 AK8      0.297000
     37 H6         -0.8570    3.2150    1.5830 hc        1 AK8      0.196000
     38 H7         -2.9820    2.6930    1.5730 ha        1 AK8      0.174000
     39 H8         -5.1610    3.1170    0.3640 ha        1 AK8      0.206000
     40 H10         4.1470    0.2320   -1.5250 hx        1 AK8      0.163333
     41 H10A        3.9430    1.4090   -0.1330 hx        1 AK8      0.163333
     42 H10B        2.8710    1.5540   -1.6160 hx        1 AK8      0.163333
     43 H13        -3.9850   -4.0730   -2.8170 hc        1 AK8      0.146333
     44 H15        -4.8790   -3.9920   -1.2310 hc        1 AK8      0.146333
     45 H17        -2.1880   -0.6560   -5.2180 hc        1 AK8      0.165333
     46 H17A       -1.6130    0.0800   -3.6440 hc        1 AK8      0.165333
     47 H17B       -3.2230    0.5520   -4.3510 hc        1 AK8      0.165333
     48 H20       -10.6930   -4.0300   -6.7690 hc        1 AK8      0.163000
     49 H21       -10.0580   -2.6940   -5.6880 hc        1 AK8      0.163000
     50 H22       -11.1420   -1.6230   -7.9060 ha        1 AK8      0.223000
     51 H24        -7.7690   -2.7500  -10.2540 hc        1 AK8      0.220000
     52 HN4         1.9940   -0.6760   -1.0670 hn        1 AK8      0.271500
     53 H3         -1.2500    1.7950    2.6370 hc        1 AK8      0.196000
     54 H12        -2.8680   -2.6890   -0.2440 ha        1 AK8      0.184000
     55 HN5        -3.2940   -4.8520   -1.3230 hc        1 AK8      0.146333
     56 HN6        -8.5730   -5.1520   -5.5290 hn        1 AK8      0.294500
     57 N4          2.4170   -0.0960   -0.3260 n4        1 AK8     -0.005000
     58 H52        -6.0600   -2.7200   -6.5600 hn        1 AK8      0.327000
     59 H62        -7.3950   -5.3700   -6.7100 hn        1 AK8      0.294500
     60 H42         2.8890   -0.7230    0.3430 hn        1 AK8      0.271500
@<TRIPOS>BOND
     1    1   16 1   
     2    1   19 1   
     3    2    7 1   
     4    2   20 1   
     5    3   17 1   
     6    3   18 1   
     7    4    5 1   
     8    4   19 1   
     9    4   20 1   
    10    5    6 1   
    11    5   38 1   
    12    6    7 1   
    13    6   39 1   
    14    8   40 1   
    15    8   41 1   
    16    8   42 1   
    17    8   57 1   
    18    9   24 1   
    19    9   43 1   
    20    9   44 1   
    21    9   55 1   
    22   10   23 1   
    23   10   25 1   
    24   11   23 1   
    25   11   45 1   
    26   11   46 1   
    27   11   47 1   
    28   12   13 1   
    29   12   30 1   
    30   12   48 1   
    31   12   49 1   
    32   13   14 1   
    33   13   50 1   
    34   14   15 1   
    35   14   31 1   
    36   15   30 1   
    37   15   31 1   
    38   16   17 1   
    39   16   57 1   
    40   17   36 1   
    41   18   19 1   
    42   18   37 1   
    43   18   53 1   
    44   20   21 1   
    45   21   22 1   
    46   22   23 1   
    47   22   24 1   
    48   24   54 1   
    49   25   26 1   
    50   26   27 1   
    51   26   58 1   
    52   27   28 1   
    53   27   29 1   
    54   29   30 1   
    55   29   56 1   
    56   29   59 1   
    57   31   32 1   
    58   31   51 1   
    59   32   33 1   
    60   32   34 1   
    61   32   35 1   
    62   52   57 1   
    63   57   60 1   
@<TRIPOS>SUBSTRUCTURE
     1 AK8         1 TEMP              0 ****  ****    0 ROOT
