@<TRIPOS>MOLECULE
AKB
   14    12     1     0     0
SMALL
bcc


@<TRIPOS>ATOM
      1 C1         -1.7210    0.1060   -0.5670 c1        1 AKB      0.329000
      2 O1         -2.3540    0.9240    0.1510 o         1 AKB     -0.566000
      3 O2         -2.3460   -0.7400   -1.2590 os        1 AKB     -0.552000
      4 C2         -0.2100    0.1380   -0.5970 c3        1 AKB     -0.180000
      5 C3          0.3220    0.1440    0.8180 c2        1 AKB      0.254000
      6 C4          1.0860   -1.0520    1.3440 c3        1 AKB     -0.280000
      7 O3          0.1340    1.1070    1.5340 o         1 AKB     -0.365000
      8 N4          0.2260    1.3120   -1.2720 n3        1 AKB     -0.327000
      9 H21         0.1230   -0.6510   -1.0670 h1        1 AKB      0.101000
     10 H41         1.3090   -0.9080    2.2870 hc        1 AKB      0.101667
     11 H42         0.5320   -1.8560    1.2580 hc        1 AKB      0.101667
     12 H43         1.9100   -1.1660    0.8260 hc        1 AKB      0.101667
     13 HN41       -0.1510    1.3420   -2.1060 hn        1 AKB      0.140500
     14 HN42        1.1380    1.2990   -1.3490 hn        1 AKB      0.140500
@<TRIPOS>BOND
     1    1    2 1   
     2    1    4 1   
     3    4    5 1   
     4    4    8 1   
     5    4    9 1   
     6    5    6 1   
     7    5    7 1   
     8    6   10 1   
     9    6   11 1   
    10    6   12 1   
    11    8   13 1   
    12    8   14 1   
@<TRIPOS>SUBSTRUCTURE
     1 AKB         1 TEMP              0 ****  ****    0 ROOT
