@<TRIPOS>MOLECULE
AKB
   14    13     1     0     0
SMALL
bcc


@<TRIPOS>ATOM
      1 C1          0.1680   -0.1750   -1.0440 c         1 AKB      0.909600
      2 O1         -0.6810   -0.7180   -1.7990 o         1 AKB     -0.824300
      3 O2          1.4170   -0.2110   -1.2090 o         1 AKB     -0.824300
      4 C2         -0.3700    0.6600    0.1870 c3        1 AKB     -0.082500
      5 C3          0.1490    0.0290    1.4580 c         1 AKB      0.593100
      6 C4          1.6010    0.2650    1.7290 c3        1 AKB     -0.212100
      7 O3         -0.5530   -0.6440    2.2290 o         1 AKB     -0.604100
      8 N4         -1.8060    0.8890    0.1760 n3        1 AKB     -0.894800
      9 H21         0.1150    1.6760    0.0890 h1        1 AKB      0.061700
     10 H41         1.9520   -0.3430    2.5960 hc        1 AKB      0.062367
     11 H42         2.1830   -0.0090    0.8070 hc        1 AKB      0.062367
     12 H43         1.7680    1.3460    1.9480 hc        1 AKB      0.062367
     13 HN41       -2.1430    0.6880   -0.7530 hn        1 AKB      0.345300
     14 HN42       -2.2510    0.2360    0.7970 hn        1 AKB      0.345300
@<TRIPOS>BOND
     1    1    2 1   
     2    1    3 1   
     3    1    4 1   
     4    4    5 1   
     5    4    8 1   
     6    4    9 1   
     7    5    6 1   
     8    5    7 2   
     9    6   10 1   
    10    6   11 1   
    11    6   12 1   
    12    8   13 1   
    13    8   14 1   
@<TRIPOS>SUBSTRUCTURE
     1 AKB         1 TEMP              0 ****  ****    0 ROOT
