@<TRIPOS>MOLECULE
AKD
   31    27     1     0     0
SMALL
bcc


@<TRIPOS>ATOM
      1 OAA        -0.4550   -1.1320   -0.1350 o         1 AKD     -0.812800
      2 OAB         1.2460   -0.4190   -1.3940 o         1 AKD     -0.812800
      3 CAD         3.2050   -0.3290    3.5430 c2        1 AKD     -0.209000
      4 CAE         3.5870   -0.0590    2.2960 ce        1 AKD     -0.131000
      5 CAF         0.7270    0.3310    2.0250 ch        1 AKD      0.013700
      6 CAG         9.2770    0.4100   -1.5320 c3        1 AKD     -0.116300
      7 CAH         6.1750    2.4970   -1.8850 c1        1 AKD      0.207300
      8 CAI         6.0050   -0.5230   -0.3280 c1        1 AKD     -0.311500
      9 CAJ         6.4770    2.4690    1.6070 c3        1 AKD     -0.116300
     10 NAK         6.6090    3.4220   -2.4360 n1        1 AKD     -0.420800
     11 CAM         0.6850   -0.6260   -0.2770 c         1 AKD      0.922800
     12 CAN         0.0560    0.8430    2.8810 c1        1 AKD     -0.153200
     13 CAO         2.8230   -0.4430    1.0990 ce        1 AKD      0.122000
     14 CAP         1.4740   -0.2450    0.9870 cf        1 AKD     -0.091900
     15 CAQ         4.8380   -0.7480   -0.1410 c1        1 AKD      0.033800
     16 HAD         3.7970   -0.0110    4.4110 ha        1 AKD      0.112500
     17 HAE         4.5330    0.4780    2.0960 ha        1 AKD      0.121000
     18 HAF         2.2770   -0.8670    3.7770 ha        1 AKD      0.112500
     19 HAGA        9.4520    0.3000   -0.4390 hc        1 AKD      0.029325
     20 HAH         5.7700    1.6380   -1.3750 ha        1 AKD      0.208500
     21 HAHA       10.1870    0.8300   -2.0130 hc        1 AKD      0.029325
     22 HAI         7.0430   -0.3870   -0.4790 ha        1 AKD      0.164500
     23 HAIA        8.4170    1.0970   -1.7020 hc        1 AKD      0.029325
     24 HAJ         6.4540    1.4240    1.2220 hc        1 AKD      0.029325
     25 HAJA        6.4150    3.1750    0.7500 hc        1 AKD      0.029325
     26 HNAK        7.4220    2.6420    2.1650 hc        1 AKD      0.029325
     27 HAQ         5.6100    2.6310    2.2840 hc        1 AKD      0.029325
     28 BrAC       -0.9280    1.5790    4.1110 br        1 AKD     -0.053800
     29 NAL         3.5520   -1.0880    0.0610 nu        1 AKD     -0.508600
     30 HAG         9.0480   -0.5840   -1.9730 hc        1 AKD      0.029325
     31 HNAL        3.0130   -1.1990   -0.7970 hn        1 AKD      0.483800
@<TRIPOS>BOND
     1    1   11 1   
     2    2   11 1   
     3    3    4 2   
     4    3   16 1   
     5    3   18 1   
     6    4   13 1   
     7    4   17 1   
     8    5   12 3   
     9    5   14 1   
    10    6   19 1   
    11    6   21 1   
    12    6   23 1   
    13    6   30 1   
    14    7   10 3   
    15    7   20 1   
    16    8   15 3   
    17    8   22 1   
    18    9   24 1   
    19    9   25 1   
    20    9   26 1   
    21    9   27 1   
    22   11   14 1   
    23   12   28 1   
    24   13   14 2   
    25   13   29 1   
    26   15   29 1   
    27   29   31 1   
@<TRIPOS>SUBSTRUCTURE
     1 AKD         1 TEMP              0 ****  ****    0 ROOT
