@<TRIPOS>MOLECULE
AKD
   31    27     1     0     0
SMALL
bcc


@<TRIPOS>ATOM
      1 OAA        -0.3540   -0.8230   -0.3420 o         1 AKD     -0.812300
      2 OAB         1.4320   -0.1130   -1.4790 o         1 AKD     -0.812300
      3 CAD         3.2750   -0.8130    3.4530 c2        1 AKD     -0.210000
      4 CAE         3.7150   -0.4510    2.2480 ce        1 AKD     -0.128000
      5 CAF         0.9060    0.2420    2.0000 ch        1 AKD      0.012700
      6 CAG         9.4600    0.3220   -1.2820 c3        1 AKD     -0.111300
      7 CAH         6.3040    2.3360   -1.8440 c1        1 AKD      0.209300
      8 CAI         6.1150   -0.7260   -0.4340 c1        1 AKD     -0.304500
      9 CAJ         5.7350    3.1310    1.7460 c3        1 AKD     -0.111300
     10 NAK         6.8160    3.2660   -2.3140 n1        1 AKD     -0.422800
     11 CAM         0.8290   -0.4100   -0.4050 c         1 AKD      0.922800
     12 CAN         0.2640    0.7060    2.9050 c1        1 AKD     -0.153200
     13 CAO         2.9420   -0.6060    1.0060 ce        1 AKD      0.120000
     14 CAP         1.6210   -0.2680    0.9060 cf        1 AKD     -0.090900
     15 CAQ         4.9360   -0.9000   -0.2660 c1        1 AKD      0.027800
     16 HAD         3.8790   -0.6670    4.3570 ha        1 AKD      0.112500
     17 HAE         4.7210   -0.0120    2.1220 ha        1 AKD      0.120000
     18 HAF         2.2860   -1.2630    3.6150 ha        1 AKD      0.112500
     19 HAGA        9.5130    0.1300   -0.1890 hc        1 AKD      0.027825
     20 HAH         5.8260    1.4720   -1.4130 ha        1 AKD      0.209500
     21 HAHA        8.5990    0.9950   -1.4990 hc        1 AKD      0.027825
     22 HAI         9.3220   -0.6400   -1.8220 hc        1 AKD      0.027825
     23 HAIA        7.1580   -0.6250   -0.5700 ha        1 AKD      0.164500
     24 HAJ         5.1900    2.2520    2.1550 hc        1 AKD      0.027825
     25 HAJA        5.1110    4.0430    1.8680 hc        1 AKD      0.027825
     26 HNAK        5.9410    2.9660    0.6650 hc        1 AKD      0.027825
     27 HAQ         6.6950    3.2620    2.2910 hc        1 AKD      0.027825
     28 BRAC       -0.6770    1.3740    4.2060 br        1 AKD     -0.052800
     29 NAL         3.6310   -1.1860   -0.0970 nh        1 AKD     -0.505600
     30 HAG        10.4020    0.8060   -1.6200 hc        1 AKD      0.027825
     31 HNAL        3.0920   -1.1570   -0.9620 hn        1 AKD      0.480800
@<TRIPOS>BOND
     1    1   11 1   
     2    2   11 1   
     3    3    4 2   
     4    3   16 1   
     5    3   18 1   
     6    4   13 1   
     7    4   17 1   
     8    5   12 3   
     9    5   14 1   
    10    6   19 1   
    11    6   21 1   
    12    6   22 1   
    13    6   30 1   
    14    7   10 3   
    15    7   20 1   
    16    8   15 3   
    17    8   23 1   
    18    9   24 1   
    19    9   25 1   
    20    9   26 1   
    21    9   27 1   
    22   11   14 1   
    23   12   28 1   
    24   13   14 2   
    25   13   29 1   
    26   15   29 1   
    27   29   31 1   
@<TRIPOS>SUBSTRUCTURE
     1 AKD         1 TEMP              0 ****  ****    0 ROOT
