@<TRIPOS>MOLECULE
AKD
   31    29     1     0     0
SMALL
bcc


@<TRIPOS>ATOM
      1 OAA        -3.7100    0.3480    1.4120 o         1 AKD     -0.829300
      2 OAB        -4.3170    0.1050   -0.6570 o         1 AKD     -0.829300
      3 BRAC       -3.1460   -5.2060    0.3260 br        1 AKD     -0.248800
      4 CAD        -0.9770   -3.4330   -0.4150 c1        1 AKD     -0.088000
      5 CAE        -0.3640   -2.2010   -0.6400 c1        1 AKD     -0.088000
      6 CAF        -2.9630   -2.3130    0.3160 c1        1 AKD     -0.001500
      7 CAG         2.9740    1.6140   -0.4250 c3        1 AKD     -0.111400
      8 CAH         2.7700    1.8530    0.8870 c3        1 AKD      0.152800
      9 CAI         1.7190    1.1470   -1.0960 c3        1 AKD     -0.080400
     10 CAJ         0.4630    1.9540    0.7200 c3        1 AKD      0.094800
     11 NAK         1.6980    2.4080    1.3970 n3        1 AKD     -0.795200
     12 NAL        -0.4430    0.2370   -0.6960 n3        1 AKD     -0.681800
     13 CAM        -3.5430   -0.1830    0.3160 c         1 AKD      0.860800
     14 CAN        -2.2740   -3.4850    0.0620 c1        1 AKD      0.028800
     15 CAO        -1.0500   -1.0330   -0.3870 c1        1 AKD      0.123800
     16 CAP        -2.3480   -1.0830    0.0900 cg        1 AKD     -0.118200
     17 CAQ         0.6560    0.6020   -0.0880 c3        1 AKD      0.169500
     18 HAD        -0.4880   -4.2650   -0.5950 ha        1 AKD      0.062000
     19 HAE         0.5330   -2.1660   -0.9710 ha        1 AKD      0.062000
     20 HAF        -3.8160   -2.3470    0.7280 ha        1 AKD      0.108500
     21 HAG         3.6390    0.9500   -0.5190 hc        1 AKD      0.029700
     22 HAGA        3.2760    2.4260   -0.8480 hc        1 AKD      0.029700
     23 HAH         3.5600    2.4310    1.1930 h1        1 AKD      0.037200
     24 HAHA        2.8660    0.9650    1.3490 h1        1 AKD      0.037200
     25 HAI         1.9550    0.4050   -1.7550 hc        1 AKD      0.046700
     26 HAIA        1.3250    1.9020   -1.5960 hc        1 AKD      0.046700
     27 HAJ        -0.2160    1.8260    1.3700 h1        1 AKD      0.084200
     28 HAJA        0.1610    2.6770    0.0720 h1        1 AKD      0.084200
     29 HNAK        1.7610    3.2940    1.3400 hn        1 AKD      0.348800
     30 HNAL       -0.7290    0.6950   -1.3750 hn        1 AKD      0.423800
     31 HAQ         1.0290   -0.1250    0.4880 h1        1 AKD      0.040700
@<TRIPOS>BOND
     1    1   13 1   
     2    2   13 1   
     3    3   14 1   
     4    4    5 3   
     5    4   18 1   
     6    5   19 1   
     7    6   14 3   
     8    6   20 1   
     9    7    8 1   
    10    7    9 1   
    11    7   21 1   
    12    7   22 1   
    13    8   11 1   
    14    8   23 1   
    15    8   24 1   
    16    9   17 1   
    17    9   25 1   
    18    9   26 1   
    19   10   11 1   
    20   10   17 1   
    21   10   27 1   
    22   10   28 1   
    23   11   29 1   
    24   12   15 1   
    25   12   17 1   
    26   12   30 1   
    27   13   16 1   
    28   15   16 3   
    29   17   31 1   
@<TRIPOS>SUBSTRUCTURE
     1 AKD         1 TEMP              0 ****  ****    0 ROOT
