@<TRIPOS>MOLECULE
AKD
   31    32     1     0     0
SMALL
bcc


@<TRIPOS>ATOM
      1 OAA         0.9120    3.5500   -0.2710 o         1 AKD     -0.829800
      2 OAB        -1.1960    2.9300   -0.6360 o         1 AKD     -0.829800
      3 CAD         1.2890   -1.4170    0.2850 ca        1 AKD     -0.097000
      4 CAE        -0.0330   -1.0890    0.5570 ca        1 AKD     -0.216000
      5 CAF         1.7330    0.8790   -0.3060 ca        1 AKD     -0.052000
      6 CAG        -5.3400   -0.7620    0.8610 c3        1 AKD     -0.111400
      7 CAH        -5.4080   -1.1940   -0.6050 c3        1 AKD      0.149800
      8 CAI        -4.2240    0.2360    1.0780 c3        1 AKD     -0.083400
      9 CAJ        -3.0630   -0.7340   -0.9200 c3        1 AKD      0.105800
     10 NAK        -4.1540   -1.6580   -1.1670 n3        1 AKD     -0.793200
     11 CAM         0.0080    2.6730   -0.3330 c         1 AKD      0.915200
     12 CAN         2.1800   -0.4340   -0.1410 ca        1 AKD     -0.078900
     13 CAO        -0.5030    0.2380    0.4110 ca        1 AKD      0.177600
     14 CAP         0.4070    1.2270   -0.0570 ca        1 AKD     -0.176600
     15 CAQ        -2.8840   -0.3310    0.5740 c3        1 AKD      0.174500
     16 HAD         1.6220   -2.4580    0.4110 ha        1 AKD      0.117000
     17 HAE        -0.7090   -1.8860    0.8980 ha        1 AKD      0.114000
     18 HAF         2.4150    1.6820   -0.6380 ha        1 AKD      0.167000
     19 HAGA       -5.1800   -1.6590    1.5140 hc        1 AKD      0.033700
     20 HAH        -6.1720   -2.0120   -0.7170 h1        1 AKD      0.043200
     21 HAHA       -5.7470   -0.3150   -1.2230 h1        1 AKD      0.043200
     22 HAI        -4.4580    1.1870    0.5300 hc        1 AKD      0.053200
     23 HAIA       -4.1460    0.4830    2.1680 hc        1 AKD      0.053200
     24 HAJ        -2.1090   -1.2060   -1.2860 h1        1 AKD      0.071200
     25 HAJA       -3.2480    0.1960   -1.5270 h1        1 AKD      0.071200
     26 HNAK       -3.9250   -2.5540   -0.7710 hn        1 AKD      0.336800
     27 HAQ        -2.6680   -1.2720    1.1650 h1        1 AKD      0.036700
     28 BRAC        3.9710   -0.8830   -0.4960 br        1 AKD     -0.157100
     29 NAL        -1.7980    0.5970    0.8210 nh        1 AKD     -0.721600
     30 HAG        -6.3190   -0.3030    1.1530 hc        1 AKD      0.033700
     31 HNAL       -2.0360    1.5420    0.5460 hn        1 AKD      0.450800
@<TRIPOS>BOND
     1    1   11 1   
     2    2   11 1   
     3    3    4 ar  
     4    3   12 ar  
     5    3   16 1   
     6    4   13 ar  
     7    4   17 1   
     8    5   12 ar  
     9    5   14 ar  
    10    5   18 1   
    11    6    7 1   
    12    6    8 1   
    13    6   19 1   
    14    6   30 1   
    15    7   10 1   
    16    7   20 1   
    17    7   21 1   
    18    8   15 1   
    19    8   22 1   
    20    8   23 1   
    21    9   10 1   
    22    9   15 1   
    23    9   24 1   
    24    9   25 1   
    25   10   26 1   
    26   11   14 1   
    27   12   28 1   
    28   13   14 ar  
    29   13   29 1   
    30   15   27 1   
    31   15   29 1   
    32   29   31 1   
@<TRIPOS>SUBSTRUCTURE
     1 AKD         1 TEMP              0 ****  ****    0 ROOT
