@<TRIPOS>MOLECULE
AKD
   32    29     1     0     0
SMALL
bcc


@<TRIPOS>ATOM
      1 OAA         3.8900   -0.1370   -0.7160 o         1 AKD     -0.518000
      2 OAB         5.6700    0.9200    0.1340 os        1 AKD     -0.534700
      3 CAD         4.3110   -0.6460    5.0320 c1        1 AKD     -0.114500
      4 CAE         4.6130   -0.1060    4.0090 c1        1 AKD     -0.155100
      5 CAF         2.7100    0.0950    1.9530 c1        1 AKD      0.093200
      6 CAG         5.7860   -2.6480   -3.7620 c2        1 AKD     -0.225000
      7 CAH         6.2490    0.9650   -1.1550 c2        1 AKD      0.621500
      8 CAI         5.1220   -1.5200   -3.5470 c2        1 AKD     -0.225000
      9 CAJ         4.4560    4.0930    3.3350 c2        1 AKD     -0.302000
     10 NAK         7.3540    1.5630   -1.3330 n2        1 AKD     -0.780100
     11 CAM         4.4440    0.3110    0.2870 c         1 AKD      0.664300
     12 CAN         1.4590   -0.1160    2.2240 c2        1 AKD     -0.129400
     13 CAO         5.0330    0.5140    2.7670 c3        1 AKD      0.346800
     14 CAP         3.9760    0.2950    1.6870 ce        1 AKD     -0.198500
     15 CAQ         4.5810    2.7810    3.5910 c2        1 AKD      0.022000
     16 HAD         5.9700   -0.0330    2.4130 h1        1 AKD      0.095700
     17 HAE         4.0420   -1.1280    5.9380 ha        1 AKD      0.170500
     18 HAF         1.0600   -1.1320    2.3740 h4        1 AKD      0.185000
     19 HAH         7.7950    1.9950   -0.5500 hn        1 AKD      0.410400
     20 HAHA        3.6290    0.7340   -3.0440 ha        1 AKD      0.001000
     21 HAI         5.2190   -0.6420   -4.2000 ha        1 AKD      0.112750
     22 HAIA        5.6850    0.4530   -1.9620 h5        1 AKD      0.083800
     23 HAJ         3.0540    0.9400   -2.7510 ha        1 AKD      0.001000
     24 HAJA        4.0470    2.3130    4.4420 h4        1 AKD      0.143000
     25 HNAK        3.8450    4.7330    3.9810 ha        1 AKD      0.119500
     26 HAQ         4.9560    4.6040    2.5040 ha        1 AKD      0.119500
     27 NAL         5.4400    1.9030    2.9160 nh        1 AKD     -0.713000
     28 HAG         5.6860   -3.5280   -3.1130 ha        1 AKD      0.112750
     29 HNAL        5.7930    2.2650    2.0500 hn        1 AKD      0.401800
     30 HAL2        4.4240   -1.3880   -2.7060 ha        1 AKD      0.112750
     31 BRAC        0.1820    1.2210    2.3970 br        1 AKD     -0.035700
     32 HAGA        6.4790   -2.7780   -4.6040 ha        1 AKD      0.112750
@<TRIPOS>BOND
     1    1   11 2   
     2    2    7 1   
     3    2   11 1   
     4    3    4 3   
     5    3   17 1   
     6    4   13 1   
     7    5   12 2   
     8    5   14 2   
     9    6    8 2   
    10    6   28 1   
    11    6   32 1   
    12    7   10 2   
    13    7   22 1   
    14    8   21 1   
    15    8   30 1   
    16    9   15 2   
    17    9   25 1   
    18    9   26 1   
    19   10   19 1   
    20   11   14 1   
    21   12   18 1   
    22   12   31 1   
    23   13   14 1   
    24   13   16 1   
    25   13   27 1   
    26   15   24 1   
    27   15   27 1   
    28   20   23 1   
    29   27   29 1   
@<TRIPOS>SUBSTRUCTURE
     1 AKD         1 TEMP              0 ****  ****    0 ROOT
