@<TRIPOS>MOLECULE
AKE
   62    64     1     0     0
SMALL
bcc


@<TRIPOS>ATOM
      1 O01         0.0180   -0.4370    0.0350 o         1 AKE     -0.574100
      2 C02         1.2460   -0.2300    0.0650 c         1 AKE      0.612300
      3 C03         1.9800   -0.0850    1.3070 ca        1 AKE     -0.168600
      4 C04         1.2930   -0.1790    2.5210 ca        1 AKE     -0.013000
      5 C05         1.9860   -0.0410    3.7380 ca        1 AKE     -0.063000
      6 C06         3.3540    0.1880    3.7380 ca        1 AKE     -0.063000
      7 C07         4.0540    0.2840    2.5210 ca        1 AKE     -0.013000
      8 C08         3.3750    0.1490    1.3070 ca        1 AKE     -0.168600
      9 C09         4.1160    0.2510    0.0650 c         1 AKE      0.612300
     10 O10         5.3430    0.4570    0.0350 o         1 AKE     -0.574100
     11 C11         3.3780    0.1040   -1.2450 ca        1 AKE     -0.068600
     12 C12         4.0740    0.1980   -2.4880 ca        1 AKE      0.038600
     13 N13         5.5290    0.4420   -2.4790 n4        1 AKE     -0.645400
     14 C14         6.2320    0.5350   -3.7910 c3        1 AKE      0.083800
     15 C15         7.7470    0.8050   -3.5780 c3        1 AKE      0.076800
     16 N16         8.5020    0.9290   -4.8480 n4        1 AKE     -0.763000
     17 C17         9.9550    1.2760   -4.6110 c3        1 AKE      0.100800
     18 C18        10.6640    1.5930   -5.9390 c3        1 AKE      0.110400
     19 O19         9.8440    2.5190   -6.6250 oh        1 AKE     -0.654800
     20 C20         3.3800    0.0610   -3.6950 ca        1 AKE     -0.075000
     21 C21         2.0030   -0.1690   -3.6950 ca        1 AKE     -0.075000
     22 C22         1.3020   -0.2650   -2.4880 ca        1 AKE      0.038600
     23 N23        -0.1530   -0.5090   -2.4800 n4        1 AKE     -0.645400
     24 C24        -0.8480   -0.6470   -3.7910 c3        1 AKE      0.083800
     25 C25        -2.3640   -0.9090   -3.5780 c3        1 AKE      0.076800
     26 N26        -3.1120   -1.0780   -4.8470 n4        1 AKE     -0.763000
     27 C27        -4.5660   -1.4160   -4.6060 c3        1 AKE      0.100800
     28 C28        -5.2670   -1.7790   -5.9280 c3        1 AKE      0.110400
     29 O29        -4.4430   -2.7280   -6.5750 oh        1 AKE     -0.654800
     30 C30         1.9910   -0.1280   -1.2450 ca        1 AKE     -0.068600
     31 H1          0.2030   -0.3620    2.5280 ha        1 AKE      0.187000
     32 H2          1.4290   -0.1180    4.6930 ha        1 AKE      0.203000
     33 H3          3.9050    0.2980    4.6930 ha        1 AKE      0.203000
     34 H4          5.1450    0.4670    2.5280 ha        1 AKE      0.187000
     35 H5          5.6840    1.3200   -1.9380 hn        1 AKE      0.498800
     36 H6          6.0850   -0.4380   -4.3450 hx        1 AKE      0.127700
     37 H7          5.7700    1.3770   -4.3860 hx        1 AKE      0.127700
     38 H8          7.8900    1.7680   -2.9990 hx        1 AKE      0.136700
     39 H9          8.2140   -0.0370   -2.9820 hx        1 AKE      0.136700
     40 H10         8.4600    0.0540   -5.3850 hn        1 AKE      0.476300
     41 H12        10.4600    0.4050   -4.1050 hx        1 AKE      0.125700
     42 H13         9.9850    2.1830   -3.9410 hx        1 AKE      0.125700
     43 H14        11.6770    2.0150   -5.6920 h1        1 AKE      0.103700
     44 H15        10.7860    0.6680   -6.5670 h1        1 AKE      0.103700
     45 H16        10.4070    3.0710   -7.1900 ho        1 AKE      0.484000
     46 H17         3.8830    0.1270   -4.6770 ha        1 AKE      0.187000
     47 H18         1.5060   -0.2690   -4.6780 ha        1 AKE      0.187000
     48 H19        -0.3110   -1.3680   -1.9090 hn        1 AKE      0.498800
     49 H20        -0.6980    0.3060   -4.3780 hx        1 AKE      0.127700
     50 H21        -0.3820   -1.5100   -4.3540 hx        1 AKE      0.127700
     51 H22        -2.5110   -1.8520   -2.9670 hx        1 AKE      0.136700
     52 H23        -2.8340   -0.0470   -3.0140 hx        1 AKE      0.136700
     53 H24        -3.0660   -0.2220   -5.4140 hn        1 AKE      0.476300
     54 H26        -4.6000   -2.2990   -3.9060 hx        1 AKE      0.125700
     55 H27        -5.0740   -0.5280   -4.1350 hx        1 AKE      0.125700
     56 H28        -6.2820   -2.1920   -5.6710 h1        1 AKE      0.103700
     57 H29        -5.3850   -0.8770   -6.5880 h1        1 AKE      0.103700
     58 H30        -5.0030   -3.3000   -7.1240 ho        1 AKE      0.484000
     59 H132        5.9590   -0.3170   -1.9070 hn        1 AKE      0.498800
     60 H162        8.1090    1.6850   -5.4390 hn        1 AKE      0.476300
     61 H232       -0.5860    0.2690   -1.9360 hn        1 AKE      0.498800
     62 H262       -2.7160   -1.8530   -5.4090 hn        1 AKE      0.476300
@<TRIPOS>BOND
     1    1    2 2   
     2    2    3 1   
     3    2   30 1   
     4    3    4 ar  
     5    3    8 ar  
     6    4    5 ar  
     7    4   31 1   
     8    5    6 ar  
     9    5   32 1   
    10    6    7 ar  
    11    6   33 1   
    12    7    8 ar  
    13    7   34 1   
    14    8    9 1   
    15    9   10 2   
    16    9   11 1   
    17   11   12 ar  
    18   11   30 ar  
    19   12   13 1   
    20   12   20 ar  
    21   13   14 1   
    22   13   35 1   
    23   13   59 1   
    24   14   15 1   
    25   14   36 1   
    26   14   37 1   
    27   15   16 1   
    28   15   38 1   
    29   15   39 1   
    30   16   17 1   
    31   16   40 1   
    32   16   60 1   
    33   17   18 1   
    34   17   41 1   
    35   17   42 1   
    36   18   19 1   
    37   18   43 1   
    38   18   44 1   
    39   19   45 1   
    40   20   21 ar  
    41   20   46 1   
    42   21   22 ar  
    43   21   47 1   
    44   22   23 1   
    45   22   30 ar  
    46   23   24 1   
    47   23   48 1   
    48   23   61 1   
    49   24   25 1   
    50   24   49 1   
    51   24   50 1   
    52   25   26 1   
    53   25   51 1   
    54   25   52 1   
    55   26   27 1   
    56   26   53 1   
    57   26   62 1   
    58   27   28 1   
    59   27   54 1   
    60   27   55 1   
    61   28   29 1   
    62   28   56 1   
    63   28   57 1   
    64   29   58 1   
@<TRIPOS>SUBSTRUCTURE
     1 AKE         1 TEMP              0 ****  ****    0 ROOT
