@<TRIPOS>MOLECULE
AKE
   60    62     1     0     0
SMALL
bcc


@<TRIPOS>ATOM
      1 O01        -0.1770   -0.2620   -0.8200 o         1 AKE     -0.555100
      2 C02         1.0530   -0.1760   -0.6770 c         1 AKE      0.602800
      3 C03         1.6630    0.0790    0.6350 ca        1 AKE     -0.140100
      4 C04         0.9840   -0.2410    1.8130 ca        1 AKE     -0.072000
      5 C05         1.5780    0.0210    3.0510 ca        1 AKE     -0.098500
      6 C06         2.8340    0.6180    3.1130 ca        1 AKE     -0.098500
      7 C07         3.5100    0.9590    1.9370 ca        1 AKE     -0.072000
      8 C08         2.9320    0.6800    0.6980 ca        1 AKE     -0.140100
      9 C09         3.6260    1.0440   -0.5510 c         1 AKE      0.602800
     10 O10         4.4540    1.9670   -0.5770 o         1 AKE     -0.555100
     11 C11         3.2670    0.2540   -1.7580 ca        1 AKE     -0.137600
     12 C12         4.1860    0.0860   -2.8320 ca        1 AKE      0.138600
     13 N13         5.5050    0.5410   -2.7210 nh        1 AKE     -0.717600
     14 C14         6.3730    0.5330   -3.8670 c3        1 AKE      0.167800
     15 C15         7.7850    1.0310   -3.4680 c3        1 AKE      0.090300
     16 N16         8.7480    0.9240   -4.5970 n4        1 AKE     -0.755500
     17 C17        10.1050    1.4320   -4.2260 c3        1 AKE      0.098300
     18 C18        11.0760    1.3860   -5.4140 c3        1 AKE      0.108400
     19 O19        10.4230    2.0080   -6.5050 oh        1 AKE     -0.635800
     20 C20         3.7570   -0.6320   -3.9760 ca        1 AKE     -0.117000
     21 C21         2.5000   -1.2020   -4.0350 ca        1 AKE     -0.117000
     22 C22         1.5960   -1.0810   -2.9590 ca        1 AKE      0.138600
     23 N23         0.3630   -1.7990   -3.0510 nh        1 AKE     -0.717600
     24 C24        -0.7200   -1.0190   -3.6320 c3        1 AKE      0.167800
     25 C25        -2.0170   -1.8580   -3.6720 c3        1 AKE      0.090300
     26 N26        -3.1880   -1.0330   -4.0820 n4        1 AKE     -0.755500
     27 C27        -4.4500   -1.8320   -4.1220 c3        1 AKE      0.098300
     28 C28        -5.6390   -1.0010   -4.6250 c3        1 AKE      0.108400
     29 O29        -5.2310   -0.3910   -5.8350 oh        1 AKE     -0.635800
     30 C30         1.9890   -0.3340   -1.8270 ca        1 AKE     -0.137600
     31 H1         -0.0200   -0.6920    1.7580 ha        1 AKE      0.160000
     32 H2          1.0440   -0.2410    3.9790 ha        1 AKE      0.161000
     33 H3          3.2980    0.8320    4.0900 ha        1 AKE      0.161000
     34 H4          4.4930    1.4560    1.9800 ha        1 AKE      0.160000
     35 H5          5.6350    1.3270   -2.1130 hn        1 AKE      0.420800
     36 H6          5.9800    1.1810   -4.7060 h1        1 AKE      0.060950
     37 H7          6.4490   -0.5280   -4.2480 h1        1 AKE      0.060950
     38 H8          8.1850    0.4190   -2.6070 hx        1 AKE      0.116700
     39 H9          7.7390    2.1130   -3.1490 hx        1 AKE      0.116700
     40 H10         8.4120    1.4740   -5.4040 hn        1 AKE      0.462300
     41 H12        10.5110    0.8040   -3.3830 hx        1 AKE      0.115700
     42 H13         9.9870    2.4980   -3.8760 hx        1 AKE      0.115700
     43 H14        11.3290    0.3260   -5.6900 h1        1 AKE      0.080200
     44 H15        12.0140    1.9290   -5.1170 h1        1 AKE      0.080200
     45 H16        11.0980    2.3610   -7.1000 ho        1 AKE      0.459500
     46 H17         4.4230   -0.7560   -4.8440 ha        1 AKE      0.150000
     47 H18         2.2080   -1.7720   -4.9350 ha        1 AKE      0.150000
     48 H19         0.0940   -2.1310   -2.1380 hn        1 AKE      0.420800
     49 H20        -0.4190   -0.7430   -4.6820 h1        1 AKE      0.060950
     50 H21        -0.9120   -0.0660   -3.0530 h1        1 AKE      0.060950
     51 H22        -2.2420   -2.2890   -2.6540 hx        1 AKE      0.116700
     52 H23        -1.9060   -2.7050   -4.4080 hx        1 AKE      0.116700
     53 H24        -3.3030   -0.2480   -3.4290 hn        1 AKE      0.462300
     54 H26        -4.6710   -2.2150   -3.0870 hx        1 AKE      0.115700
     55 H27        -4.2800   -2.7050   -4.8160 hx        1 AKE      0.115700
     56 H28        -6.5080   -1.6960   -4.7770 h1        1 AKE      0.080200
     57 H29        -5.9200   -0.2050   -3.8830 h1        1 AKE      0.080200
     58 H30        -6.0230   -0.1870   -6.3510 ho        1 AKE      0.459500
     59 H162        8.8240   -0.0540   -4.8990 hn        1 AKE      0.462300
     60 H262       -3.0300   -0.6360   -5.0210 hn        1 AKE      0.462300
@<TRIPOS>BOND
     1    1    2 2   
     2    2    3 1   
     3    2   30 1   
     4    3    4 ar  
     5    3    8 ar  
     6    4    5 ar  
     7    4   31 1   
     8    5    6 ar  
     9    5   32 1   
    10    6    7 ar  
    11    6   33 1   
    12    7    8 ar  
    13    7   34 1   
    14    8    9 1   
    15    9   10 2   
    16    9   11 1   
    17   11   12 ar  
    18   11   30 ar  
    19   12   13 1   
    20   12   20 ar  
    21   13   14 1   
    22   13   35 1   
    23   14   15 1   
    24   14   36 1   
    25   14   37 1   
    26   15   16 1   
    27   15   38 1   
    28   15   39 1   
    29   16   17 1   
    30   16   40 1   
    31   16   59 1   
    32   17   18 1   
    33   17   41 1   
    34   17   42 1   
    35   18   19 1   
    36   18   43 1   
    37   18   44 1   
    38   19   45 1   
    39   20   21 ar  
    40   20   46 1   
    41   21   22 ar  
    42   21   47 1   
    43   22   23 1   
    44   22   30 ar  
    45   23   24 1   
    46   23   48 1   
    47   24   25 1   
    48   24   49 1   
    49   24   50 1   
    50   25   26 1   
    51   25   51 1   
    52   25   52 1   
    53   26   27 1   
    54   26   53 1   
    55   26   60 1   
    56   27   28 1   
    57   27   54 1   
    58   27   55 1   
    59   28   29 1   
    60   28   56 1   
    61   28   57 1   
    62   29   58 1   
@<TRIPOS>SUBSTRUCTURE
     1 AKE         1 TEMP              0 ****  ****    0 ROOT
