@<TRIPOS>MOLECULE
AKE
   58    60     1     0     0
SMALL
bcc


@<TRIPOS>ATOM
      1 O01        -2.4690    2.2420   -1.1190 o         1 AKE     -0.550100
      2 C02        -1.3830    2.2270   -0.5200 c         1 AKE      0.600300
      3 C03        -0.6910    3.4920   -0.1900 ca        1 AKE     -0.127600
      4 C04        -1.4070    4.6700    0.0340 ca        1 AKE     -0.086000
      5 C05        -0.7240    5.8470    0.3440 ca        1 AKE     -0.119000
      6 C06         0.6690    5.8540    0.4090 ca        1 AKE     -0.119000
      7 C07         1.3900    4.6840    0.1650 ca        1 AKE     -0.086000
      8 C08         0.7090    3.4990   -0.1240 ca        1 AKE     -0.127600
      9 C09         1.4410    2.2410   -0.3880 c         1 AKE      0.600300
     10 O10         2.5780    2.2660   -0.8830 o         1 AKE     -0.550100
     11 C11         0.7250    0.9950   -0.0320 ca        1 AKE     -0.171600
     12 C12         1.4370   -0.1600    0.3660 ca        1 AKE      0.174100
     13 N13         2.8190   -0.1570    0.5630 nh        1 AKE     -0.739600
     14 C14         3.5300   -1.4150    0.5370 c3        1 AKE      0.188300
     15 C15         5.0510   -1.2150    0.3480 c3        1 AKE      0.151300
     16 N16         5.7600   -2.4780    0.3840 n3        1 AKE     -0.821200
     17 C17         7.1840   -2.3260    0.1590 c3        1 AKE      0.164800
     18 C18         7.8940   -3.6630   -0.0790 c3        1 AKE      0.123400
     19 O19         7.4330   -4.1690   -1.3210 oh        1 AKE     -0.608800
     20 C20         0.6800   -1.3270    0.6760 ca        1 AKE     -0.137500
     21 C21        -0.6900   -1.3340    0.6120 ca        1 AKE     -0.137500
     22 C22        -1.4260   -0.1740    0.2320 ca        1 AKE      0.174100
     23 N23        -2.8210   -0.1850    0.3000 nh        1 AKE     -0.739600
     24 C24        -3.5130   -1.4500    0.1950 c3        1 AKE      0.188300
     25 C25        -4.9960   -1.2680   -0.1980 c3        1 AKE      0.151300
     26 N26        -5.6820   -2.5410   -0.2840 n3        1 AKE     -0.821200
     27 C27        -7.0900   -2.3970   -0.5990 c3        1 AKE      0.164800
     28 C28        -7.8750   -3.7020   -0.4220 c3        1 AKE      0.123400
     29 O29        -7.8950   -3.9950    0.9660 oh        1 AKE     -0.608800
     30 C30        -0.6910    0.9880   -0.0990 ca        1 AKE     -0.171600
     31 H1         -2.5060    4.6590   -0.0410 ha        1 AKE      0.154000
     32 H2         -1.2890    6.7730    0.5300 ha        1 AKE      0.139000
     33 H3          1.2040    6.7850    0.6470 ha        1 AKE      0.139000
     34 H4          2.4910    4.6830    0.1930 ha        1 AKE      0.154000
     35 H5          3.3120    0.5950    0.1240 hn        1 AKE      0.429800
     36 H6          3.3480   -1.9360    1.5200 h1        1 AKE      0.046200
     37 H7          3.1440   -2.0850   -0.2860 h1        1 AKE      0.046200
     38 H8          5.2300   -0.6510   -0.6160 h1        1 AKE      0.039700
     39 H9          5.4490   -0.5780    1.1890 h1        1 AKE      0.039700
     40 H10         5.3730   -3.1230   -0.2820 hn        1 AKE      0.370300
     41 H12         7.4100   -1.6520   -0.7200 h1        1 AKE      0.040950
     42 H13         7.6290   -1.8550    1.0800 h1        1 AKE      0.040950
     43 H14         9.0020   -3.4830   -0.1290 h1        1 AKE      0.032700
     44 H15         7.6750   -4.3930    0.7440 h1        1 AKE      0.032700
     45 H16         7.8290   -5.0410   -1.4310 ho        1 AKE      0.404000
     46 H17         1.1980   -2.2500    0.9840 ha        1 AKE      0.143000
     47 H18        -1.2250   -2.2620    0.8710 ha        1 AKE      0.143000
     48 H19        -3.2760    0.5650   -0.1790 hn        1 AKE      0.429800
     49 H20        -3.0180   -2.1300   -0.5580 h1        1 AKE      0.046200
     50 H21        -3.4550   -1.9540    1.2030 h1        1 AKE      0.046200
     51 H22        -5.4870   -0.5650    0.5390 h1        1 AKE      0.039700
     52 H23        -5.0540   -0.7830   -1.2140 h1        1 AKE      0.039700
     53 H24        -5.5720   -3.0620    0.5690 hn        1 AKE      0.370300
     54 H26        -7.5910   -1.6020    0.0290 h1        1 AKE      0.040950
     55 H27        -7.1700   -2.0870   -1.6790 h1        1 AKE      0.040950
     56 H28        -8.9230   -3.5490   -0.7940 h1        1 AKE      0.032700
     57 H29        -7.4000   -4.5440   -0.9910 h1        1 AKE      0.032700
     58 H30        -8.3250   -4.8520    1.0630 ho        1 AKE      0.404000
@<TRIPOS>BOND
     1    1    2 2   
     2    2    3 1   
     3    2   30 1   
     4    3    4 ar  
     5    3    8 ar  
     6    4    5 ar  
     7    4   31 1   
     8    5    6 ar  
     9    5   32 1   
    10    6    7 ar  
    11    6   33 1   
    12    7    8 ar  
    13    7   34 1   
    14    8    9 1   
    15    9   10 2   
    16    9   11 1   
    17   11   12 ar  
    18   11   30 ar  
    19   12   13 1   
    20   12   20 ar  
    21   13   14 1   
    22   13   35 1   
    23   14   15 1   
    24   14   36 1   
    25   14   37 1   
    26   15   16 1   
    27   15   38 1   
    28   15   39 1   
    29   16   17 1   
    30   16   40 1   
    31   17   18 1   
    32   17   41 1   
    33   17   42 1   
    34   18   19 1   
    35   18   43 1   
    36   18   44 1   
    37   19   45 1   
    38   20   21 ar  
    39   20   46 1   
    40   21   22 ar  
    41   21   47 1   
    42   22   23 1   
    43   22   30 ar  
    44   23   24 1   
    45   23   48 1   
    46   24   25 1   
    47   24   49 1   
    48   24   50 1   
    49   25   26 1   
    50   25   51 1   
    51   25   52 1   
    52   26   27 1   
    53   26   53 1   
    54   27   28 1   
    55   27   54 1   
    56   27   55 1   
    57   28   29 1   
    58   28   56 1   
    59   28   57 1   
    60   29   58 1   
@<TRIPOS>SUBSTRUCTURE
     1 AKE         1 TEMP              0 ****  ****    0 ROOT
