@<TRIPOS>MOLECULE
AKE
   58    52     1     0     0
SMALL
bcc


@<TRIPOS>ATOM
      1 O01        -2.6200   -0.2250    2.3250 o         1 AKE     -0.308000
      2 C02        -1.4100   -0.1460    2.3210 c1        1 AKE      0.320000
      3 C03        -0.6360   -0.1230    3.6530 c2        1 AKE     -0.108000
      4 C04        -1.3330   -0.1420    4.8720 c2        1 AKE     -0.086000
      5 C05        -0.6350   -0.1220    6.0730 c1        1 AKE     -0.119000
      6 C06         0.7580   -0.0820    6.0700 c1        1 AKE     -0.103000
      7 C07         1.4520   -0.0620    4.8640 c1        1 AKE     -0.103000
      8 C08         0.7480   -0.0830    3.6490 c1        1 AKE     -0.107000
      9 C09         1.5130   -0.0610    2.3140 c1        1 AKE      0.315000
     10 O10         2.7190    0.0530    2.3090 o         1 AKE     -0.314000
     11 C11         0.7390   -0.0850    0.9860 c1        1 AKE     -0.160000
     12 C12         1.4400   -0.1000   -0.2400 c1        1 AKE      0.107000
     13 N13         2.8750    0.0970   -0.2060 n3        1 AKE     -0.303000
     14 C14         3.7200   -0.5290   -1.2120 c3        1 AKE     -0.042000
     15 C15         5.1790   -0.0240   -1.0490 c3        1 AKE     -0.086000
     16 N16         6.0470   -0.7730   -1.9180 n3        1 AKE     -0.300000
     17 C17         7.2820   -0.0450   -2.1100 c3        1 AKE     -0.080000
     18 C18         8.1710   -0.8000   -3.0950 c3        1 AKE     -0.021000
     19 O19         9.3140   -0.0360   -3.3740 oh        1 AKE     -0.329000
     20 C20         0.7330   -0.1120   -1.4510 c1        1 AKE     -0.145000
     21 C21        -0.6680   -0.1100   -1.4440 c1        1 AKE     -0.129000
     22 C22        -1.3620   -0.0950   -0.2310 c1        1 AKE      0.082000
     23 N23        -2.7990   -0.2760   -0.1070 n2        1 AKE     -0.291000
     24 C24        -3.6880    0.2880   -1.0980 c3        1 AKE     -0.050000
     25 C25        -5.1680   -0.0270   -0.7090 c3        1 AKE     -0.085000
     26 N26        -6.0540    0.8560   -1.4310 n3        1 AKE     -0.301000
     27 C27        -7.4230    0.3790   -1.3080 c3        1 AKE     -0.080000
     28 C28        -8.3410    1.1720   -2.2870 c3        1 AKE     -0.022000
     29 O29        -9.6090    0.5300   -2.3730 oh        1 AKE     -0.329000
     30 C30        -0.6500   -0.0820    0.9920 c1        1 AKE     -0.145000
     31 H1         -2.3020   -0.1700    4.8740 ha        1 AKE      0.154000
     32 H2         -1.1260   -0.1350    6.9290 ha        1 AKE      0.140000
     33 H3          1.2520   -0.0670    6.9220 ha        1 AKE      0.147500
     34 H4          2.4320   -0.0350    4.8620 ha        1 AKE      0.147500
     35 H5          3.2500    0.5720    0.4680 hn        1 AKE      0.238000
     36 H6          3.3900   -0.2960   -2.1080 h1        1 AKE      0.084500
     37 H7          3.6970   -1.4990   -1.0990 h1        1 AKE      0.084500
     38 H8          5.2240    0.9280   -1.2840 h1        1 AKE      0.081000
     39 H9          5.4660   -0.1460   -0.1160 h1        1 AKE      0.081000
     40 H10         6.2290   -1.5850   -1.5390 hn        1 AKE      0.150000
     41 H12         7.7520    0.0430   -1.2430 h1        1 AKE      0.087000
     42 H13         7.0840    0.8470   -2.4660 h1        1 AKE      0.087000
     43 H14         8.4400   -1.6570   -2.7020 h1        1 AKE      0.067500
     44 H15         7.6750   -0.9620   -3.9260 h1        1 AKE      0.067500
     45 H16         9.8540   -0.4940   -3.9130 ho        1 AKE      0.203000
     46 H17         1.2170   -0.1230   -2.3000 ha        1 AKE      0.143000
     47 H18        -1.1580   -0.1180   -2.2840 ha        1 AKE      0.143000
     48 H19        -3.1390   -0.7130    0.6070 hn        1 AKE      0.221000
     49 H20        -3.4880   -0.1070   -1.9840 h1        1 AKE      0.084500
     50 H21        -3.5570    1.2710   -1.1360 h1        1 AKE      0.084500
     51 H22        -5.3750   -0.9520   -0.9380 h1        1 AKE      0.081500
     52 H23        -5.2870    0.1050    0.2510 h1        1 AKE      0.081500
     53 H24        -5.9930    1.6980   -1.0840 hn        1 AKE      0.150000
     54 H26        -7.4580   -0.5800   -1.5310 h1        1 AKE      0.087000
     55 H27        -7.7370    0.5120   -0.3810 h1        1 AKE      0.087000
     56 H28        -7.9260    1.1990   -3.1760 h1        1 AKE      0.067500
     57 H29        -8.4600    2.0870   -1.9540 h1        1 AKE      0.067500
     58 H30       -10.2470    1.1450   -2.5340 ho        1 AKE      0.203000
@<TRIPOS>BOND
     1    1    2 1   
     2    2    3 1   
     3    3    4 1   
     4    3    8 1   
     5    4    5 1   
     6    4   31 1   
     7    5   32 1   
     8    6    7 1   
     9    6   33 1   
    10    7   34 1   
    11    9   10 1   
    12   11   30 1   
    13   12   13 1   
    14   12   20 1   
    15   13   14 1   
    16   13   35 1   
    17   14   15 1   
    18   14   36 1   
    19   14   37 1   
    20   15   16 1   
    21   15   38 1   
    22   15   39 1   
    23   16   17 1   
    24   16   40 1   
    25   17   18 1   
    26   17   41 1   
    27   17   42 1   
    28   18   19 1   
    29   18   43 1   
    30   18   44 1   
    31   19   45 1   
    32   20   46 1   
    33   21   22 1   
    34   21   47 1   
    35   22   30 1   
    36   23   24 1   
    37   23   48 1   
    38   24   25 1   
    39   24   49 1   
    40   24   50 1   
    41   25   26 1   
    42   25   51 1   
    43   25   52 1   
    44   26   27 1   
    45   26   53 1   
    46   27   28 1   
    47   27   54 1   
    48   27   55 1   
    49   28   29 1   
    50   28   56 1   
    51   28   57 1   
    52   29   58 1   
@<TRIPOS>SUBSTRUCTURE
     1 AKE         1 TEMP              0 ****  ****    0 ROOT
