@<TRIPOS>MOLECULE
AKE
   60    62     1     0     0
SMALL
bcc


@<TRIPOS>ATOM
      1 O01        -0.1780   -0.2780   -0.8220 o         1 AKE     -0.555100
      2 C02         1.0520   -0.1840   -0.6790 c         1 AKE      0.602800
      3 C03         1.6610    0.0720    0.6340 ca        1 AKE     -0.140100
      4 C04         0.9840   -0.2540    1.8110 ca        1 AKE     -0.072000
      5 C05         1.5760    0.0090    3.0500 ca        1 AKE     -0.098500
      6 C06         2.8290    0.6140    3.1130 ca        1 AKE     -0.098500
      7 C07         3.5030    0.9610    1.9370 ca        1 AKE     -0.072000
      8 C08         2.9260    0.6810    0.6970 ca        1 AKE     -0.140100
      9 C09         3.6180    1.0500   -0.5510 c         1 AKE      0.602800
     10 O10         4.4400    1.9780   -0.5750 o         1 AKE     -0.555100
     11 C11         3.2640    0.2600   -1.7590 ca        1 AKE     -0.137600
     12 C12         4.1840    0.0990   -2.8340 ca        1 AKE      0.138600
     13 N13         5.5000    0.5630   -2.7220 nu        1 AKE     -0.717600
     14 C14         6.3700    0.5570   -3.8660 c3        1 AKE      0.167800
     15 C15         7.7800    1.0590   -3.4640 c3        1 AKE      0.090300
     16 N16         8.7450    0.9550   -4.5910 ny        1 AKE     -0.755500
     17 C17        10.1000    1.4660   -4.2170 c3        1 AKE      0.098300
     18 C18        11.0740    1.4220   -5.4040 c3        1 AKE      0.108400
     19 O19        10.4210    2.0420   -6.4950 oh        1 AKE     -0.635800
     20 C20         3.7590   -0.6190   -3.9780 ca        1 AKE     -0.117000
     21 C21         2.5060   -1.1970   -4.0380 ca        1 AKE     -0.117000
     22 C22         1.6000   -1.0830   -2.9620 ca        1 AKE      0.138600
     23 N23         0.3720   -1.8080   -3.0550 nu        1 AKE     -0.717600
     24 C24        -0.7160   -1.0340   -3.6350 c3        1 AKE      0.167800
     25 C25        -2.0070   -1.8810   -3.6780 c3        1 AKE      0.090300
     26 N26        -3.1840   -1.0630   -4.0850 ny        1 AKE     -0.755500
     27 C27        -4.4400   -1.8700   -4.1290 c3        1 AKE      0.098300
     28 C28        -5.6350   -1.0460   -4.6290 c3        1 AKE      0.108400
     29 O29        -5.2300   -0.4290   -5.8380 oh        1 AKE     -0.635800
     30 C30         1.9900   -0.3350   -1.8290 ca        1 AKE     -0.137600
     31 H1         -0.0170   -0.7110    1.7560 ha        1 AKE      0.160000
     32 H2          1.0440   -0.2570    3.9780 ha        1 AKE      0.161000
     33 H3          3.2920    0.8290    4.0900 ha        1 AKE      0.161000
     34 H4          4.4830    1.4630    1.9810 ha        1 AKE      0.160000
     35 H5          5.6240    1.3510   -2.1140 hn        1 AKE      0.420800
     36 H6          6.4490   -0.5030   -4.2480 h1        1 AKE      0.060950
     37 H7          5.9760    1.2050   -4.7050 h1        1 AKE      0.060950
     38 H8          7.7310    2.1410   -3.1450 hx        1 AKE      0.116700
     39 H9          8.1790    0.4480   -2.6030 hx        1 AKE      0.116700
     40 H10         8.8240   -0.0230   -4.8940 hn        1 AKE      0.462300
     41 H12         9.9790    2.5310   -3.8670 hx        1 AKE      0.115700
     42 H13        10.5050    0.8390   -3.3740 hx        1 AKE      0.115700
     43 H14        11.3290    0.3620   -5.6790 h1        1 AKE      0.080200
     44 H15        12.0090    1.9670   -5.1040 h1        1 AKE      0.080200
     45 H16        11.0980    2.3970   -7.0890 ho        1 AKE      0.459500
     46 H17         4.4250   -0.7380   -4.8470 ha        1 AKE      0.150000
     47 H18         2.2170   -1.7670   -4.9390 ha        1 AKE      0.150000
     48 H19         0.1050   -2.1430   -2.1420 hn        1 AKE      0.420800
     49 H20        -0.9140   -0.0840   -3.0540 h1        1 AKE      0.060950
     50 H21        -0.4160   -0.7530   -4.6840 h1        1 AKE      0.060950
     51 H22        -1.8900   -2.7260   -4.4160 hx        1 AKE      0.116700
     52 H23        -2.2290   -2.3170   -2.6610 hx        1 AKE      0.116700
     53 H24        -3.0280   -0.6630   -5.0230 hn        1 AKE      0.462300
     54 H26        -4.6590   -2.2580   -3.0940 hx        1 AKE      0.115700
     55 H27        -4.2640   -2.7400   -4.8240 hx        1 AKE      0.115700
     56 H28        -5.9210   -0.2540   -3.8850 h1        1 AKE      0.080200
     57 H29        -6.4990   -1.7460   -4.7840 h1        1 AKE      0.080200
     58 H30        -6.0240   -0.2290   -6.3520 ho        1 AKE      0.459500
     59 H162        8.4100    1.5050   -5.3980 hn        1 AKE      0.462300
     60 H262       -3.3040   -0.2810   -3.4310 hn        1 AKE      0.462300
@<TRIPOS>BOND
     1    1    2 2   
     2    2    3 1   
     3    2   30 1   
     4    3    4 ar  
     5    3    8 ar  
     6    4    5 ar  
     7    4   31 1   
     8    5    6 ar  
     9    5   32 1   
    10    6    7 ar  
    11    6   33 1   
    12    7    8 ar  
    13    7   34 1   
    14    8    9 1   
    15    9   10 2   
    16    9   11 1   
    17   11   12 ar  
    18   11   30 ar  
    19   12   13 1   
    20   12   20 ar  
    21   13   14 1   
    22   13   35 1   
    23   14   15 1   
    24   14   36 1   
    25   14   37 1   
    26   15   16 1   
    27   15   38 1   
    28   15   39 1   
    29   16   17 1   
    30   16   40 1   
    31   16   59 1   
    32   17   18 1   
    33   17   41 1   
    34   17   42 1   
    35   18   19 1   
    36   18   43 1   
    37   18   44 1   
    38   19   45 1   
    39   20   21 ar  
    40   20   46 1   
    41   21   22 ar  
    42   21   47 1   
    43   22   23 1   
    44   22   30 ar  
    45   23   24 1   
    46   23   48 1   
    47   24   25 1   
    48   24   49 1   
    49   24   50 1   
    50   25   26 1   
    51   25   51 1   
    52   25   52 1   
    53   26   27 1   
    54   26   53 1   
    55   26   60 1   
    56   27   28 1   
    57   27   54 1   
    58   27   55 1   
    59   28   29 1   
    60   28   56 1   
    61   28   57 1   
    62   29   58 1   
@<TRIPOS>SUBSTRUCTURE
     1 AKE         1 TEMP              0 ****  ****    0 ROOT
