@<TRIPOS>MOLECULE
AKG
   14    13     1     0     0
SMALL
bcc


@<TRIPOS>ATOM
      1 C1          0.0170    0.0590    0.0080 c         1 AKG      0.842600
      2 O1          0.7990   -0.7990    0.5090 o         1 AKG     -0.845300
      3 O2         -0.1720    1.2080    0.5010 o         1 AKG     -0.845300
      4 C2         -0.7470   -0.3120   -1.2690 c         1 AKG      0.476100
      5 O5         -1.8350   -0.9060   -1.2260 o         1 AKG     -0.619100
      6 C3         -0.0890    0.0880   -2.5600 c3        1 AKG     -0.166400
      7 C4         -0.9730   -0.0420   -3.7770 c3        1 AKG     -0.173400
      8 C5         -0.2240    0.1780   -5.0950 c         1 AKG      0.902600
      9 O3          0.8580   -0.4440   -5.3160 o         1 AKG     -0.875800
     10 O4         -0.7410    0.9580   -5.9550 o         1 AKG     -0.875800
     11 H31         0.8240   -0.5530   -2.6970 hc        1 AKG      0.065700
     12 H32         0.2630    1.1480   -2.4520 hc        1 AKG      0.065700
     13 H41        -1.4180   -1.0700   -3.8020 hc        1 AKG      0.024200
     14 H42        -1.8190    0.6890   -3.7100 hc        1 AKG      0.024200
@<TRIPOS>BOND
     1    1    2 1   
     2    1    3 1   
     3    1    4 1   
     4    4    5 2   
     5    4    6 1   
     6    6    7 1   
     7    6   11 1   
     8    6   12 1   
     9    7    8 1   
    10    7   13 1   
    11    7   14 1   
    12    8    9 1   
    13    8   10 1   
@<TRIPOS>SUBSTRUCTURE
     1 AKG         1 TEMP              0 ****  ****    0 ROOT
