@<TRIPOS>MOLECULE
AKG
   14    12     1     0     0
SMALL
bcc


@<TRIPOS>ATOM
      1 C1          0.7300   -1.0450    2.2690 c1        1 AKG      0.545500
      2 O1          1.9850   -0.9980    2.3560 o         1 AKG     -0.814500
      3 O2          0.0260   -1.0500    3.3130 os        1 AKG     -0.579000
      4 C2          0.0680   -1.0950    0.9090 c2        1 AKG      0.502300
      5 O5         -0.1070   -2.1630    0.3580 o         1 AKG     -0.645300
      6 C3         -0.3780    0.1850    0.2370 c3        1 AKG     -0.166400
      7 C4         -0.0490    0.1200   -1.2380 c3        1 AKG     -0.173400
      8 C5         -0.3590    1.4540   -1.8830 c         1 AKG      0.902600
      9 O3         -1.4930    1.6600   -2.3880 o         1 AKG     -0.875800
     10 O4          0.5180    2.3570   -1.9130 o         1 AKG     -0.875800
     11 H31        -1.3430    0.2950    0.3520 hc        1 AKG      0.065700
     12 H32         0.0870    0.9440    0.6420 hc        1 AKG      0.065700
     13 H41         0.9010   -0.0840   -1.3520 hc        1 AKG      0.024200
     14 H42        -0.5860   -0.5790   -1.6620 hc        1 AKG      0.024200
@<TRIPOS>BOND
     1    1    2 2   
     2    1    4 2   
     3    4    5 1   
     4    4    6 1   
     5    6    7 1   
     6    6   11 1   
     7    6   12 1   
     8    7    8 1   
     9    7   13 1   
    10    7   14 1   
    11    8    9 1   
    12    8   10 1   
@<TRIPOS>SUBSTRUCTURE
     1 AKG         1 TEMP              0 ****  ****    0 ROOT
