@<TRIPOS>MOLECULE
AKG
   14    13     1     0     0
SMALL
bcc


@<TRIPOS>ATOM
      1 C1          2.4290   -0.3200   -0.0720 c         1 AKG      0.842600
      2 O1          2.9450   -1.0980    0.7810 o         1 AKG     -0.845300
      3 O2          2.9080   -0.1260   -1.2260 o         1 AKG     -0.845300
      4 C2          1.1490    0.4320    0.3130 c         1 AKG      0.476100
      5 O5          1.1890    1.5210    0.9070 o         1 AKG     -0.619100
      6 C3         -0.1410   -0.2360   -0.0740 c3        1 AKG     -0.166400
      7 C4         -1.3640    0.6360    0.0680 c3        1 AKG     -0.173400
      8 C5         -2.6780   -0.1240   -0.1380 c         1 AKG      0.902600
      9 O3         -2.8820   -1.2090    0.4860 o         1 AKG     -0.875800
     10 O4         -3.5500    0.3850   -0.9080 o         1 AKG     -0.875800
     11 H31        -0.0400   -0.5870   -1.1360 hc        1 AKG      0.065700
     12 H32        -0.2630   -1.1510    0.5670 hc        1 AKG      0.065700
     13 H41        -1.3820    1.0810    1.0970 hc        1 AKG      0.024200
     14 H42        -1.3120    1.4830   -0.6620 hc        1 AKG      0.024200
@<TRIPOS>BOND
     1    1    2 1   
     2    1    3 1   
     3    1    4 1   
     4    4    5 2   
     5    4    6 1   
     6    6    7 1   
     7    6   11 1   
     8    6   12 1   
     9    7    8 1   
    10    7   13 1   
    11    7   14 1   
    12    8    9 1   
    13    8   10 1   
@<TRIPOS>SUBSTRUCTURE
     1 AKG         1 TEMP              0 ****  ****    0 ROOT
