@<TRIPOS>MOLECULE
AKH
   17    18     1     0     0
SMALL
bcc


@<TRIPOS>ATOM
      1 C6         -0.0330    0.0070    0.0520 ca        1 AKH     -0.122000
      2 C5          1.3600   -0.0240    0.0550 ca        1 AKH     -0.135800
      3 C1          2.3770   -0.0650    1.0870 cc        1 AKH     -0.205200
      4 C2          3.5890   -0.0870    0.4400 cd        1 AKH     -0.040900
      5 C7         -0.6840    0.0320   -1.1770 ca        1 AKH     -0.168000
      6 C8          0.0290    0.0280   -2.3850 ca        1 AKH     -0.107000
      7 C9          1.4260    0.0070   -2.4330 ca        1 AKH     -0.099600
      8 C10         2.1350    0.0230   -3.7810 c         1 AKH      0.915200
      9 O11         1.4770   -0.3990   -4.7760 o         1 AKH     -0.821300
     10 C4          2.0660   -0.0220   -1.1930 ca        1 AKH      0.086100
     11 O12         3.3120    0.4660   -3.8410 o         1 AKH     -0.821300
     12 O3          3.4430   -0.0630   -0.9510 os        1 AKH     -0.155200
     13 H6         -0.5950    0.0100    0.9930 ha        1 AKH      0.109000
     14 H7A        -1.7830    0.0530   -1.2060 ha        1 AKH      0.106000
     15 H1          2.1920   -0.0750    2.1560 ha        1 AKH      0.139000
     16 H2          4.6240   -0.1170    0.7670 h4        1 AKH      0.169000
     17 H4         -0.5090    0.0300   -3.3480 ha        1 AKH      0.153000
@<TRIPOS>BOND
     1    1    2 ar  
     2    1    5 ar  
     3    1   13 1   
     4    2    3 1   
     5    2   10 ar  
     6    3    4 2   
     7    3   15 1   
     8    4   12 1   
     9    4   16 1   
    10    5    6 ar  
    11    5   14 1   
    12    6    7 ar  
    13    6   17 1   
    14    7    8 1   
    15    7   10 ar  
    16    8    9 1   
    17    8   11 1   
    18   10   12 1   
@<TRIPOS>SUBSTRUCTURE
     1 AKH         1 TEMP              0 ****  ****    0 ROOT
