@<TRIPOS>MOLECULE
AKH
   17    18     1     0     0
SMALL
bcc


@<TRIPOS>ATOM
      1 C6         -1.6280    1.8810   -0.0010 ca        1 AKH     -0.121000
      2 C5         -1.7080    0.4910   -0.0000 ca        1 AKH     -0.137800
      3 C1         -2.7970   -0.4670   -0.0000 cc        1 AKH     -0.206200
      4 C2         -2.2190   -1.7140    0.0000 cd        1 AKH     -0.042900
      5 C7         -0.3640    2.4630   -0.0010 ca        1 AKH     -0.170000
      6 C8          0.8020    1.6840   -0.0010 ca        1 AKH     -0.106000
      7 C9          0.7720    0.2860   -0.0000 ca        1 AKH     -0.104600
      8 C10         2.0790   -0.4970    0.0000 c         1 AKH      0.914200
      9 O11         3.1490    0.1770    0.0000 o         1 AKH     -0.821800
     10 C4         -0.5020   -0.2850   -0.0000 ca        1 AKH      0.088100
     11 O12         2.0320   -1.7560    0.0000 o         1 AKH     -0.821800
     12 O3         -0.8220   -1.6460    0.0000 os        1 AKH     -0.150200
     13 H6         -2.5370    2.4950   -0.0010 ha        1 AKH      0.109000
     14 H7A        -0.2740    3.5590   -0.0010 ha        1 AKH      0.106000
     15 H1         -3.8530   -0.2220   -0.0000 ha        1 AKH      0.139000
     16 H2         -2.6040   -2.7290    0.0000 h4        1 AKH      0.169000
     17 H4          1.7950    2.1650   -0.0010 ha        1 AKH      0.158000
@<TRIPOS>BOND
     1    1    2 ar  
     2    1    5 ar  
     3    1   13 1   
     4    2    3 1   
     5    2   10 ar  
     6    3    4 2   
     7    3   15 1   
     8    4   12 1   
     9    4   16 1   
    10    5    6 ar  
    11    5   14 1   
    12    6    7 ar  
    13    6   17 1   
    14    7    8 1   
    15    7   10 ar  
    16    8    9 1   
    17    8   11 1   
    18   10   12 1   
@<TRIPOS>SUBSTRUCTURE
     1 AKH         1 TEMP              0 ****  ****    0 ROOT
