@<TRIPOS>MOLECULE
AKH
   17    11     1     0     0
SMALL
bcc


@<TRIPOS>ATOM
      1 C6         -1.4720   -0.0130    1.1300 c1        1 AKH     -0.145000
      2 C5         -0.0670   -0.0130    1.1300 c1        1 AKH     -0.124000
      3 C1          0.8620   -0.0130    2.1590 c1        1 AKH     -0.217000
      4 C2          2.1240   -0.0130    1.5950 c1        1 AKH     -0.085000
      5 C7         -2.1660   -0.0130   -0.0710 c1        1 AKH     -0.145000
      6 C8         -1.4720   -0.0130   -1.2750 c1        1 AKH     -0.107000
      7 C9         -0.0840   -0.0130   -1.2760 c1        1 AKH     -0.079000
      8 C10         0.7950    0.0520   -2.5060 c1        1 AKH      0.364000
      9 O11         1.1890    1.1670   -2.9400 o         1 AKH     -0.556000
     10 C4          0.6190   -0.0130   -0.0590 c1        1 AKH      0.041000
     11 O12         1.1280   -1.0080   -3.0990 o         1 AKH     -0.556000
     12 O3          1.9790   -0.0130    0.2290 o         1 AKH     -0.066000
     13 H6         -1.9600   -0.0170    1.9760 ha        1 AKH      0.107500
     14 H7A        -3.1420   -0.0140   -0.0710 ha        1 AKH      0.107500
     15 H1          0.6600   -0.0310    3.1140 DU        1 AKH      0.154000
     16 H2          2.9700   -0.0130    2.0820 DU        1 AKH      0.154000
     17 H4         -1.9600   -0.0130   -2.1200 ha        1 AKH      0.153000
@<TRIPOS>BOND
     1    1    5 1   
     2    1   13 1   
     3    2   10 1   
     4    3    4 1   
     5    4   12 1   
     6    5   14 1   
     7    6    7 1   
     8    6   17 1   
     9    7   10 1   
    10    8    9 1   
    11    8   11 1   
@<TRIPOS>SUBSTRUCTURE
     1 AKH         1 TEMP              0 ****  ****    0 ROOT
