@<TRIPOS>MOLECULE
AKI
   67    72     1     0     0
SMALL
bcc


@<TRIPOS>ATOM
      1 N1         -0.2500   -0.0060   -0.0010 nb        1 AKI     -0.712000
      2 C2          1.1100    0.0070    0.0620 ca        1 AKI      0.682900
      3 N3          1.9300   -0.0110    1.1410 nb        1 AKI     -0.779000
      4 C4          1.3390   -0.0580    2.3890 ca        1 AKI      0.742200
      5 C5         -0.0890   -0.0630    2.4760 ca        1 AKI     -0.395400
      6 C6         -0.8090   -0.0400    1.2350 ca        1 AKI      0.617600
      7 CAA        -0.7350    1.0850    7.0730 ca        1 AKI     -0.135000
      8 CAB        -1.0260    1.0820    5.7100 ca        1 AKI     -0.118000
      9 CAC        -0.8030   -0.0720    4.9440 ca        1 AKI     -0.045800
     10 CAD        -0.2870   -1.2200    5.5630 ca        1 AKI     -0.118000
     11 CAE        -0.0020   -1.2110    6.9280 ca        1 AKI     -0.135000
     12 CAF        -0.2240   -0.0600    7.6840 ca        1 AKI     -0.125000
     13 CAG        -1.0890   -0.0750    3.5220 cc        1 AKI     -0.033400
     14 CAH        -2.3250   -0.0700    2.8940 cd        1 AKI      0.095900
     15 OAI        -2.1810   -0.0470    1.4800 os        1 AKI     -0.298400
     16 CAL        -3.6940   -0.0900    3.3530 ca        1 AKI     -0.043800
     17 CAM        -4.7410    0.2300    2.4710 ca        1 AKI     -0.102000
     18 CAN        -6.0600    0.2090    2.9160 ca        1 AKI     -0.135000
     19 CAO        -6.3520   -0.1320    4.2370 ca        1 AKI     -0.116000
     20 CAP        -5.3170   -0.4540    5.1150 ca        1 AKI     -0.135000
     21 CAQ        -3.9940   -0.4360    4.6790 ca        1 AKI     -0.102000
     22 CAV         3.5280    0.0410    3.5220 c3        1 AKI      0.215800
     23 CAW         4.1510   -0.0920    4.9160 c3        1 AKI     -0.046100
     24 CAX         5.6270    0.0740    4.8350 ca        1 AKI     -0.106300
     25 CAY         6.2460    1.2240    5.3310 ca        1 AKI     -0.101000
     26 CAZ         7.6270    1.3820    5.2710 ca        1 AKI     -0.155500
     27 CBA         8.4310    0.3700    4.7070 ca        1 AKI      0.065600
     28 CBB         7.8020   -0.7980    4.2110 ca        1 AKI     -0.155500
     29 CBC         6.4220   -0.9330    4.2750 ca        1 AKI     -0.101000
     30 NBD         9.8250    0.5040    4.5560 ns        1 AKI     -0.464100
     31 CBE        10.6380    1.1990    5.4820 c         1 AKI      0.768100
     32 NBF        12.0350    1.0430    5.3330 ns        1 AKI     -0.461100
     33 CBG        12.9720    1.8560    6.0050 ca        1 AKI      0.057600
     34 CBH        12.7600    2.3280    7.3170 ca        1 AKI     -0.155500
     35 CBI        13.7500    3.0680    7.9580 ca        1 AKI     -0.109000
     36 CBJ        14.9580    3.3480    7.3230 ca        1 AKI     -0.149000
     37 CBK        15.1760    2.8850    6.0270 ca        1 AKI     -0.109000
     38 CBL        14.1990    2.1500    5.3640 ca        1 AKI     -0.155500
     39 OBM        10.1460    1.9090    6.3850 o         1 AKI     -0.606100
     40 NBN         2.0990   -0.1500    3.5350 nu        1 AKI     -0.858900
     41 H2          1.6280    0.0400   -0.9210 h5        1 AKI      0.056100
     42 HAA        -0.9120    1.9940    7.6670 ha        1 AKI      0.137500
     43 HAB        -1.4320    1.9850    5.2300 ha        1 AKI      0.145500
     44 HAD        -0.1130   -2.1290    4.9680 ha        1 AKI      0.145500
     45 HAE         0.3970   -2.1170    7.4080 ha        1 AKI      0.137500
     46 HAF         0.0010   -0.0570    8.7610 ha        1 AKI      0.136000
     47 HAM        -4.5110    0.4950    1.4270 ha        1 AKI      0.148500
     48 HAN        -6.8740    0.4610    2.2200 ha        1 AKI      0.135500
     49 HAO        -7.3950   -0.1480    4.5850 ha        1 AKI      0.134000
     50 HAP        -5.5430   -0.7260    6.1570 ha        1 AKI      0.135500
     51 HAQ        -3.1800   -0.6930    5.3750 ha        1 AKI      0.148500
     52 HAV         3.7810    1.0580    3.1030 h1        1 AKI      0.059700
     53 HAVA        3.9870   -0.7310    2.8390 h1        1 AKI      0.059700
     54 HAW         3.9140   -1.1030    5.3460 hc        1 AKI      0.054200
     55 HAWA        3.7150    0.6780    5.6070 hc        1 AKI      0.054200
     56 HAY         5.6360    2.0250    5.7780 ha        1 AKI      0.136000
     57 HAZ         8.0860    2.2980    5.6780 ha        1 AKI      0.150500
     58 HBB         8.3980   -1.6090    3.7650 ha        1 AKI      0.150500
     59 HBC         5.9470   -1.8450    3.8810 ha        1 AKI      0.136000
     60 HNBD       10.2510   -0.2210    4.0200 hn        1 AKI      0.308500
     61 HNBF       12.3670    0.6670    4.4710 hn        1 AKI      0.306500
     62 HBH        11.8090    2.1260    7.8370 ha        1 AKI      0.148000
     63 HBI        13.5690    3.4330    8.9810 ha        1 AKI      0.134000
     64 HBJ        15.7330    3.9320    7.8390 ha        1 AKI      0.134000
     65 HBK        16.1270    3.1020    5.5180 ha        1 AKI      0.134000
     66 HBL        14.3950    1.7980    4.3400 ha        1 AKI      0.148000
     67 HNBN        1.6170   -0.0250    4.3980 hn        1 AKI      0.444800
@<TRIPOS>BOND
     1    1    2 ar  
     2    1    6 ar  
     3    2    3 ar  
     4    2   41 1   
     5    3    4 ar  
     6    4    5 ar  
     7    4   40 1   
     8    5    6 ar  
     9    5   13 1   
    10    6   15 1   
    11    7    8 ar  
    12    7   12 ar  
    13    7   42 1   
    14    8    9 ar  
    15    8   43 1   
    16    9   10 ar  
    17    9   13 1   
    18   10   11 ar  
    19   10   44 1   
    20   11   12 ar  
    21   11   45 1   
    22   12   46 1   
    23   13   14 2   
    24   14   15 1   
    25   14   16 1   
    26   16   17 ar  
    27   16   21 ar  
    28   17   18 ar  
    29   17   47 1   
    30   18   19 ar  
    31   18   48 1   
    32   19   20 ar  
    33   19   49 1   
    34   20   21 ar  
    35   20   50 1   
    36   21   51 1   
    37   22   23 1   
    38   22   40 1   
    39   22   52 1   
    40   22   53 1   
    41   23   24 1   
    42   23   54 1   
    43   23   55 1   
    44   24   25 ar  
    45   24   29 ar  
    46   25   26 ar  
    47   25   56 1   
    48   26   27 ar  
    49   26   57 1   
    50   27   28 ar  
    51   27   30 1   
    52   28   29 ar  
    53   28   58 1   
    54   29   59 1   
    55   30   31 1   
    56   30   60 1   
    57   31   32 1   
    58   31   39 2   
    59   32   33 1   
    60   32   61 1   
    61   33   34 ar  
    62   33   38 ar  
    63   34   35 ar  
    64   34   62 1   
    65   35   36 ar  
    66   35   63 1   
    67   36   37 ar  
    68   36   64 1   
    69   37   38 ar  
    70   37   65 1   
    71   38   66 1   
    72   40   67 1   
@<TRIPOS>SUBSTRUCTURE
     1 AKI         1 TEMP              0 ****  ****    0 ROOT
