@<TRIPOS>MOLECULE
AKI
   67    56     1     0     0
SMALL
bcc


@<TRIPOS>ATOM
      1 N1         -3.7000   -1.5010   -4.2970 n1        1 AKI     -0.180000
      2 C2         -2.3620   -1.7900   -4.2250 c1        1 AKI      0.017000
      3 N3         -1.7000   -1.6830   -3.0270 n1        1 AKI     -0.248000
      4 C4         -2.3610   -1.2960   -1.9240 c1        1 AKI      0.206000
      5 C5         -3.7170   -1.0030   -1.9950 c1        1 AKI     -0.246000
      6 C6         -4.3730   -1.1080   -3.1830 c1        1 AKI      0.116000
      7 CAA        -4.9050    0.3780    2.4990 c1        1 AKI     -0.125000
      8 CAB        -4.7620    0.4870    1.1240 c1        1 AKI     -0.125000
      9 CAC        -4.8260   -0.6450    0.3280 c1        1 AKI     -0.035000
     10 CAD        -5.0330   -1.8880    0.9060 c1        1 AKI     -0.120000
     11 CAE        -5.1760   -1.9980    2.2790 c1        1 AKI     -0.125000
     12 CAF        -5.1120   -0.8640    3.0770 c1        1 AKI     -0.125000
     13 CAG        -4.6240   -0.5420   -1.0430 c1        1 AKI     -0.058000
     14 CAH        -5.8440   -0.3680   -1.6650 c2        1 AKI      0.043000
     15 OAI        -5.7010   -0.7130   -2.9800 o         1 AKI     -0.084000
     16 CAL        -7.1790    0.0690   -1.6960 c1        1 AKI     -0.033000
     17 CAM        -8.2110   -0.8580   -1.6840 c1        1 AKI     -0.125000
     18 CAN        -9.5300   -0.4270   -1.6270 c1        1 AKI     -0.125000
     19 CAO        -9.8150    0.9280   -1.5830 c1        1 AKI     -0.125000
     20 CAP        -8.7840    1.8550   -1.5950 c1        1 AKI     -0.125000
     21 CAQ        -7.4650    1.4250   -1.6510 c1        1 AKI     -0.106000
     22 CAV        -0.1390   -1.3060   -0.7670 c3        1 AKI     -0.032000
     23 CAW         0.5650   -0.3090    0.1720 c3        1 AKI     -0.151000
     24 CAX         2.0830   -0.3950   -0.0330 c2        1 AKI     -0.095000
     25 CAY         2.7500    0.6310   -0.6910 c2        1 AKI     -0.104000
     26 CAZ         4.1400    0.6360   -0.7420 c1        1 AKI     -0.132000
     27 CBA         4.8610   -0.3820   -0.1370 c1        1 AKI      0.068000
     28 CBB         4.1940   -1.4090    0.5220 c1        1 AKI     -0.179000
     29 CBC         2.8060   -1.4150    0.5740 c1        1 AKI     -0.105000
     30 NBD         6.3010   -0.3840   -0.2010 n         1 AKI     -0.316000
     31 CBE         7.0570    0.4710    0.6630 c2        1 AKI      0.393000
     32 NBF         8.4850    0.4410    0.6250 n         1 AKI     -0.316000
     33 CBG         9.2380    1.2630    1.5090 c2        1 AKI      0.066000
     34 CBH         9.4270    0.8740    2.8250 c2        1 AKI     -0.179000
     35 CBI        10.1230    1.6970    3.6980 c1        1 AKI     -0.108000
     36 CBJ        10.6280    2.9100    3.2540 c1        1 AKI     -0.125000
     37 CBK        10.4390    3.2990    1.9370 c1        1 AKI     -0.125000
     38 CBL         9.7440    2.4770    1.0650 c1        1 AKI     -0.133000
     39 OBM         6.4860    1.1980    1.4500 o         1 AKI     -0.365000
     40 NBN        -1.5670   -1.0670   -0.7400 n3        1 AKI     -0.282000
     41 H2         -1.8790   -2.0720   -5.0280 ha        1 AKI      0.194000
     42 HAA        -4.8600    1.1740    3.0590 ha        1 AKI      0.138100
     43 HAB        -4.6160    1.3630    0.7170 ha        1 AKI      0.138100
     44 HAD        -5.0770   -2.6810    0.3480 ha        1 AKI      0.148000
     45 HAE        -5.3210   -2.8730    2.6860 ha        1 AKI      0.138100
     46 HAF        -5.2130   -0.9410    4.0450 ha        1 AKI      0.138100
     47 HAM        -8.0100   -1.8140   -1.7150 ha        1 AKI      0.138100
     48 HAN       -10.2610   -1.0820   -1.6190 ha        1 AKI      0.138100
     49 HAO       -10.7430    1.2310   -1.5430 ha        1 AKI      0.138100
     50 HAP        -8.9860    2.8140   -1.5640 ha        1 AKI      0.138100
     51 HAQ        -6.7410    2.0760   -1.6600 ha        1 AKI      0.146000
     52 HAV         0.0450   -2.2230   -0.4690 h1        1 AKI      0.108000
     53 HAVA        0.1950   -1.1860   -1.6800 h1        1 AKI      0.108000
     54 HAW         0.2600    0.6000   -0.0280 hc        1 AKI      0.096000
     55 HAWA        0.3490   -0.5290    1.1030 hc        1 AKI      0.096000
     56 HAY         2.2430    1.3480   -1.1170 ha        1 AKI      0.144000
     57 HAZ         4.6090    1.3560   -1.2040 ha        1 AKI      0.171000
     58 HBB         4.7010   -2.1240    0.9470 ha        1 AKI      0.128000
     59 HBC         2.3390   -2.1360    1.0360 ha        1 AKI      0.131000
     60 HNBD        6.7300   -0.9000   -0.8210 hn        1 AKI      0.219000
     61 HNBF        8.9140   -0.1320    0.0600 hn        1 AKI      0.219000
     62 HBH         9.0730    0.0230    3.1360 ha        1 AKI      0.127000
     63 HBI        10.2570    1.4230    4.6260 ha        1 AKI      0.132000
     64 HBJ        11.1160    3.4880    3.8670 ha        1 AKI      0.138100
     65 HBK        10.7950    4.1540    1.6240 ha        1 AKI      0.138100
     66 HBL         9.6110    2.7500    0.1410 ha        1 AKI      0.169000
     67 HNBN       -1.9680   -0.7950    0.0310 hn        1 AKI      0.229000
@<TRIPOS>BOND
     1    1    6 1   
     2    2    3 1   
     3    2   41 1   
     4    4    5 1   
     5    4   40 1   
     6    7    8 1   
     7    7   42 1   
     8    8   43 1   
     9    9   10 1   
    10   10   44 1   
    11   11   12 1   
    12   11   45 1   
    13   12   46 1   
    14   13   14 1   
    15   14   15 1   
    16   14   16 1   
    17   16   21 1   
    18   17   18 1   
    19   17   47 1   
    20   18   48 1   
    21   19   20 1   
    22   19   49 1   
    23   20   50 1   
    24   21   51 1   
    25   22   23 1   
    26   22   40 1   
    27   22   52 1   
    28   22   53 1   
    29   23   24 1   
    30   23   54 1   
    31   23   55 1   
    32   24   25 1   
    33   24   29 1   
    34   25   26 1   
    35   25   56 1   
    36   26   57 1   
    37   27   28 1   
    38   27   30 1   
    39   28   58 1   
    40   29   59 1   
    41   30   31 1   
    42   30   60 1   
    43   31   32 1   
    44   31   39 1   
    45   32   33 1   
    46   32   61 1   
    47   33   34 1   
    48   33   38 1   
    49   34   35 1   
    50   34   62 1   
    51   35   63 1   
    52   36   37 1   
    53   36   64 1   
    54   37   65 1   
    55   38   66 1   
    56   40   67 1   
@<TRIPOS>SUBSTRUCTURE
     1 AKI         1 TEMP              0 ****  ****    0 ROOT
