@<TRIPOS>MOLECULE
AKI
   67    72     1     0     0
SMALL
bcc


@<TRIPOS>ATOM
      1 N1          4.5710   -3.7160    0.5650 nb        1 AKI     -0.712000
      2 C2          3.2260   -3.8860    0.4360 ca        1 AKI      0.682900
      3 N3          2.2560   -2.9760    0.1720 nb        1 AKI     -0.779000
      4 C4          2.6470   -1.6650   -0.0090 ca        1 AKI      0.742200
      5 C5          4.0340   -1.3350    0.1110 ca        1 AKI     -0.395400
      6 C6          4.9300   -2.4190    0.3950 ca        1 AKI      0.617600
      7 CAA         3.8120    3.4170    0.5930 ca        1 AKI     -0.135000
      8 CAB         4.3100    2.1370    0.8290 ca        1 AKI     -0.118000
      9 CAC         4.3510    1.1940   -0.2090 ca        1 AKI     -0.045800
     10 CAD         3.8880    1.5540   -1.4830 ca        1 AKI     -0.118000
     11 CAE         3.3940    2.8380   -1.7130 ca        1 AKI     -0.135000
     12 CAF         3.3550    3.7700   -0.6760 ca        1 AKI     -0.125000
     13 CAG         4.8530   -0.1440    0.0350 cc        1 AKI     -0.033400
     14 CAH         6.1610   -0.5440    0.2560 cd        1 AKI      0.095900
     15 OAI         6.2380   -1.9450    0.4830 os        1 AKI     -0.298400
     16 CAL         7.4350    0.1360    0.2980 ca        1 AKI     -0.043800
     17 CAM         8.5600   -0.5000    0.8500 ca        1 AKI     -0.102000
     18 CAN         9.7870    0.1570    0.8870 ca        1 AKI     -0.135000
     19 CAO         9.9080    1.4490    0.3770 ca        1 AKI     -0.116000
     20 CAP         8.7960    2.0850   -0.1750 ca        1 AKI     -0.135000
     21 CAQ         7.5650    1.4350   -0.2180 ca        1 AKI     -0.102000
     22 CAV         0.3130   -0.9210   -0.2990 c3        1 AKI      0.215800
     23 CAW        -0.4990    0.3130   -0.7070 c3        1 AKI     -0.046100
     24 CAX        -1.9540    0.0040   -0.6750 ca        1 AKI     -0.106300
     25 CAY        -2.7770    0.5410    0.3180 ca        1 AKI     -0.101000
     26 CAZ        -4.1410    0.2670    0.3480 ca        1 AKI     -0.155500
     27 CBA        -4.7180   -0.5620   -0.6360 ca        1 AKI      0.064600
     28 CBB        -3.8830   -1.1000   -1.6440 ca        1 AKI     -0.155500
     29 CBC        -2.5230   -0.8190   -1.6530 ca        1 AKI     -0.101000
     30 NBD        -6.0790   -0.9300   -0.6160 n         1 AKI     -0.464100
     31 CBE        -7.1030   -0.0690   -0.1590 c         1 AKI      0.768100
     32 NBF        -8.4310   -0.4750   -0.4250 n         1 AKI     -0.461100
     33 CBG        -9.5530    0.1330    0.1760 ca        1 AKI      0.058600
     34 CBH        -9.6050    1.5150    0.4530 ca        1 AKI     -0.155500
     35 CBI       -10.7660    2.0740    0.9820 ca        1 AKI     -0.109000
     36 CBJ       -11.8860    1.2880    1.2390 ca        1 AKI     -0.149000
     37 CBK       -11.8430   -0.0790    0.9670 ca        1 AKI     -0.109000
     38 CBL       -10.6930   -0.6610    0.4460 ca        1 AKI     -0.155500
     39 OBM        -6.8470    0.9950    0.4450 o         1 AKI     -0.606100
     40 NBN         1.7340   -0.6890   -0.3500 nh        1 AKI     -0.858900
     41 H2          2.8670   -4.9300    0.5700 h5        1 AKI      0.056100
     42 HAA         3.7830    4.1510    1.4130 ha        1 AKI      0.137500
     43 HAB         4.6740    1.8610    1.8310 ha        1 AKI      0.145500
     44 HAD         3.9200    0.8200   -2.3030 ha        1 AKI      0.145500
     45 HAE         3.0380    3.1140   -2.7160 ha        1 AKI      0.137500
     46 HAF         2.9660    4.7820   -0.8600 ha        1 AKI      0.136000
     47 HAM         8.4650   -1.5230    1.2490 ha        1 AKI      0.148500
     48 HAN        10.6630   -0.3480    1.3220 ha        1 AKI      0.135500
     49 HAO        10.8790    1.9660    0.4080 ha        1 AKI      0.134000
     50 HAP         8.8880    3.1030   -0.5810 ha        1 AKI      0.135500
     51 HAQ         6.6890    1.9380   -0.6560 ha        1 AKI      0.148500
     52 HAV         0.0060   -1.2340    0.7420 h1        1 AKI      0.059700
     53 HAVA        0.0620   -1.7730   -0.9960 h1        1 AKI      0.059700
     54 HAW        -0.2720    1.1680   -0.0150 hc        1 AKI      0.054200
     55 HAWA       -0.2110    0.6350   -1.7440 hc        1 AKI      0.054200
     56 HAY        -2.3470    1.1930    1.0940 ha        1 AKI      0.136000
     57 HAZ        -4.7660    0.7130    1.1390 ha        1 AKI      0.150500
     58 HBB        -4.2990   -1.7500   -2.4290 ha        1 AKI      0.150500
     59 HBC        -1.8860   -1.2480   -2.4420 ha        1 AKI      0.136000
     60 HNBD       -6.3240   -1.6260   -1.2860 hn        1 AKI      0.308500
     61 HNBF       -8.5770   -1.4250   -0.6910 hn        1 AKI      0.306500
     62 HBH        -8.7290    2.1570    0.2650 ha        1 AKI      0.148000
     63 HBI       -10.7910    3.1540    1.1960 ha        1 AKI      0.134000
     64 HBJ       -12.7980    1.7400    1.6550 ha        1 AKI      0.134000
     65 HBK       -12.7230   -0.7080    1.1690 ha        1 AKI      0.134000
     66 HBL       -10.6840   -1.7420    0.2430 ha        1 AKI      0.148000
     67 HNBN        2.0570    0.2530   -0.3140 hn        1 AKI      0.444800
@<TRIPOS>BOND
     1    1    2 ar  
     2    1    6 ar  
     3    2    3 ar  
     4    2   41 1   
     5    3    4 ar  
     6    4    5 ar  
     7    4   40 1   
     8    5    6 ar  
     9    5   13 1   
    10    6   15 1   
    11    7    8 ar  
    12    7   12 ar  
    13    7   42 1   
    14    8    9 ar  
    15    8   43 1   
    16    9   10 ar  
    17    9   13 1   
    18   10   11 ar  
    19   10   44 1   
    20   11   12 ar  
    21   11   45 1   
    22   12   46 1   
    23   13   14 2   
    24   14   15 1   
    25   14   16 1   
    26   16   17 ar  
    27   16   21 ar  
    28   17   18 ar  
    29   17   47 1   
    30   18   19 ar  
    31   18   48 1   
    32   19   20 ar  
    33   19   49 1   
    34   20   21 ar  
    35   20   50 1   
    36   21   51 1   
    37   22   23 1   
    38   22   40 1   
    39   22   52 1   
    40   22   53 1   
    41   23   24 1   
    42   23   54 1   
    43   23   55 1   
    44   24   25 ar  
    45   24   29 ar  
    46   25   26 ar  
    47   25   56 1   
    48   26   27 ar  
    49   26   57 1   
    50   27   28 ar  
    51   27   30 1   
    52   28   29 ar  
    53   28   58 1   
    54   29   59 1   
    55   30   31 1   
    56   30   60 1   
    57   31   32 1   
    58   31   39 2   
    59   32   33 1   
    60   32   61 1   
    61   33   34 ar  
    62   33   38 ar  
    63   34   35 ar  
    64   34   62 1   
    65   35   36 ar  
    66   35   63 1   
    67   36   37 ar  
    68   36   64 1   
    69   37   38 ar  
    70   37   65 1   
    71   38   66 1   
    72   40   67 1   
@<TRIPOS>SUBSTRUCTURE
     1 AKI         1 TEMP              0 ****  ****    0 ROOT
