@<TRIPOS>MOLECULE
AKI
   70    75     1     0     0
SMALL
bcc


@<TRIPOS>ATOM
      1 N1          0.5030    0.1680    0.0150 nb        1 AKI     -0.580000
      2 C2          1.8430   -0.0920    0.1780 ca        1 AKI      0.662900
      3 N3          2.5040   -0.4100    1.3130 nb        1 AKI     -0.705000
      4 C4          1.7550   -0.4900    2.4590 ca        1 AKI      0.455200
      5 C5          0.3770   -0.2510    2.4660 ca        1 AKI     -0.234400
      6 C6         -0.1910    0.0800    1.1550 ca        1 AKI      0.609600
      7 CAA        -0.6480    0.2780    7.1140 ca        1 AKI     -0.127000
      8 CAB        -0.7620    0.5410    5.7490 ca        1 AKI     -0.144500
      9 CAC        -0.5810   -0.4900    4.8160 ca        1 AKI     -0.071800
     10 CAD        -0.2800   -1.7860    5.2700 ca        1 AKI     -0.144500
     11 CAE        -0.1700   -2.0410    6.6360 ca        1 AKI     -0.127000
     12 CAF        -0.3540   -1.0110    7.5590 ca        1 AKI     -0.113000
     13 CAG        -0.7160   -0.2330    3.3970 cc        1 AKI     -0.162400
     14 CAH        -1.8680    0.0750    2.6640 cd        1 AKI      0.275900
     15 OAI        -1.5600    0.2800    1.2940 os        1 AKI     -0.270400
     16 CAL        -3.2620    0.2120    2.9800 ca        1 AKI     -0.133800
     17 CAM        -4.1600    0.7170    2.0170 ca        1 AKI     -0.062500
     18 CAN        -5.5130    0.8330    2.3190 ca        1 AKI     -0.135500
     19 CAO        -5.9890    0.4470    3.5750 ca        1 AKI     -0.049000
     20 CAP        -5.1040   -0.0570    4.5320 ca        1 AKI     -0.135500
     21 CAQ        -3.7500   -0.1760    4.2430 ca        1 AKI     -0.062500
     22 CAV         3.6690   -0.0930    3.9710 c3        1 AKI      0.111800
     23 CAW         4.3640   -0.4860    5.2770 c3        1 AKI     -0.085100
     24 CAX         5.6740    0.2150    5.4130 ca        1 AKI     -0.003300
     25 CAY         5.8310    1.2450    6.3510 ca        1 AKI     -0.091000
     26 CAZ         7.0620    1.8750    6.5240 ca        1 AKI     -0.078500
     27 CBA         8.1580    1.4640    5.7410 ca        1 AKI     -0.096400
     28 CBB         8.0200    0.4280    4.7980 ca        1 AKI     -0.078500
     29 CBC         6.7790   -0.1830    4.6430 ca        1 AKI     -0.091000
     30 NBD         9.4450    2.1730    5.8620 n4        1 AKI     -0.493200
     31 CBE        10.0940    1.9330    7.1930 c         1 AKI      0.481100
     32 NBF        11.4130    1.2210    7.2260 n4        1 AKI     -0.489200
     33 CBG        12.3360    1.6770    6.1820 ca        1 AKI     -0.153400
     34 CBH        13.1870    2.7690    6.4400 ca        1 AKI     -0.106500
     35 CBI        14.1360    3.1240    5.4810 ca        1 AKI     -0.085500
     36 CBJ        14.2450    2.4040    4.2900 ca        1 AKI     -0.020000
     37 CBK        13.3940    1.3180    4.0440 ca        1 AKI     -0.085500
     38 CBL        12.4380    0.9420    4.9800 ca        1 AKI     -0.106500
     39 OBM         9.5780    2.3280    8.2250 o         1 AKI     -0.297100
     40 NBN         2.4280   -0.8830    3.7180 n4        1 AKI     -0.737700
     41 H2          2.4560   -0.0370   -0.7530 h5        1 AKI      0.101100
     42 HAA        -0.8200    1.0870    7.8420 ha        1 AKI      0.159000
     43 HAB        -1.0240    1.5540    5.4030 ha        1 AKI      0.151000
     44 HAD        -0.2030   -2.6150    4.5490 ha        1 AKI      0.151000
     45 HAE         0.0250   -3.0670    6.9870 ha        1 AKI      0.159000
     46 HAF        -0.2950   -1.2220    8.6390 ha        1 AKI      0.161000
     47 HAM        -3.7910    1.0170    1.0230 ha        1 AKI      0.151500
     48 HAN        -6.2110    1.2290    1.5630 ha        1 AKI      0.163500
     49 HAO        -7.0630    0.5370    3.8090 ha        1 AKI      0.165000
     50 HAP        -5.4830   -0.3670    5.5200 ha        1 AKI      0.163500
     51 HAQ        -3.0580   -0.5790    4.9990 ha        1 AKI      0.151500
     52 HAV         4.3750   -0.2560    3.1040 hx        1 AKI      0.120200
     53 HAVA        3.3790    0.9960    3.9940 hx        1 AKI      0.120200
     54 HAW         3.7040   -0.2360    6.1540 hc        1 AKI      0.095700
     55 HAWA        4.5490   -1.5970    5.3040 hc        1 AKI      0.095700
     56 HAY         4.9750    1.5710    6.9720 ha        1 AKI      0.190000
     57 HAZ         7.1540    2.6810    7.2750 ha        1 AKI      0.175500
     58 HBB         8.8610    0.0960    4.1660 ha        1 AKI      0.175500
     59 HBC         6.6720   -0.9960    3.9010 ha        1 AKI      0.190000
     60 HNBD       10.0700    1.9030    5.0820 hn        1 AKI      0.503800
     61 HNBF       11.2550    0.2020    7.1340 hn        1 AKI      0.512800
     62 HBH        13.1410    3.3370    7.3870 ha        1 AKI      0.165500
     63 HBI        14.8170    3.9750    5.6820 ha        1 AKI      0.203500
     64 HBJ        15.0160    2.6820    3.5430 ha        1 AKI      0.208000
     65 HBK        13.4980    0.7400    3.1060 ha        1 AKI      0.203500
     66 HBL        11.8190    0.0500    4.7900 ha        1 AKI      0.165500
     67 HNBN        1.7460   -0.7530    4.4890 hn        1 AKI      0.471300
     68 HBD2        9.2550    3.1940    5.7980 hn        1 AKI      0.503800
     69 HBF2       11.8360    1.4030    8.1630 hn        1 AKI      0.512800
     70 HBN2        2.6620   -1.8830    3.6560 hn        1 AKI      0.471300
@<TRIPOS>BOND
     1    1    2 ar  
     2    1    6 ar  
     3    2    3 ar  
     4    2   41 1   
     5    3    4 ar  
     6    4    5 ar  
     7    4   40 1   
     8    5    6 ar  
     9    5   13 1   
    10    6   15 1   
    11    7    8 ar  
    12    7   12 ar  
    13    7   42 1   
    14    8    9 ar  
    15    8   43 1   
    16    9   10 ar  
    17    9   13 1   
    18   10   11 ar  
    19   10   44 1   
    20   11   12 ar  
    21   11   45 1   
    22   12   46 1   
    23   13   14 2   
    24   14   15 1   
    25   14   16 1   
    26   16   17 ar  
    27   16   21 ar  
    28   17   18 ar  
    29   17   47 1   
    30   18   19 ar  
    31   18   48 1   
    32   19   20 ar  
    33   19   49 1   
    34   20   21 ar  
    35   20   50 1   
    36   21   51 1   
    37   22   23 1   
    38   22   40 1   
    39   22   52 1   
    40   22   53 1   
    41   23   24 1   
    42   23   54 1   
    43   23   55 1   
    44   24   25 ar  
    45   24   29 ar  
    46   25   26 ar  
    47   25   56 1   
    48   26   27 ar  
    49   26   57 1   
    50   27   28 ar  
    51   27   30 1   
    52   28   29 ar  
    53   28   58 1   
    54   29   59 1   
    55   30   31 1   
    56   30   60 1   
    57   30   68 1   
    58   31   32 1   
    59   31   39 2   
    60   32   33 1   
    61   32   61 1   
    62   32   69 1   
    63   33   34 ar  
    64   33   38 ar  
    65   34   35 ar  
    66   34   62 1   
    67   35   36 ar  
    68   35   63 1   
    69   36   37 ar  
    70   36   64 1   
    71   37   38 ar  
    72   37   65 1   
    73   38   66 1   
    74   40   67 1   
    75   40   70 1   
@<TRIPOS>SUBSTRUCTURE
     1 AKI         1 TEMP              0 ****  ****    0 ROOT
