@<TRIPOS>MOLECULE
AKK
   11     9     1     0     0
SMALL
bcc


@<TRIPOS>ATOM
      1 CA         -1.0820   -0.0000   -0.8630 c3        1 AKK     -0.167000
      2 CB          0.4310   -0.0000   -0.8630 c2        1 AKK     -0.268000
      3 CC          1.1040   -0.0000    0.3040 c1        1 AKK     -0.060000
      4 ND          0.3950   -0.0000    1.5330 n2        1 AKK     -0.330000
      5 HA1        -1.4080   -0.7970   -0.4020 hc        1 AKK      0.072000
      6 HA2        -1.4080    0.7970   -0.4030 hc        1 AKK      0.072000
      7 HA3        -1.4080   -0.0000   -1.7830 hc        1 AKK      0.072000
      8 HND1        0.1880   -0.7900    1.9390 hn        1 AKK      0.175000
      9 HB1         0.9190   -0.0000   -1.7080 ha        1 AKK      0.127000
     10 HC1         2.0810   -0.0000    0.3040 ha        1 AKK      0.131000
     11 HND2        0.1880    0.7900    1.9390 hn        1 AKK      0.175000
@<TRIPOS>BOND
     1    1    2 1   
     2    1    5 1   
     3    1    6 1   
     4    1    7 1   
     5    2    3 1   
     6    2    9 1   
     7    3   10 1   
     8    4    8 1   
     9    4   11 1   
@<TRIPOS>SUBSTRUCTURE
     1 AKK         1 TEMP              0 ****  ****    0 ROOT
