@<TRIPOS>MOLECULE
AKK
   12    11     1     0     0
SMALL
bcc


@<TRIPOS>ATOM
      1 CA         -0.0300   -0.3070   -0.1220 c3        1 AKK     -0.117900
      2 CB          1.4220   -0.1550    0.0370 c2        1 AKK     -0.024200
      3 CC          2.1190    0.1210    1.1520 c2        1 AKK     -0.186000
      4 ND          1.5470    0.3310    2.4720 n4        1 AKK     -0.708400
      5 HA1        -0.4030    0.4370   -0.8770 hc        1 AKK      0.084033
      6 HA2        -0.6170   -0.1690    0.8170 hc        1 AKK      0.084033
      7 HA3        -0.2560   -1.3310   -0.5260 hc        1 AKK      0.084033
      8 HND1        1.7950    1.2710    2.8040 hn        1 AKK      0.462800
      9 HB1         2.0120   -0.2880   -0.8970 ha        1 AKK      0.191000
     10 HC1         3.2240    0.2140    1.1580 hx        1 AKK      0.205000
     11 HND2        0.5250    0.2430    2.4580 hn        1 AKK      0.462800
     12 HD3         1.9320   -0.3650    3.1240 hn        1 AKK      0.462800
@<TRIPOS>BOND
     1    1    2 1   
     2    1    5 1   
     3    1    6 1   
     4    1    7 1   
     5    2    3 2   
     6    2    9 1   
     7    3    4 1   
     8    3   10 1   
     9    4    8 1   
    10    4   11 1   
    11    4   12 1   
@<TRIPOS>SUBSTRUCTURE
     1 AKK         1 TEMP              0 ****  ****    0 ROOT
