@<TRIPOS>MOLECULE
AKK
   11    10     1     0     0
SMALL
bcc


@<TRIPOS>ATOM
      1 CA         -1.5290    0.5330   -0.0020 c3        1 AKK     -0.044900
      2 CB         -0.6420   -0.6420    0.0330 c2        1 AKK     -0.272200
      3 CC          0.7060   -0.5870    0.0590 c2        1 AKK      0.022000
      4 ND          1.4810    0.5640    0.1550 nh        1 AKK     -0.821600
      5 HA1        -2.5800    0.2290   -0.2290 hc        1 AKK      0.032700
      6 HA2        -1.5260    1.0600    0.9860 hc        1 AKK      0.032700
      7 HA3        -1.2050    1.2660   -0.7830 hc        1 AKK      0.032700
      8 HND1        2.3550    0.5030   -0.3200 hn        1 AKK      0.379800
      9 HB1        -1.1340   -1.6250    0.0600 ha        1 AKK      0.127000
     10 HC1         1.2980   -1.5230    0.0860 h4        1 AKK      0.131000
     11 HND2        0.9960    1.4120   -0.0450 hn        1 AKK      0.379800
@<TRIPOS>BOND
     1    1    2 1   
     2    1    5 1   
     3    1    6 1   
     4    1    7 1   
     5    2    3 2   
     6    2    9 1   
     7    3    4 1   
     8    3   10 1   
     9    4    8 1   
    10    4   11 1   
@<TRIPOS>SUBSTRUCTURE
     1 AKK         1 TEMP              0 ****  ****    0 ROOT
