@<TRIPOS>MOLECULE
AKK
   12    11     1     0     0
SMALL
bcc


@<TRIPOS>ATOM
      1 CA         -0.0290   -0.1170   -0.1590 c3        1 AKK     -0.117900
      2 CB          1.3930    0.1940    0.0350 c2        1 AKK     -0.024200
      3 CC          2.0990    0.2070    1.1770 c2        1 AKK     -0.186000
      4 ND          1.5730   -0.0960    2.4970 nz        1 AKK     -0.708400
      5 HA1        -0.5440    0.7630   -0.6310 hc        1 AKK      0.084033
      6 HA2        -0.5800   -0.3770    0.7770 hc        1 AKK      0.084033
      7 HA3        -0.1290   -0.9810   -0.8710 hc        1 AKK      0.084033
      8 HND1        2.0850   -0.8950    2.8920 hn        1 AKK      0.462800
      9 HB1         1.9470    0.4510   -0.8950 ha        1 AKK      0.191000
     10 HC1         3.1790    0.4590    1.2080 hx        1 AKK      0.205000
     11 HND2        0.5740   -0.3280    2.4600 hn        1 AKK      0.462800
     12 HD3         1.7020    0.7190    3.1100 hn        1 AKK      0.462800
@<TRIPOS>BOND
     1    1    2 1   
     2    1    5 1   
     3    1    6 1   
     4    1    7 1   
     5    2    3 2   
     6    2    9 1   
     7    3    4 1   
     8    3   10 1   
     9    4    8 1   
    10    4   11 1   
    11    4   12 1   
@<TRIPOS>SUBSTRUCTURE
     1 AKK         1 TEMP              0 ****  ****    0 ROOT
