@<TRIPOS>MOLECULE
AKK
   12    11     1     0     0
SMALL
bcc


@<TRIPOS>ATOM
      1 CA         -0.0250    0.0000   -0.1080 c3        1 AKK     -0.124900
      2 CB          1.4430   -0.0000   -0.0070 c2        1 AKK     -0.026200
      3 CC          2.1500   -0.0000    1.1370 c2        1 AKK     -0.182000
      4 ND          1.5380    0.0000    2.4580 n4        1 AKK     -0.708400
      5 HA1        -0.4610    0.9100    0.3800 hc        1 AKK      0.083367
      6 HA2        -0.4610   -0.9100    0.3800 hc        1 AKK      0.083367
      7 HA3        -0.3520    0.0000   -1.1800 hc        1 AKK      0.083367
      8 HND1        2.2680    0.0000    3.1790 hn        1 AKK      0.462800
      9 HB1         2.0120   -0.0000   -0.9600 ha        1 AKK      0.194000
     10 HC1         3.2570   -0.0000    1.1680 hx        1 AKK      0.208000
     11 HND2        0.9500   -0.8340    2.5770 hn        1 AKK      0.462800
     12 HD3         0.9500    0.8340    2.5770 hn        1 AKK      0.462800
@<TRIPOS>BOND
     1    1    2 1   
     2    1    5 1   
     3    1    6 1   
     4    1    7 1   
     5    2    3 2   
     6    2    9 1   
     7    3    4 1   
     8    3   10 1   
     9    4    8 1   
    10    4   11 1   
    11    4   12 1   
@<TRIPOS>SUBSTRUCTURE
     1 AKK         1 TEMP              0 ****  ****    0 ROOT
