@<TRIPOS>MOLECULE
AKL
   17    16     1     0     0
SMALL
bcc


@<TRIPOS>ATOM
      1 N           4.1570   -0.3590   -1.6920 n3        1 AKL     -0.887800
      2 CA          3.5040   -0.3540   -0.3930 c3        1 AKL      0.068500
      3 CB          4.3140    0.3810    0.6800 c3        1 AKL     -0.201400
      4 CG          3.8960   -0.0480    2.0980 c         1 AKL      0.898600
      5 OD2         3.8350    0.8510    2.9820 o         1 AKL     -0.841300
      6 OD1         3.6210   -1.2670    2.3050 o         1 AKL     -0.841300
      7 C           2.0740    0.2020   -0.4170 c         1 AKL      0.542100
      8 O           1.5930    0.7100   -1.4390 o         1 AKL     -0.577100
      9 CM          1.3390    0.0660    0.8790 c3        1 AKL     -0.076000
     10 CL1        -0.4110    0.1860    0.7410 cl        1 AKL     -0.221400
     11 H           4.4790    0.5640   -1.9140 hn        1 AKL      0.335300
     12 H2          3.4970   -0.6310   -2.3970 hn        1 AKL      0.335300
     13 HA          3.4230   -1.4380   -0.0590 h1        1 AKL      0.113700
     14 HB2         5.4000    0.1330    0.5680 hc        1 AKL      0.042200
     15 HB3         4.1950    1.4870    0.5700 hc        1 AKL      0.042200
     16 HM1         1.6770    0.8760    1.5810 h1        1 AKL      0.134200
     17 HM2         1.5680   -0.9240    1.3590 h1        1 AKL      0.134200
@<TRIPOS>BOND
     1    1    2 1   
     2    1   11 1   
     3    1   12 1   
     4    2    3 1   
     5    2    7 1   
     6    2   13 1   
     7    3    4 1   
     8    3   14 1   
     9    3   15 1   
    10    4    5 1   
    11    4    6 1   
    12    7    8 2   
    13    7    9 1   
    14    9   10 1   
    15    9   16 1   
    16    9   17 1   
@<TRIPOS>SUBSTRUCTURE
     1 AKL         1 TEMP              0 ****  ****    0 ROOT
