@<TRIPOS>MOLECULE
AKL
   17    16     1     0     0
SMALL
bcc


@<TRIPOS>ATOM
      1 N          -1.6660    0.3500    0.0140 n3        1 AKL     -0.904800
      2 CA         -0.2490    0.2210    0.0190 c3        1 AKL      0.093500
      3 CB          0.2450    0.1450    1.4450 c3        1 AKL     -0.236400
      4 CG          0.2250    1.5270    2.0600 c         1 AKL      0.911600
      5 OD2        -0.7520    1.8870    2.7680 o         1 AKL     -0.840800
      6 OD1         1.1840    2.3180    1.8630 o         1 AKL     -0.840800
      7 C           0.1440   -1.0390   -0.7180 c         1 AKL      0.567100
      8 O          -0.0930   -2.1260   -0.2320 o         1 AKL     -0.530100
      9 CM          0.8340   -0.9450   -2.0610 c3        1 AKL     -0.072000
     10 CL1         1.1560   -2.5490   -2.6630 cl        1 AKL     -0.198400
     11 H          -1.8990    1.1430   -0.3800 hn        1 AKL      0.367300
     12 H2         -2.0340   -0.3450   -0.4560 hn        1 AKL      0.367300
     13 HA          0.1500    0.9950   -0.4240 h1        1 AKL      0.065700
     14 HB2         1.1590   -0.2030    1.4550 hc        1 AKL      0.036200
     15 HB3        -0.3360   -0.4500    1.9610 hc        1 AKL      0.036200
     16 HM1         0.2560   -0.4700   -2.6920 h1        1 AKL      0.088700
     17 HM2         1.6770   -0.4590   -1.9620 h1        1 AKL      0.088700
@<TRIPOS>BOND
     1    1    2 1   
     2    1   11 1   
     3    1   12 1   
     4    2    3 1   
     5    2    7 1   
     6    2   13 1   
     7    3    4 1   
     8    3   14 1   
     9    3   15 1   
    10    4    5 1   
    11    4    6 1   
    12    7    8 2   
    13    7    9 1   
    14    9   10 1   
    15    9   16 1   
    16    9   17 1   
@<TRIPOS>SUBSTRUCTURE
     1 AKL         1 TEMP              0 ****  ****    0 ROOT
