@<TRIPOS>MOLECULE
AKM
   64    66     1     0     0
SMALL
bcc


@<TRIPOS>ATOM
      1 O2P         1.0890   -1.6070   -4.6270 o         1 AKM     -0.881000
      2 P           0.9170   -0.5840   -3.5660 p5        1 AKM      1.613800
      3 O1P         0.2890    0.7430   -3.6610 o         1 AKM     -0.881000
      4 OPP         0.3730   -1.4750   -2.3230 os        1 AKM     -0.827800
      5 P2         -0.1460   -2.1640   -0.9310 p5        1 AKM      1.591800
      6 O3P         0.5230   -1.4300    0.1560 o         1 AKM     -0.842000
      7 O1          0.7450   -3.5710   -1.1650 os        1 AKM     -0.628200
      8 C1          2.0410   -3.6270   -0.6940 c3        1 AKM      0.374900
      9 C2          3.0430   -3.6560   -1.8540 c3        1 AKM     -0.159400
     10 C3          2.5780   -4.6660   -2.9200 c3        1 AKM      0.155200
     11 C3M         3.7900   -5.0890   -3.7550 c3        1 AKM     -0.108100
     12 N3          1.5440   -4.0280   -3.8070 nz        1 AKM     -0.837600
     13 C4          1.9550   -5.9260   -2.1950 c3        1 AKM      0.337600
     14 O4A         0.5540   -6.0210   -2.3520 oh        1 AKM     -0.639300
     15 O4B         2.3820   -7.0710   -2.9090 oh        1 AKM     -0.639300
     16 C5          2.3280   -6.0340   -0.6950 c3        1 AKM      0.117100
     17 C6          3.7420   -6.5390   -0.4810 c3        1 AKM     -0.110100
     18 O5          2.1100   -4.8440    0.0480 os        1 AKM     -0.427600
     19 O4P        -1.5270   -2.6260   -1.0550 o         1 AKM     -0.842000
     20 O5'         2.4570   -0.3670   -2.9990 os        1 AKM     -0.606200
     21 C5'         3.0210    0.9000   -3.1150 c3        1 AKM      0.175400
     22 C4'         3.2240    1.5620   -1.7450 c3        1 AKM      0.085100
     23 C3'         1.9700    1.5480   -0.8450 c3        1 AKM      0.140100
     24 O3'         2.2930    0.9830    0.4070 oh        1 AKM     -0.631800
     25 C2'         1.6000    3.0230   -0.6370 c3        1 AKM     -0.128400
     26 C1'         2.5650    3.8280   -1.5290 c3        1 AKM      0.301500
     27 O4'         3.5980    2.9330   -1.9650 os        1 AKM     -0.427600
     28 N11         1.9170    4.4790   -2.6710 n         1 AKM     -0.379000
     29 C21         2.3760    5.7610   -3.0650 c         1 AKM      0.804500
     30 O21         3.1810    6.4250   -2.3700 o         1 AKM     -0.673500
     31 N31         1.8710    6.3190   -4.2500 ns        1 AKM     -0.593500
     32 C41         0.9570    5.6510   -5.0890 c         1 AKM      0.717700
     33 O41         0.5920    6.2330   -6.1280 o         1 AKM     -0.648500
     34 C51         0.5280    4.3210   -4.6440 cc        1 AKM     -0.269400
     35 C5A        -0.4370    3.5760   -5.4760 c3        1 AKM     -0.038900
     36 C61         1.0280    3.7940   -3.4880 cd        1 AKM      0.044600
     37 H2          2.2470   -2.8070    0.0580 h2        1 AKM      0.137700
     38 H3          4.0440   -3.9670   -1.4640 hc        1 AKM      0.095700
     39 H4          3.1610   -2.6250   -2.2830 hc        1 AKM      0.095700
     40 H5          4.4810   -5.6780   -3.1040 hc        1 AKM      0.060033
     41 H6          4.3270   -4.1890   -4.1430 hc        1 AKM      0.060033
     42 H7          3.4860   -5.7410   -4.6090 hc        1 AKM      0.060033
     43 H8          0.8670   -4.7250   -4.1150 hn        1 AKM      0.477467
     44 H9          1.0310   -3.2670   -3.2860 hn        1 AKM      0.477467
     45 H11         0.1160   -5.4550   -1.6920 ho        1 AKM      0.459000
     46 H12         1.7290   -7.7690   -2.7570 ho        1 AKM      0.459000
     47 H13         1.6080   -6.7800   -0.2390 h1        1 AKM      0.065700
     48 H14         3.9210   -6.6780    0.6130 hc        1 AKM      0.044033
     49 H15         4.5010   -5.8210   -0.8690 hc        1 AKM      0.044033
     50 H16         3.8720   -7.5150   -1.0070 hc        1 AKM      0.044033
     51 H18         2.3810    1.5610   -3.7640 h1        1 AKM      0.035200
     52 H19         4.0340    0.7860   -3.5960 h1        1 AKM      0.035200
     53 H20         4.0930    1.0950   -1.2080 h1        1 AKM      0.079700
     54 H21         1.1430    0.9870   -1.3640 h1        1 AKM      0.083700
     55 H22         1.7680    0.1710    0.5130 ho        1 AKM      0.470000
     56 H23         0.5250    3.2010   -0.8810 hc        1 AKM      0.074700
     57 H24         1.7700    3.3110    0.4310 hc        1 AKM      0.074700
     58 H25         3.1070    4.6370   -0.9520 h2        1 AKM      0.109700
     59 H26         2.2060    7.2210   -4.5030 hn        1 AKM      0.335500
     60 H27        -0.5090    2.5100   -5.1300 hc        1 AKM      0.055700
     61 H28        -0.1160    3.5960   -6.5470 hc        1 AKM      0.055700
     62 H29        -1.4490    4.0490   -5.4100 hc        1 AKM      0.055700
     63 H30         0.7210    2.7730   -3.1460 h4        1 AKM      0.242000
     64 H33         1.9730   -3.5570   -4.6170 hn        1 AKM      0.477467
@<TRIPOS>BOND
     1    1    2 1   
     2    2    3 1   
     3    2    4 1   
     4    2   20 1   
     5    4    5 1   
     6    5    6 1   
     7    5    7 1   
     8    5   19 1   
     9    7    8 1   
    10    8    9 1   
    11    8   18 1   
    12    8   37 1   
    13    9   10 1   
    14    9   38 1   
    15    9   39 1   
    16   10   11 1   
    17   10   12 1   
    18   10   13 1   
    19   11   40 1   
    20   11   41 1   
    21   11   42 1   
    22   12   43 1   
    23   12   44 1   
    24   12   64 1   
    25   13   14 1   
    26   13   15 1   
    27   13   16 1   
    28   14   45 1   
    29   15   46 1   
    30   16   17 1   
    31   16   18 1   
    32   16   47 1   
    33   17   48 1   
    34   17   49 1   
    35   17   50 1   
    36   20   21 1   
    37   21   22 1   
    38   21   51 1   
    39   21   52 1   
    40   22   23 1   
    41   22   27 1   
    42   22   53 1   
    43   23   24 1   
    44   23   25 1   
    45   23   54 1   
    46   24   55 1   
    47   25   26 1   
    48   25   56 1   
    49   25   57 1   
    50   26   27 1   
    51   26   28 1   
    52   26   58 1   
    53   28   29 1   
    54   28   36 1   
    55   29   30 2   
    56   29   31 1   
    57   31   32 1   
    58   31   59 1   
    59   32   33 2   
    60   32   34 1   
    61   34   35 1   
    62   34   36 2   
    63   35   60 1   
    64   35   61 1   
    65   35   62 1   
    66   36   63 1   
@<TRIPOS>SUBSTRUCTURE
     1 AKM         1 TEMP              0 ****  ****    0 ROOT
