@<TRIPOS>MOLECULE
AKM
   64    66     1     0     0
SMALL
bcc


@<TRIPOS>ATOM
      1 O2P         5.4440   -0.3290   -3.3070 oh        1 AKM     -0.775400
      2 P           4.0690    0.1280   -2.6500 p5        1 AKM      1.790500
      3 O1P         2.9650    0.4600   -3.5450 o         1 AKM     -0.871300
      4 OPP         3.8940   -0.9610   -1.5530 os        1 AKM     -0.803800
      5 P2          3.5920   -1.8780   -0.1550 p5        1 AKM      1.598800
      6 O3P         4.8750   -2.4850    0.2010 o         1 AKM     -0.833000
      7 O1          2.6620   -3.0500   -0.8510 os        1 AKM     -0.618200
      8 C1          3.1370   -4.3580   -0.8750 c3        1 AKM      0.364900
      9 C2          3.2580   -4.8920   -2.2970 c3        1 AKM     -0.114400
     10 C3          1.9350   -4.8260   -3.0910 c3        1 AKM      0.188200
     11 C3M         1.9250   -6.0030   -4.0810 c3        1 AKM     -0.074100
     12 N3          1.8440   -3.5640   -3.8220 n3        1 AKM     -0.886800
     13 C4          0.7370   -5.0210   -2.0810 c3        1 AKM      0.305600
     14 O4A         0.0610   -3.8100   -1.7880 oh        1 AKM     -0.633800
     15 O4B        -0.2860   -5.7460   -2.7380 oh        1 AKM     -0.633800
     16 C5          1.1220   -5.7160   -0.7540 c3        1 AKM      0.109100
     17 C6          1.3790   -7.2030   -0.9120 c3        1 AKM     -0.108100
     18 O5          2.2150   -5.1010   -0.0850 os        1 AKM     -0.438600
     19 O4P         2.7080   -0.9820    0.5980 o         1 AKM     -0.833000
     20 O5'         4.5280    1.4270   -1.8070 os        1 AKM     -0.597200
     21 C5'         3.9320    2.6630   -2.0930 c3        1 AKM      0.164400
     22 C4'         2.9690    3.1100   -0.9830 c3        1 AKM      0.083100
     23 C3'         1.9120    2.0590   -0.5780 c3        1 AKM      0.149100
     24 O3'         1.9330    1.8890    0.8210 oh        1 AKM     -0.622800
     25 C2'         0.5600    2.6610   -0.9860 c3        1 AKM     -0.131400
     26 C1'         0.8860    3.9910   -1.6920 c3        1 AKM      0.298500
     27 O4'         2.2760    4.2730   -1.4610 os        1 AKM     -0.423600
     28 N11         0.5790    4.0010   -3.1240 n         1 AKM     -0.382000
     29 C21         0.0830    5.2020   -3.6950 c         1 AKM      0.806500
     30 O21        -0.2780    6.1730   -2.9910 o         1 AKM     -0.665500
     31 N31        -0.0460    5.2760   -5.0910 n         1 AKM     -0.592500
     32 C41         0.3260    4.2320   -5.9580 c         1 AKM      0.716700
     33 O41         0.1910    4.4130   -7.1820 o         1 AKM     -0.638500
     34 C51         0.8460    3.0160   -5.3170 cc        1 AKM     -0.258400
     35 C5A         1.2370    1.8810   -6.1770 c3        1 AKM     -0.041900
     36 C61         0.9640    2.9610   -3.9590 cd        1 AKM      0.038600
     37 H2          4.1200   -4.4400   -0.3130 h2        1 AKM      0.112700
     38 H3          4.0570   -4.3170   -2.8330 hc        1 AKM      0.063200
     39 H4          3.5960   -5.9580   -2.2320 hc        1 AKM      0.063200
     40 H5          2.8480   -5.9810   -4.7080 hc        1 AKM      0.038033
     41 H6          1.0300   -5.9520   -4.7460 hc        1 AKM      0.038033
     42 H7          1.8830   -6.9630   -3.5140 hc        1 AKM      0.038033
     43 H8          0.9320   -3.4890   -4.2300 hn        1 AKM      0.360800
     44 H9          1.9710   -2.8010   -3.1820 hn        1 AKM      0.360800
     45 H11         0.6180   -3.2820   -1.1970 ho        1 AKM      0.441000
     46 H12        -1.1300   -5.4720   -2.3530 ho        1 AKM      0.441000
     47 H13         0.2550   -5.5720   -0.0400 h1        1 AKM      0.059700
     48 H14         1.3920   -7.6890    0.0930 hc        1 AKM      0.040700
     49 H15         0.5700   -7.6570   -1.5330 hc        1 AKM      0.040700
     50 H16         2.3640   -7.3940   -1.4000 hc        1 AKM      0.040700
     51 H18         4.7620    3.4210   -2.1600 h1        1 AKM      0.054200
     52 H19         3.3920    2.6150   -3.0800 h1        1 AKM      0.054200
     53 H20         3.5470    3.4470   -0.0800 h1        1 AKM      0.095700
     54 H21         2.1080    1.0920   -1.1190 h1        1 AKM      0.058700
     55 H22         2.1410    0.9560    1.0060 ho        1 AKM      0.475000
     56 H23        -0.0480    2.8780   -0.0710 hc        1 AKM      0.078200
     57 H24        -0.0160    1.9520   -1.6260 hc        1 AKM      0.078200
     58 H25         0.3360    4.8660   -1.2290 h2        1 AKM      0.116700
     59 H26        -0.4010    6.1280   -5.4660 hn        1 AKM      0.339500
     60 H27         1.8450    1.1380   -5.5950 hc        1 AKM      0.057700
     61 H28         1.8370    2.2490   -7.0460 hc        1 AKM      0.057700
     62 H29         0.3260    1.3710   -6.5780 hc        1 AKM      0.057700
     63 H30         1.3670    2.0490   -3.4610 h4        1 AKM      0.219000
     64 H33         6.0050   -0.8780   -2.7630 ho        1 AKM      0.482000
@<TRIPOS>BOND
     1    1    2 1   
     2    1   64 1   
     3    2    3 2   
     4    2    4 1   
     5    2   20 1   
     6    4    5 1   
     7    5    6 1   
     8    5    7 1   
     9    5   19 1   
    10    7    8 1   
    11    8    9 1   
    12    8   18 1   
    13    8   37 1   
    14    9   10 1   
    15    9   38 1   
    16    9   39 1   
    17   10   11 1   
    18   10   12 1   
    19   10   13 1   
    20   11   40 1   
    21   11   41 1   
    22   11   42 1   
    23   12   43 1   
    24   12   44 1   
    25   13   14 1   
    26   13   15 1   
    27   13   16 1   
    28   14   45 1   
    29   15   46 1   
    30   16   17 1   
    31   16   18 1   
    32   16   47 1   
    33   17   48 1   
    34   17   49 1   
    35   17   50 1   
    36   20   21 1   
    37   21   22 1   
    38   21   51 1   
    39   21   52 1   
    40   22   23 1   
    41   22   27 1   
    42   22   53 1   
    43   23   24 1   
    44   23   25 1   
    45   23   54 1   
    46   24   55 1   
    47   25   26 1   
    48   25   56 1   
    49   25   57 1   
    50   26   27 1   
    51   26   28 1   
    52   26   58 1   
    53   28   29 1   
    54   28   36 1   
    55   29   30 2   
    56   29   31 1   
    57   31   32 1   
    58   31   59 1   
    59   32   33 2   
    60   32   34 1   
    61   34   35 1   
    62   34   36 2   
    63   35   60 1   
    64   35   61 1   
    65   35   62 1   
    66   36   63 1   
@<TRIPOS>SUBSTRUCTURE
     1 AKM         1 TEMP              0 ****  ****    0 ROOT
