@<TRIPOS>MOLECULE
AKM
   63    65     1     0     0
SMALL
bcc


@<TRIPOS>ATOM
      1 O2P         0.7410    0.4780    0.2840 o         1 AKM     -0.897500
      2 P           0.3020    1.3770   -0.8010 p5        1 AKM      1.626800
      3 O1P        -0.6340    2.5010   -0.5580 o         1 AKM     -0.897500
      4 OPP         1.5510    1.7780   -1.7230 os        1 AKM     -0.814800
      5 P2          2.8730    2.2370   -2.5760 p5        1 AKM      1.598800
      6 O3P         3.7240    3.0250   -1.6640 o         1 AKM     -0.862000
      7 O1          3.6940    0.7800   -2.6750 os        1 AKM     -0.558200
      8 C1          4.1400    0.2320   -1.4980 c3        1 AKM      0.403900
      9 C2          5.6640    0.3670   -1.3400 c3        1 AKM     -0.129400
     10 C3          6.1880   -0.4330   -0.1330 c3        1 AKM      0.171200
     11 C3M         5.6630    0.2140    1.1600 c3        1 AKM     -0.127100
     12 N3          7.6590   -0.4690   -0.1600 n3        1 AKM     -0.900800
     13 C4          5.6250   -1.8930   -0.2310 c3        1 AKM      0.315600
     14 O4A         6.3270   -2.6900   -1.1800 oh        1 AKM     -0.630300
     15 O4B         5.9470   -2.5660    0.9700 oh        1 AKM     -0.630300
     16 C5          4.1100   -1.9820   -0.5770 c3        1 AKM      0.123100
     17 C6          3.1910   -1.7820    0.6120 c3        1 AKM     -0.148100
     18 O5          3.8060   -1.1590   -1.6840 os        1 AKM     -0.423600
     19 O4P         2.5140    2.6150   -3.9490 o         1 AKM     -0.862000
     20 O5'        -0.6220    0.4250   -1.8360 os        1 AKM     -0.565200
     21 C5'        -1.7990   -0.0450   -1.2870 c3        1 AKM      0.210400
     22 C4'        -3.0080    0.7590   -1.8070 c3        1 AKM      0.055100
     23 C3'        -3.4530    1.9110   -0.8810 c3        1 AKM      0.151100
     24 O3'        -3.2350    3.1670   -1.4800 oh        1 AKM     -0.640800
     25 C2'        -4.9650    1.7220   -0.7040 c3        1 AKM     -0.129400
     26 C1'        -5.2610    0.3030   -1.2280 c3        1 AKM      0.303500
     27 O4'        -4.1310   -0.1400   -1.9700 os        1 AKM     -0.427600
     28 N11        -5.5670   -0.6680   -0.1570 n         1 AKM     -0.375000
     29 C21        -6.8910   -1.1440   -0.0230 c         1 AKM      0.804500
     30 O21        -7.8350   -0.7210   -0.7310 o         1 AKM     -0.674500
     31 N31        -7.1540   -2.1130    0.9610 n         1 AKM     -0.593500
     32 C41        -6.1590   -2.6540    1.7960 c         1 AKM      0.720700
     33 O41        -6.5030   -3.5120    2.6320 o         1 AKM     -0.655500
     34 C51        -4.7980   -2.1450    1.5920 cc        1 AKM     -0.292400
     35 C5A        -3.7250   -2.6910    2.4450 c3        1 AKM     -0.022900
     36 C61        -4.5650   -1.2010    0.6310 cd        1 AKM      0.075600
     37 H2          3.5990    0.6580   -0.6060 h2        1 AKM      0.062700
     38 H3          6.1530    0.0150   -2.2840 hc        1 AKM      0.068200
     39 H4          5.9040    1.4540   -1.2030 hc        1 AKM      0.068200
     40 H5          4.5490    0.2830    1.1370 hc        1 AKM      0.047033
     41 H6          5.9640   -0.3920    2.0480 hc        1 AKM      0.047033
     42 H7          6.0680    1.2490    1.2630 hc        1 AKM      0.047033
     43 H8          8.0110    0.4150    0.1530 hn        1 AKM      0.338800
     44 H9          7.9770   -1.1850    0.4650 hn        1 AKM      0.338800
     45 H11         6.3340   -2.1930   -2.0070 ho        1 AKM      0.419500
     46 H12         5.6830   -3.4860    0.8480 ho        1 AKM      0.419500
     47 H13         3.9460   -3.0230   -0.9940 h1        1 AKM      0.048700
     48 H14         2.5170   -2.6660    0.7140 hc        1 AKM      0.062700
     49 H15         3.7740   -1.6790    1.5580 hc        1 AKM      0.062700
     50 H16         2.5330   -0.8790    0.4760 hc        1 AKM      0.062700
     51 H18        -1.9380   -1.1180   -1.6030 h1        1 AKM      0.013700
     52 H19        -1.7520    0.0040   -0.1610 h1        1 AKM      0.013700
     53 H20        -2.7780    1.1480   -2.8370 h1        1 AKM      0.099700
     54 H21        -2.9190    1.8620    0.1070 h1        1 AKM      0.079700
     55 H22        -2.2810    3.3580   -1.3750 ho        1 AKM      0.487000
     56 H23        -5.2660    1.8670    0.3590 hc        1 AKM      0.064700
     57 H24        -5.5210    2.4630   -1.3300 hc        1 AKM      0.064700
     58 H25        -6.1390    0.2830   -1.9420 h2        1 AKM      0.098700
     59 H26        -8.0940   -2.4320    1.0410 hn        1 AKM      0.334500
     60 H27        -3.9330   -2.4570    3.5200 hc        1 AKM      0.047033
     61 H28        -3.6800   -3.8040    2.3390 hc        1 AKM      0.047033
     62 H29        -2.7310   -2.2610    2.1680 hc        1 AKM      0.047033
     63 H30        -3.5460   -0.8040    0.4240 h4        1 AKM      0.204000
@<TRIPOS>BOND
     1    1    2 1   
     2    2    3 1   
     3    2    4 1   
     4    2   20 1   
     5    4    5 1   
     6    5    6 1   
     7    5    7 1   
     8    5   19 1   
     9    7    8 1   
    10    8    9 1   
    11    8   18 1   
    12    8   37 1   
    13    9   10 1   
    14    9   38 1   
    15    9   39 1   
    16   10   11 1   
    17   10   12 1   
    18   10   13 1   
    19   11   40 1   
    20   11   41 1   
    21   11   42 1   
    22   12   43 1   
    23   12   44 1   
    24   13   14 1   
    25   13   15 1   
    26   13   16 1   
    27   14   45 1   
    28   15   46 1   
    29   16   17 1   
    30   16   18 1   
    31   16   47 1   
    32   17   48 1   
    33   17   49 1   
    34   17   50 1   
    35   20   21 1   
    36   21   22 1   
    37   21   51 1   
    38   21   52 1   
    39   22   23 1   
    40   22   27 1   
    41   22   53 1   
    42   23   24 1   
    43   23   25 1   
    44   23   54 1   
    45   24   55 1   
    46   25   26 1   
    47   25   56 1   
    48   25   57 1   
    49   26   27 1   
    50   26   28 1   
    51   26   58 1   
    52   28   29 1   
    53   28   36 1   
    54   29   30 2   
    55   29   31 1   
    56   31   32 1   
    57   31   59 1   
    58   32   33 2   
    59   32   34 1   
    60   34   35 1   
    61   34   36 2   
    62   35   60 1   
    63   35   61 1   
    64   35   62 1   
    65   36   63 1   
@<TRIPOS>SUBSTRUCTURE
     1 AKM         1 TEMP              0 ****  ****    0 ROOT
