@<TRIPOS>MOLECULE
AKM
   64    66     1     0     0
SMALL
bcc


@<TRIPOS>ATOM
      1 O2P        -0.7470   -1.2170   -1.9330 oh        1 AKM     -0.799400
      2 P           0.0360   -0.8090   -0.6070 p5        1 AKM      1.810500
      3 O1P        -0.4060    0.4520   -0.0140 o         1 AKM     -0.885300
      4 OPP         0.1490   -2.1330    0.1730 os        1 AKM     -0.793800
      5 P2          0.2470   -3.6580    0.9590 p5        1 AKM      1.575800
      6 O3P         1.2570   -3.5020    2.0060 o         1 AKM     -0.814000
      7 O1          0.9600   -4.4090   -0.3260 os        1 AKM     -0.606200
      8 C1          2.3320   -4.6120   -0.3090 c3        1 AKM      0.374900
      9 C2          3.0790   -3.7640   -1.3350 c3        1 AKM     -0.118400
     10 C3          2.6170   -3.9860   -2.7900 c3        1 AKM      0.185200
     11 C3M         3.8650   -3.8460   -3.6880 c3        1 AKM     -0.121100
     12 N3          1.5820   -3.0170   -3.1550 n3        1 AKM     -0.906800
     13 C4          2.0660   -5.4520   -2.9380 c3        1 AKM      0.351600
     14 O4A         0.6590   -5.5600   -2.9510 oh        1 AKM     -0.636300
     15 O4B         2.3790   -5.9020   -4.2460 oh        1 AKM     -0.636300
     16 C5          2.6280   -6.4410   -1.8840 c3        1 AKM      0.114100
     17 C6          4.0720   -6.8330   -2.1380 c3        1 AKM     -0.110100
     18 O5          2.4880   -6.0070   -0.5390 os        1 AKM     -0.434600
     19 O4P        -1.1400   -4.1060    1.0310 o         1 AKM     -0.814000
     20 O5'         1.5190   -0.5390   -1.2340 os        1 AKM     -0.589200
     21 C5'         1.6700    0.6110   -2.0170 c3        1 AKM      0.184400
     22 C4'         2.2970    1.7630   -1.2150 c3        1 AKM      0.064100
     23 C3'         1.2740    2.8000   -0.6960 c3        1 AKM      0.139100
     24 O3'         1.2090    2.7930    0.7120 oh        1 AKM     -0.612800
     25 C2'         1.8270    4.1580   -1.1430 c3        1 AKM     -0.126400
     26 C1'         2.9070    3.8340   -2.1930 c3        1 AKM      0.297500
     27 O4'         3.2340    2.4460   -2.0650 os        1 AKM     -0.418600
     28 N11         2.4920    4.1310   -3.5700 n         1 AKM     -0.381000
     29 C21         3.3370    4.9260   -4.3870 c         1 AKM      0.809500
     30 O21         4.3490    5.5020   -3.9290 o         1 AKM     -0.652500
     31 N31         2.9900    5.0940   -5.7370 n         1 AKM     -0.588500
     32 C41         1.8690    4.4840   -6.3280 c         1 AKM      0.719700
     33 O41         1.6550    4.6860   -7.5360 o         1 AKM     -0.627500
     34 C51         1.0420    3.6480   -5.4420 cc        1 AKM     -0.268400
     35 C5A        -0.1490    3.0050   -6.0280 c3        1 AKM     -0.028900
     36 C61         1.3980    3.4970   -4.1340 cd        1 AKM      0.052600
     37 H2          2.7470   -4.4490    0.7360 h2        1 AKM      0.109700
     38 H3          2.9780   -2.6830   -1.0540 hc        1 AKM      0.064700
     39 H4          4.1650   -4.0340   -1.2540 hc        1 AKM      0.064700
     40 H5          4.5780   -4.6790   -3.4850 hc        1 AKM      0.038700
     41 H6          3.5800   -3.8940   -4.7660 hc        1 AKM      0.038700
     42 H7          4.3740   -2.8740   -3.4860 hc        1 AKM      0.038700
     43 H8          1.2000   -3.2600   -4.0480 hn        1 AKM      0.354800
     44 H9          1.9800   -2.0980   -3.1910 hn        1 AKM      0.354800
     45 H11         0.3130   -5.1970   -2.1220 ho        1 AKM      0.447500
     46 H12         1.7000   -6.5400   -4.5050 ho        1 AKM      0.447500
     47 H13         1.9820   -7.3690   -1.9410 h1        1 AKM      0.060700
     48 H14         4.2230   -7.0390   -3.2250 hc        1 AKM      0.039367
     49 H15         4.7690   -6.0230   -1.8160 hc        1 AKM      0.039367
     50 H16         4.3180   -7.7500   -1.5510 hc        1 AKM      0.039367
     51 H18         2.3660    0.3430   -2.8620 h1        1 AKM      0.038700
     52 H19         0.6690    0.9100   -2.4350 h1        1 AKM      0.038700
     53 H20         2.9030    1.3470   -0.3620 h1        1 AKM      0.102700
     54 H21         0.2540    2.6130   -1.1300 h1        1 AKM      0.069700
     55 H22         0.5710    2.1020    0.9610 ho        1 AKM      0.462000
     56 H23         2.3070    4.6790   -0.2760 hc        1 AKM      0.077700
     57 H24         1.0150    4.8130   -1.5370 hc        1 AKM      0.077700
     58 H25         3.8730    4.3930   -2.0050 h2        1 AKM      0.121700
     59 H26         3.5950    5.6590   -6.2930 hn        1 AKM      0.345500
     60 H27        -0.5620    2.2210   -5.3470 hc        1 AKM      0.050033
     61 H28        -0.9440    3.7710   -6.2170 hc        1 AKM      0.050033
     62 H29         0.1140    2.5340   -7.0080 hc        1 AKM      0.050033
     63 H30         0.8220    2.8560   -3.4360 h4        1 AKM      0.175000
     64 H33        -0.7050   -2.1350   -2.1930 ho        1 AKM      0.492000
@<TRIPOS>BOND
     1    1    2 1   
     2    1   64 1   
     3    2    3 2   
     4    2    4 1   
     5    2   20 1   
     6    4    5 1   
     7    5    6 1   
     8    5    7 1   
     9    5   19 1   
    10    7    8 1   
    11    8    9 1   
    12    8   18 1   
    13    8   37 1   
    14    9   10 1   
    15    9   38 1   
    16    9   39 1   
    17   10   11 1   
    18   10   12 1   
    19   10   13 1   
    20   11   40 1   
    21   11   41 1   
    22   11   42 1   
    23   12   43 1   
    24   12   44 1   
    25   13   14 1   
    26   13   15 1   
    27   13   16 1   
    28   14   45 1   
    29   15   46 1   
    30   16   17 1   
    31   16   18 1   
    32   16   47 1   
    33   17   48 1   
    34   17   49 1   
    35   17   50 1   
    36   20   21 1   
    37   21   22 1   
    38   21   51 1   
    39   21   52 1   
    40   22   23 1   
    41   22   27 1   
    42   22   53 1   
    43   23   24 1   
    44   23   25 1   
    45   23   54 1   
    46   24   55 1   
    47   25   26 1   
    48   25   56 1   
    49   25   57 1   
    50   26   27 1   
    51   26   28 1   
    52   26   58 1   
    53   28   29 1   
    54   28   36 1   
    55   29   30 2   
    56   29   31 1   
    57   31   32 1   
    58   31   59 1   
    59   32   33 2   
    60   32   34 1   
    61   34   35 1   
    62   34   36 2   
    63   35   60 1   
    64   35   61 1   
    65   35   62 1   
    66   36   63 1   
@<TRIPOS>SUBSTRUCTURE
     1 AKM         1 TEMP              0 ****  ****    0 ROOT
