@<TRIPOS>MOLECULE
AKM
   63    63     1     0     0
SMALL
bcc


@<TRIPOS>ATOM
      1 O2P        -0.9030   -0.2870    2.1480 o         1 AKM     -1.208500
      2 P           0.5300   -0.2610    1.6710 p3        1 AKM      2.720000
      3 O1P         1.4570   -0.2830    2.8620 o         1 AKM     -1.208500
      4 OPP         0.8070   -1.5250    0.7660 o         1 AKM     -1.216333
      5 P2          0.3570   -2.9910    1.1490 p3        1 AKM      2.705000
      6 O3P        -1.1490   -3.0840    1.1010 o         1 AKM     -1.216333
      7 O1          0.9800   -4.0170    0.1230 o         1 AKM     -0.759000
      8 C1          0.9830   -5.3620    0.4550 c3        1 AKM      0.201000
      9 C2          2.1670   -6.0200   -0.1960 c3        1 AKM     -0.208000
     10 C3          2.0320   -6.0950   -1.6670 c3        1 AKM      0.024000
     11 C3M         2.1270   -4.6490   -2.2570 c3        1 AKM     -0.255000
     12 N3          3.0970   -6.8780   -2.1890 n3        1 AKM     -0.358000
     13 C4          0.7350   -6.7020   -2.0840 c3        1 AKM      0.173000
     14 O4A         0.6030   -6.5800   -3.4800 oh        1 AKM     -0.366500
     15 O4B         0.7410   -8.0690   -1.7440 oh        1 AKM     -0.366500
     16 C5         -0.4470   -6.0400   -1.4220 c3        1 AKM      0.032000
     17 C6         -1.6880   -6.8220   -1.7500 c3        1 AKM     -0.206000
     18 O5         -0.3060   -5.9650    0.0300 os        1 AKM     -0.296000
     19 O4P         0.8380   -3.3170    2.5420 o         1 AKM     -1.216333
     20 O5'         0.7820    1.0540    0.8310 os        1 AKM     -0.755000
     21 C5'         0.6780    2.2980    1.4850 c3        1 AKM      0.043000
     22 C4'         0.6580    3.4140    0.4510 c3        1 AKM     -0.037000
     23 C3'         1.4730    4.6810    0.9850 c3        1 AKM     -0.009000
     24 O3'         2.6000    4.8240    0.3020 oh        1 AKM     -0.351000
     25 C2'         0.5580    5.8880    0.7580 c3        1 AKM     -0.190000
     26 C1'        -0.4110    5.4420   -0.0230 c3        1 AKM      0.156000
     27 O4'        -0.5360    3.8350    0.2770 os        1 AKM     -0.280000
     28 N11        -1.6030    6.0790    0.2840 n         1 AKM     -0.269000
     29 C21        -2.8050    5.8000   -0.5000 c2        1 AKM      0.394000
     30 O21        -2.8060    4.8890   -1.3050 o         1 AKM     -0.425000
     31 N31        -4.0010    6.6180   -0.3220 n         1 AKM     -0.375000
     32 C41        -4.0590    7.5700    0.7280 c2        1 AKM      0.356000
     33 O41        -5.0970    8.1560    0.9590 o         1 AKM     -0.386000
     34 C51        -2.8820    7.7920    1.5810 c2        1 AKM     -0.247000
     35 C5A        -2.9050    8.8760    2.6310 c3        1 AKM     -0.161000
     36 C61        -1.6470    7.0350    1.3330 c2        1 AKM      0.047000
     37 H2          1.0680   -5.4480    1.4250 h2        1 AKM      0.147000
     38 H3          2.9730   -5.5100    0.0220 hc        1 AKM      0.112500
     39 H4          2.2610   -6.9270    0.1600 hc        1 AKM      0.112500
     40 H5          2.3040   -4.7000   -3.2200 hc        1 AKM      0.101667
     41 H6          1.2800   -4.1780   -2.1060 hc        1 AKM      0.101667
     42 H7          2.8540   -4.1630   -1.8160 hc        1 AKM      0.101667
     43 H8          3.4390   -6.4710   -2.9350 hn        1 AKM      0.144000
     44 H9          3.7550   -6.9600   -1.5570 hn        1 AKM      0.144000
     45 H11         0.3880   -7.3700   -3.8280 ho        1 AKM      0.207500
     46 H12         1.1460   -8.5330   -2.3880 ho        1 AKM      0.207500
     47 H13        -0.5420   -5.1350   -1.7770 h1        1 AKM      0.118000
     48 H14        -1.7640   -6.9210   -2.7220 hc        1 AKM      0.071333
     49 H15        -1.6350   -7.7070   -1.3340 hc        1 AKM      0.071333
     50 H16        -2.4740   -6.3460   -1.4070 hc        1 AKM      0.071333
     51 H18         1.4460    2.4200    2.0810 h1        1 AKM      0.082500
     52 H19        -0.1490    2.3240    2.0090 h1        1 AKM      0.082500
     53 H20         1.0340    3.1010   -0.3950 h1        1 AKM      0.093000
     54 H21         1.6670    4.5800    1.9390 h1        1 AKM      0.165000
     55 H22         3.2250    5.1720    0.8310 ho        1 AKM      0.228000
     56 H23         0.1910    6.2020    1.6090 hc        1 AKM      0.104000
     57 H24         1.0500    6.6090    0.3110 hc        1 AKM      0.104000
     58 H25        -0.1820    5.5920   -0.9630 h2        1 AKM      0.137000
     59 H26        -4.7220    6.4970   -0.8680 hn        1 AKM      0.241000
     60 H27        -3.1220    9.7340    2.2100 hc        1 AKM      0.098667
     61 H28        -3.5830    8.6630    3.3050 hc        1 AKM      0.098667
     62 H29        -2.0260    8.9350    3.0590 hc        1 AKM      0.098667
     63 H30        -0.8390    7.2390    1.8400 h4        1 AKM      0.270000
@<TRIPOS>BOND
     1    1    2 1   
     2    2    3 1   
     3    2   20 1   
     4    4    5 1   
     5    5    6 1   
     6    5   19 1   
     7    7    8 1   
     8    8    9 1   
     9    8   18 1   
    10    8   37 1   
    11    9   10 1   
    12    9   38 1   
    13    9   39 1   
    14   10   11 1   
    15   10   12 1   
    16   10   13 1   
    17   11   40 1   
    18   11   41 1   
    19   11   42 1   
    20   12   43 1   
    21   12   44 1   
    22   13   14 1   
    23   13   15 1   
    24   13   16 1   
    25   14   45 1   
    26   15   46 1   
    27   16   17 1   
    28   16   18 1   
    29   16   47 1   
    30   17   48 1   
    31   17   49 1   
    32   17   50 1   
    33   20   21 1   
    34   21   22 1   
    35   21   51 1   
    36   21   52 1   
    37   22   23 1   
    38   22   27 1   
    39   22   53 1   
    40   23   24 1   
    41   23   25 1   
    42   23   54 1   
    43   24   55 1   
    44   25   26 1   
    45   25   56 1   
    46   25   57 1   
    47   26   27 1   
    48   26   28 1   
    49   26   58 1   
    50   28   29 1   
    51   28   36 1   
    52   29   30 1   
    53   29   31 1   
    54   31   32 1   
    55   31   59 1   
    56   32   33 1   
    57   32   34 1   
    58   34   35 1   
    59   34   36 1   
    60   35   60 1   
    61   35   61 1   
    62   35   62 1   
    63   36   63 1   
@<TRIPOS>SUBSTRUCTURE
     1 AKM         1 TEMP              0 ****  ****    0 ROOT
