@<TRIPOS>MOLECULE
AKR
    8     7     1     0     0
SMALL
bcc


@<TRIPOS>ATOM
      1 CA         -0.6640   -0.0000   -0.8550 ce        1 AKR     -0.203200
      2 CB         -0.0240    0.0000   -2.0200 c2        1 AKR     -0.261000
      3 C           0.0280   -0.0000    0.4890 c         1 AKR      0.890800
      4 O           1.2930    0.0000    0.5350 o         1 AKR     -0.845800
      5 OXT        -0.7090   -0.0000    1.5190 o         1 AKR     -0.845800
      6 HA1        -1.7640   -0.0000   -0.7970 ha        1 AKR      0.091000
      7 HB2        -0.5380    0.0000   -2.9890 ha        1 AKR      0.086500
      8 HB3         1.0740    0.0000   -2.0670 ha        1 AKR      0.086500
@<TRIPOS>BOND
     1    1    2 2   
     2    1    3 1   
     3    1    6 1   
     4    2    7 1   
     5    2    8 1   
     6    3    4 1   
     7    3    5 1   
@<TRIPOS>SUBSTRUCTURE
     1 AKR         1 TEMP              0 ****  ****    0 ROOT
