@<TRIPOS>MOLECULE
AKR
    8     7     1     0     0
SMALL
bcc


@<TRIPOS>ATOM
      1 CA          0.0130    0.0000    0.0190 ce        1 AKR     -0.203200
      2 CB          1.3410   -0.0000   -0.0270 c2        1 AKR     -0.261000
      3 C          -0.7870    0.0000    1.3010 c         1 AKR      0.890800
      4 O          -0.1800   -0.0000    2.4120 o         1 AKR     -0.845800
      5 OXT        -2.0500    0.0000    1.1950 o         1 AKR     -0.845800
      6 HA1        -0.6000    0.0000   -0.8960 ha        1 AKR      0.091000
      7 HB2         1.9430   -0.0000    0.8920 ha        1 AKR      0.086500
      8 HB3         1.9110   -0.0000   -0.9650 ha        1 AKR      0.086500
@<TRIPOS>BOND
     1    1    2 2   
     2    1    3 1   
     3    1    6 1   
     4    2    7 1   
     5    2    8 1   
     6    3    4 1   
     7    3    5 1   
@<TRIPOS>SUBSTRUCTURE
     1 AKR         1 TEMP              0 ****  ****    0 ROOT
