@<TRIPOS>MOLECULE
AKR
    8     5     1     0     0
SMALL
bcc


@<TRIPOS>ATOM
      1 CA         -0.2040   -0.0000   -0.5220 c1        1 AKR     -0.161000
      2 CB          1.1440   -0.0000   -0.5220 c1        1 AKR     -0.161000
      3 C          -0.9600   -0.0000    0.7880 c1        1 AKR      0.813000
      4 O          -1.2760   -1.0900    1.3330 o         1 AKR     -0.811500
      5 OXT        -1.2750    1.0900    1.3330 o         1 AKR     -0.811500
      6 HA1        -0.6920   -0.0000   -1.3670 ha        1 AKR      0.017000
      7 HB2         1.6320   -0.0000    0.3230 DU        1 AKR      0.098000
      8 HB3         1.6320   -0.0000   -1.3670 ha        1 AKR      0.017000
@<TRIPOS>BOND
     1    1    2 3   
     2    1    6 1   
     3    2    8 1   
     4    3    4 2   
     5    3    5 2   
@<TRIPOS>SUBSTRUCTURE
     1 AKR         1 TEMP              0 ****  ****    0 ROOT
