@<TRIPOS>MOLECULE
AKT
   71    75     1     0     0
SMALL
bcc


@<TRIPOS>ATOM
      1 O12        -0.0360   -0.6010   -0.2680 o         1 AKT     -0.503100
      2 C12         1.1950   -0.4930   -0.2160 c         1 AKT      0.579300
      3 C15         1.9320   -0.5260    1.0650 ca        1 AKT     -0.096600
      4 C1          1.2260   -0.3590    2.2560 ca        1 AKT     -0.116000
      5 C2          1.9020   -0.3670    3.4810 ca        1 AKT     -0.065000
      6 C3          3.2760   -0.5440    3.5200 ca        1 AKT     -0.199000
      7 C16         3.3260   -0.7220    1.0760 ca        1 AKT     -0.171600
      8 C4          3.9910   -0.7240    2.3180 ca        1 AKT      0.179100
      9 O4          5.3510   -0.8890    2.3040 oh        1 AKT     -0.466100
     10 C5          4.0660   -0.9330   -0.1770 c         1 AKT      0.609300
     11 O5          5.1920   -1.4570   -0.2040 o         1 AKT     -0.545100
     12 C18         2.0060   -0.2980   -1.4430 ca        1 AKT     -0.080600
     13 C17         3.4000   -0.4970   -1.4210 ca        1 AKT     -0.221600
     14 C6          4.1190   -0.2950   -2.6130 ca        1 AKT      0.198100
     15 O6          5.4740   -0.4640   -2.7350 oh        1 AKT     -0.523100
     16 C11         1.3590    0.0760   -2.6150 ca        1 AKT     -0.127000
     17 C19         2.0810    0.2740   -3.8060 ca        1 AKT      0.000700
     18 C10         1.3270    0.6960   -5.0160 c3        1 AKT     -0.072100
     19 C20         3.4610    0.0990   -3.8070 ca        1 AKT     -0.120300
     20 C7          4.2850    0.2860   -5.0450 c3        1 AKT      0.221400
     21 C8          3.5480    0.9940   -6.1730 c3        1 AKT     -0.091400
     22 C9          2.0890    0.5640   -6.3370 c3        1 AKT      0.161800
     23 O9          2.1160   -0.7920   -6.7840 oh        1 AKT     -0.606800
     24 C13         1.4370    1.4500   -7.4120 c3        1 AKT     -0.112400
     25 C14        -0.0180    1.1450   -7.6540 c3        1 AKT     -0.101100
     26 O7          4.6620   -1.0350   -5.4800 os        1 AKT     -0.439600
     27 C1'         6.0060   -1.1930   -5.8640 c3        1 AKT      0.338900
     28 C2'         6.3830   -2.6550   -5.5780 c3        1 AKT     -0.129400
     29 C3'         5.4740   -3.5730   -6.3970 c3        1 AKT      0.095500
     30 N3'         5.8200   -5.0380   -6.2170 nx        1 AKT     -0.677400
     31 C8'         6.1590   -5.3720   -4.8120 c3        1 AKT      0.084100
     32 C7'         4.7120   -5.9050   -6.6940 c3        1 AKT      0.084100
     33 C4'         5.5780   -3.1800   -7.9000 c3        1 AKT      0.098100
     34 O4'         6.8770   -3.4910   -8.3580 oh        1 AKT     -0.612800
     35 C5'         5.1960   -1.6950   -8.0480 c3        1 AKT      0.106100
     36 O5'         6.0730   -0.8980   -7.2480 os        1 AKT     -0.434600
     37 C6'         5.3540   -1.2200   -9.4780 c3        1 AKT     -0.095100
     38 H2          0.1320   -0.2230    2.2230 ha        1 AKT      0.167000
     39 H3          1.3370   -0.2320    4.4170 ha        1 AKT      0.154000
     40 H4          3.8140   -0.5470    4.4800 ha        1 AKT      0.150000
     41 HO4         5.6680   -0.8800    3.2210 ho        1 AKT      0.429000
     42 HO6         5.8780   -0.5590   -1.8550 ho        1 AKT      0.463000
     43 H11         0.2640    0.2130   -2.6070 ha        1 AKT      0.167000
     44 H101        0.3780    0.0950   -5.0830 hc        1 AKT      0.073700
     45 H102        1.0300    1.7730   -4.8810 hc        1 AKT      0.073700
     46 H7          5.2100    0.8790   -4.7810 h1        1 AKT      0.069700
     47 H81         4.0960    0.7910   -7.1320 hc        1 AKT      0.072200
     48 H82         3.5660    2.0970   -5.9720 hc        1 AKT      0.072200
     49 HO9         1.1970   -1.0680   -6.8920 ho        1 AKT      0.405000
     50 H131        1.5470    2.5230   -7.1040 hc        1 AKT      0.057200
     51 H132        2.0100    1.3100   -8.3670 hc        1 AKT      0.057200
     52 H141       -0.6220    1.3010   -6.7280 hc        1 AKT      0.041700
     53 H142       -0.1580    0.0910   -7.9960 hc        1 AKT      0.041700
     54 H143       -0.4180    1.8210   -8.4490 hc        1 AKT      0.041700
     55 H1'         6.7180   -0.4770   -5.3680 h2        1 AKT      0.114700
     56 H2'1        7.4570   -2.8030   -5.8590 hc        1 AKT      0.083200
     57 H2'2        6.2530   -2.8230   -4.4780 hc        1 AKT      0.083200
     58 H3'         4.4060   -3.4240   -6.0530 hx        1 AKT      0.133700
     59 H8'1        7.1280   -4.8800   -4.5300 hx        1 AKT      0.102200
     60 H8'2        5.3410   -5.0130   -4.1310 hx        1 AKT      0.102200
     61 H8'3        6.2690   -6.4860   -4.7110 hx        1 AKT      0.102200
     62 H7'1        4.4970   -5.6830   -7.7730 hx        1 AKT      0.102200
     63 H7'2        5.0150   -6.9820   -6.5930 hx        1 AKT      0.102200
     64 H7'3        3.7940   -5.7140   -6.0790 hx        1 AKT      0.102200
     65 H4'         4.8780   -3.8000   -8.5270 h1        1 AKT      0.086700
     66 H1          7.4120   -2.6840   -8.3170 ho        1 AKT      0.443000
     67 H5'         4.1330   -1.5500   -7.6910 h1        1 AKT      0.113700
     68 H6'1        6.3920   -1.4000   -9.8480 hc        1 AKT      0.061033
     69 H6'2        4.6320   -1.7630  -10.1310 hc        1 AKT      0.061033
     70 H6'3        5.1450   -0.1230   -9.5290 hc        1 AKT      0.061033
     71 H3'1        6.6500   -5.2140   -6.8090 hn        1 AKT      0.463800
@<TRIPOS>BOND
     1    1    2 2   
     2    2    3 1   
     3    2   12 1   
     4    3    4 ar  
     5    3    7 ar  
     6    4    5 ar  
     7    4   38 1   
     8    5    6 ar  
     9    5   39 1   
    10    6    8 ar  
    11    6   40 1   
    12    7    8 ar  
    13    7   10 1   
    14    8    9 1   
    15    9   41 1   
    16   10   11 2   
    17   10   13 1   
    18   12   13 ar  
    19   12   16 ar  
    20   13   14 ar  
    21   14   15 1   
    22   14   19 ar  
    23   15   42 1   
    24   16   17 ar  
    25   16   43 1   
    26   17   18 1   
    27   17   19 ar  
    28   18   22 1   
    29   18   44 1   
    30   18   45 1   
    31   19   20 1   
    32   20   21 1   
    33   20   26 1   
    34   20   46 1   
    35   21   22 1   
    36   21   47 1   
    37   21   48 1   
    38   22   23 1   
    39   22   24 1   
    40   23   49 1   
    41   24   25 1   
    42   24   50 1   
    43   24   51 1   
    44   25   52 1   
    45   25   53 1   
    46   25   54 1   
    47   26   27 1   
    48   27   28 1   
    49   27   36 1   
    50   27   55 1   
    51   28   29 1   
    52   28   56 1   
    53   28   57 1   
    54   29   30 1   
    55   29   33 1   
    56   29   58 1   
    57   30   31 1   
    58   30   32 1   
    59   30   71 1   
    60   31   59 1   
    61   31   60 1   
    62   31   61 1   
    63   32   62 1   
    64   32   63 1   
    65   32   64 1   
    66   33   34 1   
    67   33   35 1   
    68   33   65 1   
    69   34   66 1   
    70   35   36 1   
    71   35   37 1   
    72   35   67 1   
    73   37   68 1   
    74   37   69 1   
    75   37   70 1   
@<TRIPOS>SUBSTRUCTURE
     1 AKT         1 TEMP              0 ****  ****    0 ROOT
