@<TRIPOS>MOLECULE
AKT
   71    75     1     0     0
SMALL
bcc


@<TRIPOS>ATOM
      1 O12        -0.0360   -0.6100   -0.2650 o         1 AKT     -0.503100
      2 C12         1.1940   -0.4890   -0.2120 c         1 AKT      0.579300
      3 C15         1.9290   -0.5090    1.0710 ca        1 AKT     -0.096600
      4 C1          1.2190   -0.3440    2.2590 ca        1 AKT     -0.116000
      5 C2          1.8940   -0.3400    3.4860 ca        1 AKT     -0.065000
      6 C3          3.2700   -0.5030    3.5280 ca        1 AKT     -0.199000
      7 C16         3.3240   -0.6920    1.0850 ca        1 AKT     -0.171600
      8 C4          3.9880   -0.6810    2.3280 ca        1 AKT      0.179100
      9 O4          5.3490   -0.8340    2.3160 oh        1 AKT     -0.466100
     10 C5          4.0690   -0.9020   -0.1660 c         1 AKT      0.609300
     11 O5          5.2000   -1.4150   -0.1900 o         1 AKT     -0.545100
     12 C18         2.0040   -0.2920   -1.4380 ca        1 AKT     -0.080600
     13 C17         3.4000   -0.4790   -1.4140 ca        1 AKT     -0.221600
     14 C6          4.1190   -0.2750   -2.6050 ca        1 AKT      0.198100
     15 O6          5.4750   -0.4320   -2.7250 oh        1 AKT     -0.523100
     16 C11         1.3560    0.0720   -2.6120 ca        1 AKT     -0.128000
     17 C19         2.0780    0.2710   -3.8030 ca        1 AKT      0.000700
     18 C10         1.3210    0.6830   -5.0150 c3        1 AKT     -0.072100
     19 C20         3.4590    0.1080   -3.8020 ca        1 AKT     -0.120300
     20 C7          4.2820    0.2980   -5.0400 c3        1 AKT      0.221400
     21 C8          3.5420    1.0030   -6.1670 c3        1 AKT     -0.091400
     22 C9          2.0870    0.5620   -6.3350 c3        1 AKT      0.161800
     23 O9          2.1260   -0.7930   -6.7860 oh        1 AKT     -0.606800
     24 C13         1.4300    1.4450   -7.4090 c3        1 AKT     -0.112400
     25 C14        -0.0210    1.1280   -7.6560 c3        1 AKT     -0.101100
     26 O7          4.6640   -1.0230   -5.4750 os        1 AKT     -0.439600
     27 C1'         6.0110   -1.1780   -5.8490 c3        1 AKT      0.338900
     28 C2'         6.3840   -2.6430   -5.5750 c3        1 AKT     -0.129400
     29 C3'         5.4830   -3.5520   -6.4140 c3        1 AKT      0.095500
     30 N3'         5.8260   -5.0190   -6.2470 n4        1 AKT     -0.677400
     31 C8'         6.1500   -5.3700   -4.8430 c3        1 AKT      0.084100
     32 C7'         4.7230   -5.8800   -6.7460 c3        1 AKT      0.084100
     33 C4'         5.6020   -3.1410   -7.9120 c3        1 AKT      0.098100
     34 O4'         6.9060   -3.4480   -8.3590 oh        1 AKT     -0.612800
     35 C5'         5.2220   -1.6550   -8.0460 c3        1 AKT      0.106100
     36 O5'         6.0920   -0.8680   -7.2290 os        1 AKT     -0.434600
     37 C6'         5.3940   -1.1630   -9.4680 c3        1 AKT     -0.095100
     38 H2          0.1240   -0.2180    2.2240 ha        1 AKT      0.167000
     39 H3          1.3250   -0.2060    4.4200 ha        1 AKT      0.154000
     40 H4          3.8060   -0.4970    4.4890 ha        1 AKT      0.150000
     41 HO4         5.6640   -0.8180    3.2340 ho        1 AKT      0.429000
     42 HO6         5.8800   -0.5220   -1.8450 ho        1 AKT      0.463000
     43 H11         0.2600    0.1990   -2.6060 ha        1 AKT      0.167000
     44 H101        1.0100    1.7570   -4.8810 hc        1 AKT      0.073700
     45 H102        0.3800    0.0710   -5.0840 hc        1 AKT      0.073700
     46 H7          5.2050    0.8940   -4.7770 h1        1 AKT      0.070700
     47 H81         4.0940    0.8080   -7.1250 hc        1 AKT      0.072200
     48 H82         3.5510    2.1050   -5.9630 hc        1 AKT      0.072200
     49 HO9         1.2100   -1.0760   -6.8960 ho        1 AKT      0.405000
     50 H131        2.0060    1.3130   -8.3630 hc        1 AKT      0.057200
     51 H132        1.5300    2.5180   -7.0980 hc        1 AKT      0.057200
     52 H141       -0.4260    1.8040   -8.4480 hc        1 AKT      0.041700
     53 H142       -0.1520    0.0740   -8.0030 hc        1 AKT      0.041700
     54 H143       -0.6290    1.2740   -6.7300 hc        1 AKT      0.041700
     55 H1'         6.7200   -0.4680   -5.3370 h2        1 AKT      0.114700
     56 H2'1        7.4610   -2.7890   -5.8470 hc        1 AKT      0.083200
     57 H2'2        6.2420   -2.8250   -4.4780 hc        1 AKT      0.083200
     58 H3'         4.4120   -3.4060   -6.0790 hx        1 AKT      0.133700
     59 H8'1        7.1170   -4.8810   -4.5450 hx        1 AKT      0.102200
     60 H8'2        5.3260   -5.0180   -4.1670 hx        1 AKT      0.102200
     61 H8'3        6.2590   -6.4840   -4.7540 hx        1 AKT      0.102200
     62 H7'1        5.0240   -6.9580   -6.6540 hx        1 AKT      0.102200
     63 H7'2        4.5190   -5.6440   -7.8240 hx        1 AKT      0.102200
     64 H7'3        3.7980   -5.6950   -6.1380 hx        1 AKT      0.102200
     65 H4'         4.9090   -3.7550   -8.5530 h1        1 AKT      0.086700
     66 H1          7.4410   -2.6410   -8.3030 ho        1 AKT      0.443000
     67 H5'         4.1560   -1.5140   -7.6970 h1        1 AKT      0.112700
     68 H6'1        4.6780   -1.6990  -10.1350 hc        1 AKT      0.061033
     69 H6'2        6.4350   -1.3400   -9.8310 hc        1 AKT      0.061033
     70 H6'3        5.1860   -0.0660   -9.5090 hc        1 AKT      0.061033
     71 H3'1        6.6620   -5.1880   -6.8320 hn        1 AKT      0.463800
@<TRIPOS>BOND
     1    1    2 2   
     2    2    3 1   
     3    2   12 1   
     4    3    4 ar  
     5    3    7 ar  
     6    4    5 ar  
     7    4   38 1   
     8    5    6 ar  
     9    5   39 1   
    10    6    8 ar  
    11    6   40 1   
    12    7    8 ar  
    13    7   10 1   
    14    8    9 1   
    15    9   41 1   
    16   10   11 2   
    17   10   13 1   
    18   12   13 ar  
    19   12   16 ar  
    20   13   14 ar  
    21   14   15 1   
    22   14   19 ar  
    23   15   42 1   
    24   16   17 ar  
    25   16   43 1   
    26   17   18 1   
    27   17   19 ar  
    28   18   22 1   
    29   18   44 1   
    30   18   45 1   
    31   19   20 1   
    32   20   21 1   
    33   20   26 1   
    34   20   46 1   
    35   21   22 1   
    36   21   47 1   
    37   21   48 1   
    38   22   23 1   
    39   22   24 1   
    40   23   49 1   
    41   24   25 1   
    42   24   50 1   
    43   24   51 1   
    44   25   52 1   
    45   25   53 1   
    46   25   54 1   
    47   26   27 1   
    48   27   28 1   
    49   27   36 1   
    50   27   55 1   
    51   28   29 1   
    52   28   56 1   
    53   28   57 1   
    54   29   30 1   
    55   29   33 1   
    56   29   58 1   
    57   30   31 1   
    58   30   32 1   
    59   30   71 1   
    60   31   59 1   
    61   31   60 1   
    62   31   61 1   
    63   32   62 1   
    64   32   63 1   
    65   32   64 1   
    66   33   34 1   
    67   33   35 1   
    68   33   65 1   
    69   34   66 1   
    70   35   36 1   
    71   35   37 1   
    72   35   67 1   
    73   37   68 1   
    74   37   69 1   
    75   37   70 1   
@<TRIPOS>SUBSTRUCTURE
     1 AKT         1 TEMP              0 ****  ****    0 ROOT
