@<TRIPOS>MOLECULE
AKT
   70    69     1     0     0
SMALL
bcc


@<TRIPOS>ATOM
      1 O12        -4.6160    1.5860    3.4970 o         1 AKT     -0.279000
      2 C12        -3.4070    1.5230    3.5520 c1        1 AKT      0.300000
      3 C15        -2.7020    1.4370    4.9120 c1        1 AKT     -0.071000
      4 C1         -3.4590    1.4420    6.1010 c2        1 AKT     -0.123000
      5 C2         -2.8130    1.4350    7.3470 c1        1 AKT     -0.079000
      6 C3         -1.4060    1.4240    7.4100 c1        1 AKT     -0.155000
      7 C16        -1.3010    1.4260    4.9750 c1        1 AKT     -0.203000
      8 C4         -0.6490    1.4200    6.2260 c1        1 AKT      0.156000
      9 O4          0.7030    1.6130    6.7310 oh        1 AKT     -0.254000
     10 C5         -0.4730    1.4800    3.6790 c2        1 AKT      0.344000
     11 O5          0.7140    1.5340    3.7340 o         1 AKT     -0.375000
     12 C18        -2.5900    1.4450    2.2710 c2        1 AKT     -0.066000
     13 C17        -1.1640    1.4280    2.3390 c2        1 AKT     -0.213000
     14 C6         -0.3710    1.3080    1.1200 c1        1 AKT      0.174000
     15 O6          0.8490    1.8970    1.6620 o         1 AKT     -0.263000
     16 C11        -3.2550    1.3440    0.9920 c1        1 AKT     -0.129000
     17 C19        -2.5040    1.2290   -0.1770 c1        1 AKT      0.012000
     18 C10        -3.1740    1.0410   -1.5960 c3        1 AKT     -0.165000
     19 C20        -0.9980    1.2110   -0.1030 c2        1 AKT     -0.110000
     20 C7         -0.1770    1.1650   -1.5020 c3        1 AKT      0.089000
     21 C8         -0.9340    1.3250   -2.6790 c3        1 AKT     -0.159000
     22 C9         -2.2790    0.7080   -2.7000 c3        1 AKT      0.092000
     23 O9         -2.9040    1.0850   -3.8840 oh        1 AKT     -0.326000
     24 C13        -2.0820   -0.9110   -2.7140 c3        1 AKT     -0.186000
     25 C14        -3.3170   -1.5800   -3.3800 c3        1 AKT     -0.217000
     26 O7          0.5430   -0.1660   -1.5810 os        1 AKT     -0.272000
     27 C1'         1.6230    0.0030   -1.8020 c3        1 AKT      0.157000
     28 C2'         2.5720   -1.2410   -1.0150 c3        1 AKT     -0.178000
     29 C3'         2.5330   -1.5940   -1.2100 c3        1 AKT     -0.048000
     30 N3'         3.6980   -2.8700   -0.4260 n3        1 AKT     -0.274000
     31 C8'         3.0870   -3.4060    0.7560 c3        1 AKT     -0.119500
     32 C7'         3.9310   -3.9260   -1.3520 c3        1 AKT     -0.119500
     33 C4'         2.9790   -1.4060   -2.9520 c3        1 AKT      0.008000
     34 O4'         4.1090   -1.3150   -3.0370 oh        1 AKT     -0.330000
     35 C5'         2.2100    0.0260   -3.7150 c3        1 AKT      0.044000
     36 O5'         1.8690    0.0360   -3.6370 os        1 AKT     -0.310000
     37 C6'         3.0350    1.6000   -3.0530 c3        1 AKT     -0.227000
     38 H2         -4.4500    1.4500    6.0580 ha        1 AKT      0.163000
     39 H3         -3.3310    1.4380    8.1570 ha        1 AKT      0.146000
     40 H4         -0.9400    1.4190    8.3100 ha        1 AKT      0.160000
     41 HO4         1.1780    0.8470    6.6220 ho        1 AKT      0.261000
     42 HO6         0.9770    2.7150    1.2990 ho        1 AKT      0.263000
     43 H11        -4.2160    1.4180    0.9420 ha        1 AKT      0.162000
     44 H101       -3.6500    1.8920   -1.8260 hc        1 AKT      0.108000
     45 H102       -3.8460    0.3230   -1.5230 hc        1 AKT      0.108000
     46 H7          0.5000    1.8760   -1.4780 h1        1 AKT      0.119000
     47 H81        -1.0430    2.3080   -2.8440 hc        1 AKT      0.113500
     48 H82        -0.4120    0.9410   -3.4350 hc        1 AKT      0.113500
     49 HO9        -3.7390    1.2460   -3.7320 ho        1 AKT      0.199000
     50 H131       -1.2800   -1.1370   -3.2170 hc        1 AKT      0.105500
     51 H132       -1.9930   -1.2230   -1.8250 hc        1 AKT      0.105500
     52 H141       -3.0760   -2.5020   -3.6750 hc        1 AKT      0.073000
     53 H142       -4.0590   -1.6230   -2.7250 hc        1 AKT      0.073000
     54 H143       -3.5920   -1.0640   -4.1400 hc        1 AKT      0.073000
     55 H1'         1.8800    0.8730   -1.4340 h2        1 AKT      0.106000
     56 H2'1        2.2620   -1.3500   -0.0700 hc        1 AKT      0.108000
     57 H2'2        3.5600   -0.9640   -1.0160 hc        1 AKT      0.108000
     58 H3'         1.6390   -1.8970   -1.1420 h1        1 AKT      0.094000
     59 H8'1        2.1360   -3.4110    0.6490 h1        1 AKT      0.073167
     60 H8'2        3.4150   -4.3570    0.9070 h1        1 AKT      0.073167
     61 H8'3        3.3220   -2.8610    1.5160 h1        1 AKT      0.073167
     62 H7'1        4.6780   -3.7030   -1.9080 h1        1 AKT      0.073167
     63 H7'2        4.1220   -4.7430   -0.8690 h1        1 AKT      0.073167
     64 H7'3        3.1190   -4.0570   -1.9180 h1        1 AKT      0.073167
     65 H4'         2.6900   -2.2130   -3.4360 h1        1 AKT      0.082000
     66 H1          4.4300   -2.0190   -3.4770 ho        1 AKT      0.218000
     67 H5'         2.3290   -0.0170   -4.7120 h1        1 AKT      0.108000
     68 H6'1        2.4890    2.4090   -3.3240 hc        1 AKT      0.087667
     69 H6'2        3.9350    1.6790   -3.4260 hc        1 AKT      0.087667
     70 H6'3        3.0860    1.5510   -2.0970 hc        1 AKT      0.087667
@<TRIPOS>BOND
     1    1    2 1   
     2    2   12 1   
     3    3    4 1   
     4    3    7 1   
     5    4    5 1   
     6    4   38 1   
     7    5   39 1   
     8    6    8 1   
     9    6   40 1   
    10    7   10 1   
    11    8    9 1   
    12    9   41 1   
    13   10   11 1   
    14   10   13 1   
    15   12   13 1   
    16   12   16 1   
    17   13   14 1   
    18   14   19 1   
    19   15   42 1   
    20   16   43 1   
    21   17   18 1   
    22   17   19 1   
    23   18   22 1   
    24   18   44 1   
    25   18   45 1   
    26   19   20 1   
    27   20   21 1   
    28   20   26 1   
    29   20   46 1   
    30   21   22 1   
    31   21   47 1   
    32   21   48 1   
    33   22   23 1   
    34   22   24 1   
    35   23   49 1   
    36   24   25 1   
    37   24   50 1   
    38   24   51 1   
    39   25   52 1   
    40   25   53 1   
    41   25   54 1   
    42   26   27 1   
    43   27   28 1   
    44   27   36 1   
    45   27   55 1   
    46   28   29 1   
    47   28   56 1   
    48   28   57 1   
    49   29   30 1   
    50   29   33 1   
    51   29   58 1   
    52   30   31 1   
    53   30   32 1   
    54   31   59 1   
    55   31   60 1   
    56   31   61 1   
    57   32   62 1   
    58   32   63 1   
    59   32   64 1   
    60   33   34 1   
    61   33   35 1   
    62   33   65 1   
    63   34   66 1   
    64   35   36 1   
    65   35   37 1   
    66   35   67 1   
    67   37   68 1   
    68   37   69 1   
    69   37   70 1   
@<TRIPOS>SUBSTRUCTURE
     1 AKT         1 TEMP              0 ****  ****    0 ROOT
