@<TRIPOS>MOLECULE
AKT
   70    74     1     0     0
SMALL
bcc


@<TRIPOS>ATOM
      1 O12        -4.4440    2.0560   -1.7230 o         1 AKT     -0.520100
      2 C12        -4.1820    1.1450   -0.9240 c         1 AKT      0.581300
      3 C15        -5.2070    0.1580   -0.5230 ca        1 AKT     -0.091600
      4 C1         -6.5210    0.3830   -0.9200 ca        1 AKT     -0.123000
      5 C2         -7.5320   -0.5200   -0.5640 ca        1 AKT     -0.079000
      6 C3         -7.2250   -1.6450    0.1750 ca        1 AKT     -0.154000
      7 C16        -4.8590   -0.9820    0.2360 ca        1 AKT     -0.223600
      8 C4         -5.8860   -1.8870    0.5740 ca        1 AKT      0.202100
      9 O4         -5.7400   -3.0370    1.2930 oh        1 AKT     -0.500100
     10 C5         -3.4640   -1.2000    0.6480 c         1 AKT      0.625300
     11 O5         -3.1230   -2.2770    1.1820 o         1 AKT     -0.616100
     12 C18        -2.8370    1.0140   -0.3230 ca        1 AKT     -0.085600
     13 C17        -2.4840   -0.1260    0.4330 ca        1 AKT     -0.233600
     14 C6         -1.1770   -0.1880    0.9540 ca        1 AKT      0.222100
     15 O6         -0.6760   -1.2100    1.7100 oh        1 AKT     -0.507100
     16 C11        -1.9320    2.0440   -0.5280 ca        1 AKT     -0.130000
     17 C19        -0.6300    1.9850    0.0110 ca        1 AKT      0.002700
     18 C10         0.2600    3.1540   -0.2210 c3        1 AKT     -0.069100
     19 C20        -0.2480    0.8730    0.7460 ca        1 AKT     -0.105300
     20 C7          1.1340    0.7440    1.3180 c3        1 AKT      0.212400
     21 C8          1.8270    2.0930    1.4600 c3        1 AKT     -0.088400
     22 C9          1.7170    2.9880    0.2250 c3        1 AKT      0.162800
     23 O9          2.5050    2.3690   -0.7880 oh        1 AKT     -0.580800
     24 C13         2.3140    4.3660    0.5650 c3        1 AKT     -0.112400
     25 C14         2.3050    5.3290   -0.5930 c3        1 AKT     -0.099100
     26 O7          1.8800   -0.1000    0.4300 os        1 AKT     -0.419600
     27 C1'         2.6080   -1.1360    1.0660 c3        1 AKT      0.322900
     28 C2'         2.9690   -2.1770    0.0100 c3        1 AKT     -0.095400
     29 C3'         4.0010   -1.6310   -0.9920 c3        1 AKT      0.159500
     30 N3'         4.3350   -2.6540   -1.9860 n3        1 AKT     -0.741600
     31 C8'         3.4170   -2.6420   -3.1040 c3        1 AKT      0.159100
     32 C7'         5.7150   -2.7030   -2.4000 c3        1 AKT      0.159100
     33 C4'         5.1980   -1.0510   -0.1970 c3        1 AKT      0.112100
     34 O4'         5.9120   -2.0340    0.5260 oh        1 AKT     -0.590800
     35 C5'         4.6570    0.0490    0.7350 c3        1 AKT      0.097100
     36 O5'         3.7290   -0.5200    1.6710 os        1 AKT     -0.452600
     37 C6'         5.7600    0.6790    1.5600 c3        1 AKT     -0.088100
     38 H2         -6.7610    1.2770   -1.5190 ha        1 AKT      0.163000
     39 H3         -8.5690   -0.3300   -0.8790 ha        1 AKT      0.146000
     40 H4         -7.9970   -2.3740    0.4670 ha        1 AKT      0.161000
     41 HO4        -4.8090   -3.1980    1.5140 ho        1 AKT      0.463000
     42 HO6        -1.3130   -1.9390    1.7810 ho        1 AKT      0.465000
     43 H11        -2.2340    2.9200   -1.1270 ha        1 AKT      0.161000
     44 H101       -0.1850    4.0310    0.3260 hc        1 AKT      0.065700
     45 H102        0.2430    3.4050   -1.3180 hc        1 AKT      0.065700
     46 H7          1.0680    0.2710    2.3410 h1        1 AKT      0.068700
     47 H81         2.9140    1.9040    1.6740 hc        1 AKT      0.068200
     48 H82         1.3750    2.6370    2.3290 hc        1 AKT      0.068200
     49 HO9         2.3850    2.8830   -1.5950 ho        1 AKT      0.397000
     50 H131        3.3720    4.2060    0.9050 hc        1 AKT      0.053200
     51 H132        1.7420    4.8030    1.4240 hc        1 AKT      0.053200
     52 H141        2.7200    6.3150   -0.2700 hc        1 AKT      0.036700
     53 H142        2.9340    4.9480   -1.4340 hc        1 AKT      0.036700
     54 H143        1.2680    5.4930   -0.9720 hc        1 AKT      0.036700
     55 H1'         2.0350   -1.5950    1.9230 h2        1 AKT      0.081700
     56 H2'1        3.3770   -3.0790    0.5350 hc        1 AKT      0.066700
     57 H2'2        2.0330   -2.4760   -0.5280 hc        1 AKT      0.066700
     58 H3'         3.5190   -0.7360   -1.5010 h1        1 AKT      0.055700
     59 H8'1        3.6010   -3.5550   -3.7280 h1        1 AKT      0.032867
     60 H8'2        2.3640   -2.6740   -2.7200 h1        1 AKT      0.032867
     61 H8'3        3.5270   -1.7340   -3.7600 h1        1 AKT      0.032867
     62 H7'1        6.3610   -2.9130   -1.5060 h1        1 AKT      0.032867
     63 H7'2        5.8380   -3.5440   -3.1330 h1        1 AKT      0.032867
     64 H7'3        6.0700   -1.7550   -2.8920 h1        1 AKT      0.032867
     65 H4'         5.9610   -0.6050   -0.8940 h1        1 AKT      0.079700
     66 H1          5.3270   -2.3510    1.2270 ho        1 AKT      0.409000
     67 H5'         4.1170    0.8270    0.1200 h1        1 AKT      0.085700
     68 H6'1        6.4510    1.2380    0.8860 hc        1 AKT      0.046367
     69 H6'2        5.3220    1.3820    2.3080 hc        1 AKT      0.046367
     70 H6'3        6.3360   -0.1110    2.1000 hc        1 AKT      0.046367
@<TRIPOS>BOND
     1    1    2 2   
     2    2    3 1   
     3    2   12 1   
     4    3    4 ar  
     5    3    7 ar  
     6    4    5 ar  
     7    4   38 1   
     8    5    6 ar  
     9    5   39 1   
    10    6    8 ar  
    11    6   40 1   
    12    7    8 ar  
    13    7   10 1   
    14    8    9 1   
    15    9   41 1   
    16   10   11 2   
    17   10   13 1   
    18   12   13 ar  
    19   12   16 ar  
    20   13   14 ar  
    21   14   15 1   
    22   14   19 ar  
    23   15   42 1   
    24   16   17 ar  
    25   16   43 1   
    26   17   18 1   
    27   17   19 ar  
    28   18   22 1   
    29   18   44 1   
    30   18   45 1   
    31   19   20 1   
    32   20   21 1   
    33   20   26 1   
    34   20   46 1   
    35   21   22 1   
    36   21   47 1   
    37   21   48 1   
    38   22   23 1   
    39   22   24 1   
    40   23   49 1   
    41   24   25 1   
    42   24   50 1   
    43   24   51 1   
    44   25   52 1   
    45   25   53 1   
    46   25   54 1   
    47   26   27 1   
    48   27   28 1   
    49   27   36 1   
    50   27   55 1   
    51   28   29 1   
    52   28   56 1   
    53   28   57 1   
    54   29   30 1   
    55   29   33 1   
    56   29   58 1   
    57   30   31 1   
    58   30   32 1   
    59   31   59 1   
    60   31   60 1   
    61   31   61 1   
    62   32   62 1   
    63   32   63 1   
    64   32   64 1   
    65   33   34 1   
    66   33   35 1   
    67   33   65 1   
    68   34   66 1   
    69   35   36 1   
    70   35   37 1   
    71   35   67 1   
    72   37   68 1   
    73   37   69 1   
    74   37   70 1   
@<TRIPOS>SUBSTRUCTURE
     1 AKT         1 TEMP              0 ****  ****    0 ROOT
