@<TRIPOS>MOLECULE
AKT
   71    75     1     0     0
SMALL
bcc


@<TRIPOS>ATOM
      1 O12        -0.0450   -0.6150   -0.2770 o         1 AKT     -0.503100
      2 C12         1.1870   -0.5070   -0.2230 c         1 AKT      0.579300
      3 C15         1.9210   -0.5470    1.0590 ca        1 AKT     -0.096600
      4 C1          1.2140   -0.3840    2.2490 ca        1 AKT     -0.116000
      5 C2          1.8880   -0.3980    3.4760 ca        1 AKT     -0.065000
      6 C3          3.2620   -0.5760    3.5160 ca        1 AKT     -0.199000
      7 C16         3.3150   -0.7450    1.0720 ca        1 AKT     -0.171600
      8 C4          3.9790   -0.7520    2.3150 ca        1 AKT      0.179100
      9 O4          5.3380   -0.9180    2.3010 oh        1 AKT     -0.466100
     10 C5          4.0570   -0.9510   -0.1810 c         1 AKT      0.609300
     11 O5          5.1830   -1.4750   -0.2100 o         1 AKT     -0.546100
     12 C18         1.9990   -0.3090   -1.4480 ca        1 AKT     -0.080600
     13 C17         3.3930   -0.5090   -1.4250 ca        1 AKT     -0.221600
     14 C6          4.1140   -0.3020   -2.6140 ca        1 AKT      0.198100
     15 O6          5.4690   -0.4710   -2.7350 oh        1 AKT     -0.523100
     16 C11         1.3540    0.0710   -2.6190 ca        1 AKT     -0.127000
     17 C19         2.0780    0.2730   -3.8080 ca        1 AKT      0.000700
     18 C10         1.3260    0.7000   -5.0180 c3        1 AKT     -0.072100
     19 C20         3.4580    0.0970   -3.8090 ca        1 AKT     -0.120300
     20 C7          4.2840    0.2890   -5.0440 c3        1 AKT      0.221400
     21 C8          3.5490    0.9990   -6.1710 c3        1 AKT     -0.092400
     22 C9          2.0900    0.5700   -6.3390 c3        1 AKT      0.161800
     23 O9          2.1170   -0.7850   -6.7880 oh        1 AKT     -0.606800
     24 C13         1.4390    1.4590   -7.4120 c3        1 AKT     -0.112400
     25 C14        -0.0150    1.1550   -7.6570 c3        1 AKT     -0.101100
     26 O7          4.6640   -1.0310   -5.4820 os        1 AKT     -0.439600
     27 C1'         6.0080   -1.1850   -5.8670 c3        1 AKT      0.338900
     28 C2'         6.3890   -2.6460   -5.5800 c3        1 AKT     -0.129400
     29 C3'         5.4810   -3.5680   -6.3970 c3        1 AKT      0.095500
     30 N3'         5.8300   -5.0320   -6.2160 n4        1 AKT     -0.677400
     31 C8'         6.1720   -5.3630   -4.8110 c3        1 AKT      0.084100
     32 C7'         4.7230   -5.9020   -6.6900 c3        1 AKT      0.084100
     33 C4'         5.5810   -3.1750   -7.9010 c3        1 AKT      0.097100
     34 O4'         6.8800   -3.4850   -8.3600 oh        1 AKT     -0.612800
     35 C5'         5.1950   -1.6920   -8.0500 c3        1 AKT      0.106100
     36 O5'         6.0720   -0.8920   -7.2520 os        1 AKT     -0.434600
     37 C6'         5.3510   -1.2180   -9.4800 c3        1 AKT     -0.095100
     38 H2          0.1200   -0.2470    2.2150 ha        1 AKT      0.167000
     39 H3          1.3210   -0.2670    4.4110 ha        1 AKT      0.154000
     40 H4          3.7990   -0.5840    4.4770 ha        1 AKT      0.150000
     41 HO4         5.6540   -0.9130    3.2190 ho        1 AKT      0.429000
     42 HO6         5.8720   -0.5690   -1.8550 ho        1 AKT      0.463000
     43 H11         0.2600    0.2080   -2.6120 ha        1 AKT      0.167000
     44 H101        0.3770    0.1010   -5.0880 hc        1 AKT      0.073700
     45 H102        1.0320    1.7780   -4.8810 hc        1 AKT      0.073700
     46 H7          5.2080    0.8820   -4.7770 h1        1 AKT      0.069700
     47 H81         4.0980    0.7980   -7.1300 hc        1 AKT      0.072700
     48 H82         3.5670    2.1020   -5.9690 hc        1 AKT      0.072700
     49 HO9         1.1980   -1.0600   -6.8970 ho        1 AKT      0.405000
     50 H131        2.0130    1.3200   -8.3670 hc        1 AKT      0.057200
     51 H132        1.5500    2.5310   -7.1020 hc        1 AKT      0.057200
     52 H141       -0.4140    1.8330   -8.4510 hc        1 AKT      0.041700
     53 H142       -0.1560    0.1020   -8.0010 hc        1 AKT      0.041700
     54 H143       -0.6210    1.3110   -6.7320 hc        1 AKT      0.041700
     55 H1'         6.7190   -0.4670   -5.3720 h2        1 AKT      0.114700
     56 H2'1        7.4630   -2.7920   -5.8620 hc        1 AKT      0.083200
     57 H2'2        6.2600   -2.8140   -4.4790 hc        1 AKT      0.083200
     58 H3'         4.4130   -3.4210   -6.0510 hx        1 AKT      0.133700
     59 H8'1        5.3550   -5.0050   -4.1300 hx        1 AKT      0.102200
     60 H8'2        7.1410   -4.8690   -4.5310 hx        1 AKT      0.102200
     61 H8'3        6.2850   -6.4760   -4.7090 hx        1 AKT      0.102200
     62 H7'1        3.8050   -5.7120   -6.0730 hx        1 AKT      0.102200
     63 H7'2        5.0290   -6.9780   -6.5880 hx        1 AKT      0.102200
     64 H7'3        4.5050   -5.6810   -7.7690 hx        1 AKT      0.102200
     65 H4'         4.8820   -3.7990   -8.5260 h1        1 AKT      0.086700
     66 H1          7.4140   -2.6760   -8.3200 ho        1 AKT      0.443000
     67 H5'         4.1330   -1.5480   -7.6910 h1        1 AKT      0.113700
     68 H6'1        5.1400   -0.1220   -9.5320 hc        1 AKT      0.061033
     69 H6'2        6.3890   -1.3960   -9.8510 hc        1 AKT      0.061033
     70 H6'3        4.6290   -1.7640  -10.1320 hc        1 AKT      0.061033
     71 H3'1        6.6590   -5.2060   -6.8090 hn        1 AKT      0.463800
@<TRIPOS>BOND
     1    1    2 2   
     2    2    3 1   
     3    2   12 1   
     4    3    4 ar  
     5    3    7 ar  
     6    4    5 ar  
     7    4   38 1   
     8    5    6 ar  
     9    5   39 1   
    10    6    8 ar  
    11    6   40 1   
    12    7    8 ar  
    13    7   10 1   
    14    8    9 1   
    15    9   41 1   
    16   10   11 2   
    17   10   13 1   
    18   12   13 ar  
    19   12   16 ar  
    20   13   14 ar  
    21   14   15 1   
    22   14   19 ar  
    23   15   42 1   
    24   16   17 ar  
    25   16   43 1   
    26   17   18 1   
    27   17   19 ar  
    28   18   22 1   
    29   18   44 1   
    30   18   45 1   
    31   19   20 1   
    32   20   21 1   
    33   20   26 1   
    34   20   46 1   
    35   21   22 1   
    36   21   47 1   
    37   21   48 1   
    38   22   23 1   
    39   22   24 1   
    40   23   49 1   
    41   24   25 1   
    42   24   50 1   
    43   24   51 1   
    44   25   52 1   
    45   25   53 1   
    46   25   54 1   
    47   26   27 1   
    48   27   28 1   
    49   27   36 1   
    50   27   55 1   
    51   28   29 1   
    52   28   56 1   
    53   28   57 1   
    54   29   30 1   
    55   29   33 1   
    56   29   58 1   
    57   30   31 1   
    58   30   32 1   
    59   30   71 1   
    60   31   59 1   
    61   31   60 1   
    62   31   61 1   
    63   32   62 1   
    64   32   63 1   
    65   32   64 1   
    66   33   34 1   
    67   33   35 1   
    68   33   65 1   
    69   34   66 1   
    70   35   36 1   
    71   35   37 1   
    72   35   67 1   
    73   37   68 1   
    74   37   69 1   
    75   37   70 1   
@<TRIPOS>SUBSTRUCTURE
     1 AKT         1 TEMP              0 ****  ****    0 ROOT
