@<TRIPOS>MOLECULE
AKV
   52    50     1     0     0
SMALL
bcc


@<TRIPOS>ATOM
      1 O20        -2.0360   -0.2660   -2.9500 o         1 AKV     -0.294000
      2 C5         -0.8230   -0.2010   -2.9400 c1        1 AKV      0.324000
      3 C17        -0.0660   -0.1880   -1.6070 c1        1 AKV     -0.191000
      4 C6         -0.7760   -0.2040   -0.3970 c2        1 AKV      0.154000
      5 O21        -2.0860   -0.2550   -0.9070 oh        1 AKV     -0.270000
      6 C16        -0.0470   -0.1690   -4.2620 c2        1 AKV     -0.141000
      7 C4         -0.7380   -0.1770   -5.4820 c1        1 AKV      0.128000
      8 O19        -2.1020    0.0320   -5.7560 o         1 AKV     -0.217000
      9 C3         -0.0350   -0.1590   -6.6800 c2        1 AKV     -0.205000
     10 C2          1.3570   -0.1340   -6.6690 c1        1 AKV     -0.074000
     11 C1          2.0430   -0.1260   -5.4620 c1        1 AKV     -0.123000
     12 C21         1.3330   -0.1430   -4.2520 c2        1 AKV     -0.073000
     13 C12         2.0890   -0.1310   -2.9180 c2        1 AKV      0.303000
     14 O18         3.3040   -0.0990   -2.9090 o         1 AKV     -0.275000
     15 C18         1.3130   -0.1550   -1.5960 c2        1 AKV     -0.081000
     16 C11         2.0050   -0.1370   -0.3760 c2        1 AKV     -0.109000
     17 C19         1.3010   -0.1530    0.8210 c1        1 AKV     -0.026000
     18 C10         2.3930    0.0490    1.8480 c2        1 AKV     -0.139000
     19 C14         3.3020   -1.1600    1.8620 c2        1 AKV      0.306000
     20 O16         4.5340   -1.1050    2.5360 os        1 AKV     -0.279000
     21 C15         5.3500   -2.2370    2.3270 c3        1 AKV     -0.065000
     22 O17         2.9550   -2.1880    1.3140 o         1 AKV     -0.340000
     23 C20        -0.0900   -0.1860    0.8110 c2        1 AKV     -0.097000
     24 C7         -0.9250   -0.2170    2.0720 c3        1 AKV      0.068000
     25 O22        -1.8430   -1.2810    2.0000 oh        1 AKV     -0.315000
     26 C8         -1.6750    1.0880    2.2130 c3        1 AKV     -0.186000
     27 C9         -2.5110    1.0550    3.4720 c3        1 AKV      0.028000
     28 O23        -1.6790    1.2410    4.5920 oh        1 AKV     -0.342000
     29 C13        -3.5420    2.1600    3.4210 c3        1 AKV     -0.195000
     30 C22        -4.6180    1.8930    4.4500 c3        1 AKV     -0.215000
     31 H21        -2.4250   -1.0660   -0.7720 ho        1 AKV      0.263000
     32 H19        -2.4510   -0.7060   -6.1090 ho        1 AKV      0.222000
     33 H3         -0.5160   -0.1650   -7.5290 ha        1 AKV      0.143000
     34 H2          1.8510   -0.1210   -7.5110 ha        1 AKV      0.145000
     35 H1          3.0190   -0.1080   -5.4550 ha        1 AKV      0.163000
     36 H11         2.9800   -0.1090   -0.3680 ha        1 AKV      0.167000
     37 H101        1.9920    0.1660    2.7330 ha        1 AKV      0.144000
     38 H102        2.9140    0.8450    1.6190 ha        1 AKV      0.144000
     39 H151        6.0220   -2.0330    1.6410 h1        1 AKV      0.090667
     40 H152        4.7950   -2.9900    2.0290 h1        1 AKV      0.090667
     41 H153        5.8000   -2.4750    3.1670 h1        1 AKV      0.090667
     42 H7         -0.3410   -0.3430    2.8460 h1        1 AKV      0.155000
     43 H22        -1.5570   -1.9540    2.5050 ho        1 AKV      0.211000
     44 H81        -2.2570    1.2150    1.4370 hc        1 AKV      0.102000
     45 H82        -1.0360    1.8270    2.2650 hc        1 AKV      0.102000
     46 H9         -2.9620    0.1910    3.5410 h1        1 AKV      0.092000
     47 H23        -1.9080    0.6650    5.2300 ho        1 AKV      0.205000
     48 H131       -3.1120    3.0170    3.6130 hc        1 AKV      0.092000
     49 H132       -3.9440    2.1890    2.5290 hc        1 AKV      0.092000
     50 H221       -4.9300    0.9680    4.3640 hc        1 AKV      0.075000
     51 H222       -4.2520    2.0320    5.3480 hc        1 AKV      0.075000
     52 H223       -5.3690    2.5060    4.3040 hc        1 AKV      0.075000
@<TRIPOS>BOND
     1    1    2 1   
     2    2    6 1   
     3    3    4 1   
     4    3   15 1   
     5    4    5 1   
     6    4   23 1   
     7    5   31 1   
     8    6    7 1   
     9    6   12 1   
    10    7    9 1   
    11    8   32 1   
    12    9   10 1   
    13    9   33 1   
    14   10   34 1   
    15   11   12 1   
    16   11   35 1   
    17   12   13 1   
    18   13   14 1   
    19   13   15 1   
    20   15   16 1   
    21   16   17 1   
    22   16   36 1   
    23   17   23 1   
    24   18   19 1   
    25   18   37 1   
    26   18   38 1   
    27   19   20 1   
    28   19   22 1   
    29   20   21 1   
    30   21   39 1   
    31   21   40 1   
    32   21   41 1   
    33   23   24 1   
    34   24   25 1   
    35   24   26 1   
    36   24   42 1   
    37   25   43 1   
    38   26   27 1   
    39   26   44 1   
    40   26   45 1   
    41   27   28 1   
    42   27   29 1   
    43   27   46 1   
    44   28   47 1   
    45   29   30 1   
    46   29   48 1   
    47   29   49 1   
    48   30   50 1   
    49   30   51 1   
    50   30   52 1   
@<TRIPOS>SUBSTRUCTURE
     1 AKV         1 TEMP              0 ****  ****    0 ROOT
