@<TRIPOS>MOLECULE
AKV
   52    54     1     0     0
SMALL
bcc


@<TRIPOS>ATOM
      1 O20        -0.0380   -0.6270   -0.3030 o         1 AKV     -0.531100
      2 C5          1.1660   -0.3700   -0.1440 c         1 AKV      0.604300
      3 C17         1.7570   -0.2050    1.1980 ca        1 AKV     -0.218600
      4 C6          0.9670    0.0580    2.3340 ca        1 AKV      0.197100
      5 O21        -0.3940    0.1700    2.3150 oh        1 AKV     -0.487100
      6 C16         2.0800   -0.2230   -1.2930 ca        1 AKV     -0.160600
      7 C4          1.5790    0.0390   -2.5850 ca        1 AKV      0.173100
      8 O19         0.2260    0.2060   -2.7140 oh        1 AKV     -0.462100
      9 C3          2.4490    0.1430   -3.6870 ca        1 AKV     -0.205000
     10 C2          3.8150   -0.0140   -3.5010 ca        1 AKV     -0.074000
     11 C1          4.3280   -0.2650   -2.2260 ca        1 AKV     -0.123000
     12 C21         3.4680   -0.3590   -1.1310 ca        1 AKV     -0.094600
     13 C12         4.0380   -0.6000    0.2130 c         1 AKV      0.583300
     14 O18         5.2070   -0.9800    0.3640 o         1 AKV     -0.513100
     15 C18         3.1500   -0.3310    1.3660 ca        1 AKV     -0.096600
     16 C11         3.7240   -0.2050    2.6250 ca        1 AKV     -0.116000
     17 C19         2.9340    0.0750    3.7530 ca        1 AKV     -0.030300
     18 C10         3.6260    0.2250    5.0670 c3        1 AKV     -0.106100
     19 C14         3.6500   -1.0650    5.8320 c         1 AKV      0.639100
     20 O16         4.9230   -1.4910    6.0990 os        1 AKV     -0.439900
     21 C15         5.0540   -2.7010    6.8450 c3        1 AKV      0.125700
     22 O17         2.7100   -1.7410    6.2540 o         1 AKV     -0.537000
     23 C20         1.5530    0.2240    3.6200 ca        1 AKV     -0.119300
     24 C7          0.7090    0.5540    4.8240 c3        1 AKV      0.188400
     25 O22        -0.6570    0.1900    4.6910 oh        1 AKV     -0.587800
     26 C8          0.7140    2.0640    5.0870 c3        1 AKV     -0.074400
     27 C9          0.5230    2.3590    6.5720 c3        1 AKV      0.139100
     28 O23         1.7620    2.0400    7.2030 oh        1 AKV     -0.620800
     29 C13         0.1590    3.8240    6.7950 c3        1 AKV     -0.116400
     30 C22        -0.2300    4.0990    8.2240 c3        1 AKV     -0.097100
     31 H21        -0.7360    0.0890    1.4090 ho        1 AKV      0.458000
     32 H19         0.0250    0.3340   -3.6540 ho        1 AKV      0.423000
     33 H3          2.0390    0.3450   -4.6880 ha        1 AKV      0.143000
     34 H2          4.4990    0.0590   -4.3610 ha        1 AKV      0.145000
     35 H1          5.4120   -0.3930   -2.0730 ha        1 AKV      0.163000
     36 H11         4.8150   -0.3330    2.7350 ha        1 AKV      0.165000
     37 H101        4.6820    0.5760    4.9040 hc        1 AKV      0.107700
     38 H102        3.1060    0.9910    5.7140 hc        1 AKV      0.107700
     39 H151        4.5770   -2.5830    7.8480 h1        1 AKV      0.051700
     40 H152        4.5760   -3.5440    6.2910 h1        1 AKV      0.051700
     41 H153        6.1600   -2.8410    6.9300 h1        1 AKV      0.051700
     42 H7          1.1320   -0.0010    5.7170 h1        1 AKV      0.076700
     43 H22        -0.6870   -0.7060    4.3340 ho        1 AKV      0.415000
     44 H81         1.6830    2.5050    4.7420 hc        1 AKV      0.066700
     45 H82        -0.1230    2.5340    4.5090 hc        1 AKV      0.066700
     46 H9         -0.2880    1.6950    6.9870 h1        1 AKV      0.054700
     47 H23         1.6340    2.1700    8.1490 ho        1 AKV      0.406000
     48 H131        1.0340    4.4650    6.5090 hc        1 AKV      0.053700
     49 H132       -0.6950    4.0880    6.1180 hc        1 AKV      0.053700
     50 H221       -0.5500    5.1630    8.3380 hc        1 AKV      0.035367
     51 H222       -1.0770    3.4410    8.5380 hc        1 AKV      0.035367
     52 H223        0.6300    3.9200    8.9140 hc        1 AKV      0.035367
@<TRIPOS>BOND
     1    1    2 2   
     2    2    3 1   
     3    2    6 1   
     4    3    4 ar  
     5    3   15 ar  
     6    4    5 1   
     7    4   23 ar  
     8    5   31 1   
     9    6    7 ar  
    10    6   12 ar  
    11    7    8 1   
    12    7    9 ar  
    13    8   32 1   
    14    9   10 ar  
    15    9   33 1   
    16   10   11 ar  
    17   10   34 1   
    18   11   12 ar  
    19   11   35 1   
    20   12   13 1   
    21   13   14 2   
    22   13   15 1   
    23   15   16 ar  
    24   16   17 ar  
    25   16   36 1   
    26   17   18 1   
    27   17   23 ar  
    28   18   19 1   
    29   18   37 1   
    30   18   38 1   
    31   19   20 1   
    32   19   22 2   
    33   20   21 1   
    34   21   39 1   
    35   21   40 1   
    36   21   41 1   
    37   23   24 1   
    38   24   25 1   
    39   24   26 1   
    40   24   42 1   
    41   25   43 1   
    42   26   27 1   
    43   26   44 1   
    44   26   45 1   
    45   27   28 1   
    46   27   29 1   
    47   27   46 1   
    48   28   47 1   
    49   29   30 1   
    50   29   48 1   
    51   29   49 1   
    52   30   50 1   
    53   30   51 1   
    54   30   52 1   
@<TRIPOS>SUBSTRUCTURE
     1 AKV         1 TEMP              0 ****  ****    0 ROOT
