@<TRIPOS>MOLECULE
AKV
   52    54     1     0     0
SMALL
bcc


@<TRIPOS>ATOM
      1 O20        -0.0400   -0.6550   -0.2930 o         1 AKV     -0.531100
      2 C5          1.1630   -0.3930   -0.1380 c         1 AKV      0.604300
      3 C17         1.7560   -0.2180    1.2030 ca        1 AKV     -0.218600
      4 C6          0.9670    0.0490    2.3380 ca        1 AKV      0.197100
      5 O21        -0.3950    0.1550    2.3210 oh        1 AKV     -0.487100
      6 C16         2.0750   -0.2480   -1.2880 ca        1 AKV     -0.160600
      7 C4          1.5710    0.0040   -2.5810 ca        1 AKV      0.173100
      8 O19         0.2160    0.1640   -2.7090 oh        1 AKV     -0.462100
      9 C3          2.4380    0.1050   -3.6860 ca        1 AKV     -0.205000
     10 C2          3.8050   -0.0460   -3.5010 ca        1 AKV     -0.074000
     11 C1          4.3220   -0.2870   -2.2250 ca        1 AKV     -0.123000
     12 C21         3.4640   -0.3780   -1.1280 ca        1 AKV     -0.094600
     13 C12         4.0370   -0.6090    0.2160 c         1 AKV      0.583300
     14 O18         5.2080   -0.9830    0.3670 o         1 AKV     -0.513100
     15 C18         3.1500   -0.3360    1.3690 ca        1 AKV     -0.096600
     16 C11         3.7260   -0.2020    2.6270 ca        1 AKV     -0.116000
     17 C19         2.9370    0.0820    3.7540 ca        1 AKV     -0.030300
     18 C10         3.6300    0.2420    5.0660 c3        1 AKV     -0.106100
     19 C14         3.6610   -1.0450    5.8380 c         1 AKV      0.639100
     20 O16         4.9360   -1.4640    6.1050 os        1 AKV     -0.439900
     21 C15         5.0740   -2.6690    6.8580 c3        1 AKV      0.125700
     22 O17         2.7250   -1.7220    6.2660 o         1 AKV     -0.537000
     23 C20         1.5550    0.2240    3.6230 ca        1 AKV     -0.119300
     24 C7          0.7120    0.5570    4.8260 c3        1 AKV      0.188400
     25 O22        -0.6530    0.1880    4.6970 oh        1 AKV     -0.587800
     26 C8          0.7110    2.0690    5.0810 c3        1 AKV     -0.074400
     27 C9          0.5210    2.3710    6.5640 c3        1 AKV      0.139100
     28 O23         1.7620    2.0600    7.1950 oh        1 AKV     -0.620800
     29 C13         0.1520    3.8360    6.7810 c3        1 AKV     -0.116400
     30 C22        -0.2360    4.1170    8.2090 c3        1 AKV     -0.097100
     31 H21        -0.7380    0.0680    1.4160 ho        1 AKV      0.458000
     32 H19         0.0140    0.2860   -3.6500 ho        1 AKV      0.423000
     33 H3          2.0260    0.2990   -4.6870 ha        1 AKV      0.143000
     34 H2          4.4880    0.0250   -4.3630 ha        1 AKV      0.145000
     35 H1          5.4070   -0.4100   -2.0740 ha        1 AKV      0.163000
     36 H11         4.8170   -0.3240    2.7350 ha        1 AKV      0.165000
     37 H101        3.1080    1.0080    5.7100 hc        1 AKV      0.107700
     38 H102        4.6850    0.5960    4.8990 hc        1 AKV      0.107700
     39 H151        4.5980   -2.5470    7.8610 h1        1 AKV      0.051700
     40 H152        4.5980   -3.5170    6.3090 h1        1 AKV      0.051700
     41 H153        6.1800   -2.8040    6.9410 h1        1 AKV      0.051700
     42 H7          1.1390    0.0090    5.7220 h1        1 AKV      0.076700
     43 H22        -0.6800   -0.7110    4.3460 ho        1 AKV      0.415000
     44 H81         1.6780    2.5120    4.7320 hc        1 AKV      0.066700
     45 H82        -0.1290    2.5330    4.5020 hc        1 AKV      0.066700
     46 H9         -0.2870    1.7060    6.9840 h1        1 AKV      0.054700
     47 H23         1.6360    2.1940    8.1410 ho        1 AKV      0.406000
     48 H131       -0.7040    4.0930    6.1040 hc        1 AKV      0.053700
     49 H132        1.0240    4.4780    6.4900 hc        1 AKV      0.053700
     50 H221        0.6260    3.9440    8.8990 hc        1 AKV      0.035367
     51 H222       -1.0800    3.4570    8.5280 hc        1 AKV      0.035367
     52 H223       -0.5600    5.1800    8.3180 hc        1 AKV      0.035367
@<TRIPOS>BOND
     1    1    2 2   
     2    2    3 1   
     3    2    6 1   
     4    3    4 ar  
     5    3   15 ar  
     6    4    5 1   
     7    4   23 ar  
     8    5   31 1   
     9    6    7 ar  
    10    6   12 ar  
    11    7    8 1   
    12    7    9 ar  
    13    8   32 1   
    14    9   10 ar  
    15    9   33 1   
    16   10   11 ar  
    17   10   34 1   
    18   11   12 ar  
    19   11   35 1   
    20   12   13 1   
    21   13   14 2   
    22   13   15 1   
    23   15   16 ar  
    24   16   17 ar  
    25   16   36 1   
    26   17   18 1   
    27   17   23 ar  
    28   18   19 1   
    29   18   37 1   
    30   18   38 1   
    31   19   20 1   
    32   19   22 2   
    33   20   21 1   
    34   21   39 1   
    35   21   40 1   
    36   21   41 1   
    37   23   24 1   
    38   24   25 1   
    39   24   26 1   
    40   24   42 1   
    41   25   43 1   
    42   26   27 1   
    43   26   44 1   
    44   26   45 1   
    45   27   28 1   
    46   27   29 1   
    47   27   46 1   
    48   28   47 1   
    49   29   30 1   
    50   29   48 1   
    51   29   49 1   
    52   30   50 1   
    53   30   51 1   
    54   30   52 1   
@<TRIPOS>SUBSTRUCTURE
     1 AKV         1 TEMP              0 ****  ****    0 ROOT
