@<TRIPOS>MOLECULE
AKV
   52    54     1     0     0
SMALL
bcc


@<TRIPOS>ATOM
      1 O20        -2.4730    2.4570    0.3470 o         1 AKV     -0.608100
      2 C5         -2.5760    1.2520    0.0320 c         1 AKV      0.622300
      3 C17        -1.3780    0.4390   -0.2350 ca        1 AKV     -0.213600
      4 C6         -0.0820    0.8780    0.0960 ca        1 AKV      0.204100
      5 O21         0.2030    2.1040    0.6340 oh        1 AKV     -0.520100
      6 C16        -3.8940    0.6100   -0.0610 ca        1 AKV     -0.226600
      7 C4         -5.0610    1.2240    0.4360 ca        1 AKV      0.202100
      8 O19        -5.1290    2.4470    1.0360 oh        1 AKV     -0.498100
      9 C3         -6.3150    0.5660    0.3560 ca        1 AKV     -0.154000
     10 C2         -6.4030   -0.6790   -0.2330 ca        1 AKV     -0.077000
     11 C1         -5.2560   -1.2950   -0.7540 ca        1 AKV     -0.120000
     12 C21        -4.0210   -0.6610   -0.6660 ca        1 AKV     -0.090600
     13 C12        -2.8400   -1.3490   -1.2310 c         1 AKV      0.581300
     14 O18        -2.9570   -2.3240   -1.9850 o         1 AKV     -0.511100
     15 C18        -1.5120   -0.8270   -0.8430 ca        1 AKV     -0.092600
     16 C11        -0.3960   -1.6090   -1.1050 ca        1 AKV     -0.105000
     17 C19         0.8940   -1.1720   -0.7520 ca        1 AKV     -0.024300
     18 C10         2.0410   -2.0620   -1.0990 c3        1 AKV     -0.094100
     19 C14         2.4300   -2.9450    0.0540 c         1 AKV      0.633100
     20 O16         3.6440   -2.6120    0.5840 os        1 AKV     -0.431900
     21 C15         4.0980   -3.3890    1.6940 c3        1 AKV      0.125700
     22 O17         1.8220   -3.9060    0.5250 o         1 AKV     -0.529000
     23 C20         1.0650    0.0650   -0.1340 ca        1 AKV     -0.114300
     24 C7          2.4310    0.5520    0.2840 c3        1 AKV      0.189400
     25 O22         2.4560    0.9680    1.6360 oh        1 AKV     -0.588800
     26 C8          2.9040    1.6590   -0.6600 c3        1 AKV     -0.142400
     27 C9          4.3990    1.9150   -0.4870 c3        1 AKV      0.134100
     28 O23         5.1540    0.8680   -1.0770 oh        1 AKV     -0.593800
     29 C13         4.7780    3.2760   -1.0630 c3        1 AKV     -0.111400
     30 C22         6.2370    3.5810   -0.8430 c3        1 AKV     -0.093100
     31 H21        -0.6070    2.5710    0.8940 ho        1 AKV      0.466000
     32 H19        -4.2660    2.8910    1.0220 ho        1 AKV      0.461000
     33 H3         -7.2000    1.0750    0.7690 ha        1 AKV      0.161000
     34 H2         -7.3750   -1.1930   -0.3010 ha        1 AKV      0.147000
     35 H1         -5.3260   -2.2820   -1.2400 ha        1 AKV      0.164000
     36 H11        -0.5300   -2.5920   -1.5890 ha        1 AKV      0.170000
     37 H101        1.7560   -2.7410   -1.9510 hc        1 AKV      0.093700
     38 H102        2.9290   -1.4550   -1.4270 hc        1 AKV      0.093700
     39 H151        5.0810   -2.9240    1.9550 h1        1 AKV      0.054033
     40 H152        3.3700   -3.3090    2.5370 h1        1 AKV      0.054033
     41 H153        4.2150   -4.4560    1.3870 h1        1 AKV      0.054033
     42 H7          3.1760   -0.3020    0.2740 h1        1 AKV      0.111700
     43 H22         1.9640    1.7950    1.7150 ho        1 AKV      0.412000
     44 H81         2.3280    2.5960   -0.4450 hc        1 AKV      0.058200
     45 H82         2.6950    1.3570   -1.7180 hc        1 AKV      0.058200
     46 H9          4.6710    1.8590    0.6070 h1        1 AKV      0.093700
     47 H23         5.0610    0.9500   -2.0340 ho        1 AKV      0.392000
     48 H131        4.1460    4.0640   -0.5760 hc        1 AKV      0.043700
     49 H132        4.5480    3.2900   -2.1600 hc        1 AKV      0.043700
     50 H221        6.4580    3.6760    0.2470 hc        1 AKV      0.039367
     51 H222        6.8710    2.7590   -1.2570 hc        1 AKV      0.039367
     52 H223        6.5140    4.5380   -1.3460 hc        1 AKV      0.039367
@<TRIPOS>BOND
     1    1    2 2   
     2    2    3 1   
     3    2    6 1   
     4    3    4 ar  
     5    3   15 ar  
     6    4    5 1   
     7    4   23 ar  
     8    5   31 1   
     9    6    7 ar  
    10    6   12 ar  
    11    7    8 1   
    12    7    9 ar  
    13    8   32 1   
    14    9   10 ar  
    15    9   33 1   
    16   10   11 ar  
    17   10   34 1   
    18   11   12 ar  
    19   11   35 1   
    20   12   13 1   
    21   13   14 2   
    22   13   15 1   
    23   15   16 ar  
    24   16   17 ar  
    25   16   36 1   
    26   17   18 1   
    27   17   23 ar  
    28   18   19 1   
    29   18   37 1   
    30   18   38 1   
    31   19   20 1   
    32   19   22 2   
    33   20   21 1   
    34   21   39 1   
    35   21   40 1   
    36   21   41 1   
    37   23   24 1   
    38   24   25 1   
    39   24   26 1   
    40   24   42 1   
    41   25   43 1   
    42   26   27 1   
    43   26   44 1   
    44   26   45 1   
    45   27   28 1   
    46   27   29 1   
    47   27   46 1   
    48   28   47 1   
    49   29   30 1   
    50   29   48 1   
    51   29   49 1   
    52   30   50 1   
    53   30   51 1   
    54   30   52 1   
@<TRIPOS>SUBSTRUCTURE
     1 AKV         1 TEMP              0 ****  ****    0 ROOT
