@<TRIPOS>MOLECULE
AKZ
   17    16     1     0     0
SMALL
bcc


@<TRIPOS>ATOM
      1 C          -1.8830   -0.1720    0.3390 c3        1 AKZ      0.325900
      2 N          -0.3200    1.7430    0.3620 n3        1 AKZ     -0.889800
      3 O          -2.8640    0.4000   -0.5050 oh        1 AKZ     -0.636800
      4 CA         -0.4930    0.3710   -0.0900 c3        1 AKZ      0.161500
      5 CB          0.5860   -0.6040    0.3880 c3        1 AKZ     -0.237400
      6 CG          1.9920   -0.1350   -0.0300 c         1 AKZ      0.908600
      7 OD1         2.4060    0.9810    0.4040 o         1 AKZ     -0.846800
      8 OD2         2.6680   -0.8970   -0.7760 o         1 AKZ     -0.846800
      9 HA         -0.4820    0.3900   -1.2200 h1        1 AKZ      0.065700
     10 HB2         0.5570   -0.6890    1.5030 hc        1 AKZ      0.032200
     11 HB3         0.4020   -1.6190   -0.0430 hc        1 AKZ      0.032200
     12 HO         -3.7100    0.0160   -0.2510 ho        1 AKZ      0.401500
     13 H1         -2.1080    0.0110    1.4260 h2        1 AKZ      0.052700
     14 OXT        -2.0550   -1.5590    0.1480 oh        1 AKZ     -0.636800
     15 HXT        -1.6190   -1.8050   -0.6760 ho        1 AKZ      0.401500
     16 H          -0.1730    1.7400    1.3560 hn        1 AKZ      0.355300
     17 H2          0.5300    2.0960   -0.0520 hn        1 AKZ      0.355300
@<TRIPOS>BOND
     1    1    3 1   
     2    1    4 1   
     3    1   13 1   
     4    1   14 1   
     5    2    4 1   
     6    2   16 1   
     7    2   17 1   
     8    3   12 1   
     9    4    5 1   
    10    4    9 1   
    11    5    6 1   
    12    5   10 1   
    13    5   11 1   
    14    6    7 1   
    15    6    8 1   
    16   14   15 1   
@<TRIPOS>SUBSTRUCTURE
     1 AKZ         1 TEMP              0 ****  ****    0 ROOT
