@<TRIPOS>MOLECULE
AKZ
   17    16     1     0     0
SMALL
bcc


@<TRIPOS>ATOM
      1 C           0.6880   -0.1810   -1.1580 c3        1 AKZ      0.327900
      2 N           1.1270    0.5050    1.0950 n3        1 AKZ     -0.937800
      3 O           1.2300    1.0830   -1.4670 oh        1 AKZ     -0.649800
      4 CA          0.1940   -0.1810    0.2700 c3        1 AKZ      0.173500
      5 CB         -1.1470    0.5130    0.3400 c3        1 AKZ     -0.208400
      6 CG         -2.0510   -0.2310    1.2980 c         1 AKZ      0.907600
      7 OD1        -2.6450   -1.2750    0.9210 o         1 AKZ     -0.846800
      8 OD2        -2.2090    0.1940    2.4720 o         1 AKZ     -0.846800
      9 H           1.8980    0.0150    1.1570 hn        1 AKZ      0.370800
     10 H2          0.7700    0.6190    1.9310 hn        1 AKZ      0.370800
     11 HA          0.1000   -1.1030    0.5820 h1        1 AKZ      0.038700
     12 HB2        -1.5540    0.5260   -0.5500 hc        1 AKZ      0.036200
     13 HB3        -1.0220    1.4310    0.6540 hc        1 AKZ      0.036200
     14 HO          1.3680    1.1400   -2.3430 ho        1 AKZ      0.414000
     15 H1         -0.0580   -0.3720   -1.7620 h2        1 AKZ      0.049700
     16 OXT         1.6820   -1.1670   -1.3120 oh        1 AKZ     -0.649800
     17 HXT         1.6300   -1.5160   -2.1280 ho        1 AKZ      0.414000
@<TRIPOS>BOND
     1    1    3 1   
     2    1    4 1   
     3    1   15 1   
     4    1   16 1   
     5    2    4 1   
     6    2    9 1   
     7    2   10 1   
     8    3   14 1   
     9    4    5 1   
    10    4   11 1   
    11    5    6 1   
    12    5   12 1   
    13    5   13 1   
    14    6    7 1   
    15    6    8 1   
    16   16   17 1   
@<TRIPOS>SUBSTRUCTURE
     1 AKZ         1 TEMP              0 ****  ****    0 ROOT
