@<TRIPOS>MOLECULE
AL0
   18    15     1     0     0
SMALL
bcc


@<TRIPOS>ATOM
      1 N           1.6650   -0.4690   -0.6830 nz        1 AL0     -0.718400
      2 CA          3.0890   -0.4230   -0.9780 c2        1 AL0     -0.135000
      3 C          -0.7380    0.1300    2.4910 c1        1 AL0      0.918000
      4 O           0.0230    0.0740    1.5650 o         1 AL0     -0.457500
      5 CB          3.7400    0.6990   -1.3010 c2        1 AL0     -0.110000
      6 NG          0.0060    2.6190   -2.3160 nu        1 AL0     -0.404800
      7 OD1         0.9900    2.5260   -1.4130 oh        1 AL0     -0.436300
      8 ND2        -0.6020    1.5310   -2.7720 n2        1 AL0      0.197600
      9 OE         -0.4100    0.5050   -2.2440 o         1 AL0     -0.286300
     10 OXT        -1.4860    0.1910    3.4020 o         1 AL0     -0.457500
     11 HN1         1.1730   -1.0120   -1.4060 hn        1 AL0      0.470800
     12 HN2         1.2440    0.4750   -0.6650 hn        1 AL0      0.470800
     13 HA          3.5700   -1.4190   -0.9080 hx        1 AL0      0.198000
     14 HB1         3.2670    1.6920   -1.3780 ha        1 AL0      0.170000
     15 HB2         4.8220    0.6690   -1.5150 ha        1 AL0      0.170000
     16 HD1         0.7000    3.0590   -0.6420 ho        1 AL0      0.452000
     17 HN3         1.5100   -0.9090    0.2320 hn        1 AL0      0.470800
     18 HG1         0.1390    3.3720   -2.9860 hn        1 AL0      0.489800
@<TRIPOS>BOND
     1    1    2 1   
     2    1   11 1   
     3    1   12 1   
     4    1   17 1   
     5    2    5 2   
     6    2   13 1   
     7    3    4 2   
     8    3   10 2   
     9    5   14 1   
    10    5   15 1   
    11    6    7 1   
    12    6    8 1   
    13    6   18 1   
    14    7   16 1   
    15    8    9 2   
@<TRIPOS>SUBSTRUCTURE
     1 AL0         1 TEMP              0 ****  ****    0 ROOT
