@<TRIPOS>MOLECULE
AL0
   18    15     1     0     0
SMALL
bcc


@<TRIPOS>ATOM
      1 N           1.5870   -0.4900   -0.6460 n4        1 AL0     -0.718400
      2 CA          2.9850   -0.5580   -1.0420 c2        1 AL0     -0.135000
      3 C          -0.5200    0.4410    2.6570 c1        1 AL0      0.918000
      4 O           0.1610    0.2830    1.6820 o         1 AL0     -0.457500
      5 CB          3.6820    0.4970   -1.4730 c2        1 AL0     -0.110000
      6 NG          0.0180    2.6190   -2.3260 nh        1 AL0     -0.404800
      7 OD1         1.0580    2.5030   -1.4910 oh        1 AL0     -0.436300
      8 ND2        -0.6920    1.5540   -2.6770 n2        1 AL0      0.197600
      9 OE         -0.5300    0.5460   -2.1070 o         1 AL0     -0.286300
     10 OXT        -1.1900    0.6010    3.6150 o         1 AL0     -0.457500
     11 HN1         1.2320    0.4810   -0.6500 hn        1 AL0      0.470800
     12 HN2         1.0080   -1.0330   -1.3000 hn        1 AL0      0.470800
     13 HA          3.4030   -1.5810   -0.9520 hx        1 AL0      0.198000
     14 HB1         4.7410    0.3810   -1.7610 ha        1 AL0      0.170000
     15 HB2         3.2720    1.5160   -1.5710 ha        1 AL0      0.170000
     16 HD1         0.8630    3.0940   -0.7330 ho        1 AL0      0.452000
     17 HN3         1.4720   -0.8710    0.3020 hn        1 AL0      0.470800
     18 HG1         0.1510    3.3260   -3.0450 hn        1 AL0      0.489800
@<TRIPOS>BOND
     1    1    2 1   
     2    1   11 1   
     3    1   12 1   
     4    1   17 1   
     5    2    5 2   
     6    2   13 1   
     7    3    4 2   
     8    3   10 2   
     9    5   14 1   
    10    5   15 1   
    11    6    7 1   
    12    6    8 1   
    13    6   18 1   
    14    7   16 1   
    15    8    9 2   
@<TRIPOS>SUBSTRUCTURE
     1 AL0         1 TEMP              0 ****  ****    0 ROOT
