@<TRIPOS>MOLECULE
AL0
   16    15     1     0     0
SMALL
bcc


@<TRIPOS>ATOM
      1 N          -2.1530   -0.5880    0.1950 n3        1 AL0     -0.891800
      2 CA         -0.7320   -0.5760    0.2450 c3        1 AL0     -0.010500
      3 C          -0.2790   -0.5880    1.6870 c         1 AL0      0.884600
      4 O           0.5400   -1.4590    2.0820 o         1 AL0     -0.833300
      5 CB         -0.2140    0.6700   -0.4360 c3        1 AL0      0.235800
      6 NG          1.1740    0.5230   -0.7030 nh        1 AL0     -0.334200
      7 OD1         1.5890   -0.2000   -1.7880 oh        1 AL0     -0.391300
      8 ND2         2.1050    1.1070    0.1330 n2        1 AL0      0.166600
      9 OE          3.1090    1.6250   -0.3360 o         1 AL0     -0.233300
     10 OXT        -0.7190    0.2740    2.4920 o         1 AL0     -0.833300
     11 HN1        -2.4270   -0.8440   -0.6410 hn        1 AL0      0.335300
     12 HN2        -2.4760   -1.1800    0.8160 hn        1 AL0      0.335300
     13 HA         -0.3820   -1.3660   -0.2130 h1        1 AL0      0.061700
     14 HB1        -0.6970    0.8070   -1.2770 h1        1 AL0      0.057200
     15 HB2        -0.3540    1.4440    0.1490 h1        1 AL0      0.057200
     16 HD1         1.9160    0.3510   -2.4040 ho        1 AL0      0.393000
@<TRIPOS>BOND
     1    1    2 1   
     2    1   11 1   
     3    1   12 1   
     4    2    3 1   
     5    2    5 1   
     6    2   13 1   
     7    3    4 1   
     8    3   10 1   
     9    5    6 1   
    10    5   14 1   
    11    5   15 1   
    12    6    7 1   
    13    6    8 1   
    14    7   16 1   
    15    8    9 2   
@<TRIPOS>SUBSTRUCTURE
     1 AL0         1 TEMP              0 ****  ****    0 ROOT
