@<TRIPOS>MOLECULE
AL0
   16    15     1     0     0
SMALL
bcc


@<TRIPOS>ATOM
      1 N           0.3810    1.2680    1.0770 n3        1 AL0     -0.893800
      2 CA          0.7460    0.0210    0.4250 c3        1 AL0     -0.005500
      3 C           2.1880   -0.0150   -0.1900 c         1 AL0      0.892600
      4 O           3.0040    0.8730    0.1790 o         1 AL0     -0.835300
      5 CB         -0.2190   -0.3820   -0.6980 c3        1 AL0      0.228800
      6 NG         -1.6690   -0.2420   -0.4070 nh        1 AL0     -0.320200
      7 OD1        -2.1350    0.9410   -0.8450 oh        1 AL0     -0.392300
      8 ND2        -2.1610   -0.7380    0.7430 n2        1 AL0      0.131600
      9 OE         -3.1490   -0.2870    1.1770 o         1 AL0     -0.257300
     10 OXT         2.4420   -0.9410   -1.0080 o         1 AL0     -0.835300
     11 HN1         1.2020    1.6120    1.5480 hn        1 AL0      0.339800
     12 HN2         0.1410    1.9470    0.3760 hn        1 AL0      0.339800
     13 HA          0.7250   -0.7730    1.2270 h1        1 AL0      0.053700
     14 HB1        -0.0130    0.2380   -1.6130 h1        1 AL0      0.077200
     15 HB2        -0.0410   -1.4650   -0.9430 h1        1 AL0      0.077200
     16 HD1        -2.9130    0.7340   -1.3960 ho        1 AL0      0.398000
@<TRIPOS>BOND
     1    1    2 1   
     2    1   11 1   
     3    1   12 1   
     4    2    3 1   
     5    2    5 1   
     6    2   13 1   
     7    3    4 1   
     8    3   10 1   
     9    5    6 1   
    10    5   14 1   
    11    5   15 1   
    12    6    7 1   
    13    6    8 1   
    14    7   16 1   
    15    8    9 2   
@<TRIPOS>SUBSTRUCTURE
     1 AL0         1 TEMP              0 ****  ****    0 ROOT
