@<TRIPOS>MOLECULE
AL0
   18    15     1     0     0
SMALL
bcc


@<TRIPOS>ATOM
      1 N           1.7200    0.5660   -0.0680 n4        1 AL0     -0.719400
      2 CA          3.1340    0.5160   -0.4030 c2        1 AL0     -0.133000
      3 C          -0.3180   -1.5010    2.6850 c1        1 AL0      0.921000
      4 O           0.3630   -0.8670    1.9290 o         1 AL0     -0.459000
      5 CB          3.6770    1.2070   -1.4100 c2        1 AL0     -0.114000
      6 NG         -0.2620    1.9370   -3.1210 nh        1 AL0     -0.404800
      7 OD1         0.7590    2.4640   -2.4340 oh        1 AL0     -0.437300
      8 ND2        -0.7990    0.7800   -2.7540 n2        1 AL0      0.197600
      9 OE         -0.5050    0.3170   -1.7200 o         1 AL0     -0.288300
     10 OXT        -0.9890   -2.1250    3.4300 o         1 AL0     -0.459000
     11 HN1         1.2880   -0.3610   -0.2020 hn        1 AL0      0.470800
     12 HN2         1.6010    0.8250    0.9190 hn        1 AL0      0.470800
     13 HA          3.7040   -0.1600    0.2640 hx        1 AL0      0.200000
     14 HB1         4.7580    1.1260   -1.6170 ha        1 AL0      0.169500
     15 HB2         3.1140    1.8770   -2.0810 ha        1 AL0      0.169500
     16 HD1         0.4620    3.3560   -2.1510 ho        1 AL0      0.453000
     17 HN3         1.2100    1.2380   -0.6630 hn        1 AL0      0.470800
     18 HG1        -0.2180    2.1160   -4.1200 hn        1 AL0      0.490800
@<TRIPOS>BOND
     1    1    2 1   
     2    1   11 1   
     3    1   12 1   
     4    1   17 1   
     5    2    5 2   
     6    2   13 1   
     7    3    4 2   
     8    3   10 2   
     9    5   14 1   
    10    5   15 1   
    11    6    7 1   
    12    6    8 1   
    13    6   18 1   
    14    7   16 1   
    15    8    9 2   
@<TRIPOS>SUBSTRUCTURE
     1 AL0         1 TEMP              0 ****  ****    0 ROOT
