@<TRIPOS>MOLECULE
AL1
   37    39     1     0     0
SMALL
bcc


@<TRIPOS>ATOM
      1 C3         -0.0360    0.1660   -3.1070 cc        1 AL1     -0.501600
      2 C9         -1.3550   -2.0110    0.9760 c3        1 AL1      0.203800
      3 C10        -1.9400   -1.4400   -0.3220 c3        1 AL1     -0.058100
      4 C19        -2.2180    0.8110    4.0780 ca        1 AL1     -0.078000
      5 C20        -1.2560    0.9990    5.0690 ca        1 AL1     -0.215000
      6 C21         0.0220    0.4650    4.8740 ca        1 AL1      0.150100
      7 C22         0.3430   -0.2580    3.7120 ca        1 AL1     -0.171000
      8 C24         0.7920    1.3340    6.9520 c3        1 AL1      0.112700
      9 S1         -0.1470    0.7160   -4.6950 sy        1 AL1      1.561200
     10 O1A         1.1030    0.5140   -5.3120 o         1 AL1     -0.653300
     11 O2A        -1.2790    0.1260   -5.2860 o         1 AL1     -0.653300
     12 S2          1.2080    0.1180   -2.0750 ss        1 AL1      0.546200
     13 C6          0.4330   -0.5820   -0.8380 cc        1 AL1     -0.482600
     14 C5         -0.9150   -0.8360   -1.1960 cd        1 AL1     -0.028300
     15 C4         -1.1800   -0.4040   -2.5070 cd        1 AL1     -0.072000
     16 N8         -0.3290   -1.1800    1.5580 nh        1 AL1     -0.663900
     17 S7          1.0460   -1.0190    0.6740 sy        1 AL1      1.540200
     18 O3B         1.8610    0.0260    1.1390 o         1 AL1     -0.640300
     19 O4B         1.6830   -2.2610    0.5460 o         1 AL1     -0.640300
     20 C17        -0.6390   -0.4420    2.7200 ca        1 AL1      0.186600
     21 C18        -1.9270    0.1080    2.9160 ca        1 AL1     -0.191000
     22 H91        -0.8910   -3.0200    0.7560 h1        1 AL1      0.076200
     23 H92        -2.1930   -2.1800    1.7090 h1        1 AL1      0.076200
     24 H101       -2.4630   -2.2710   -0.8670 hc        1 AL1      0.073200
     25 H102       -2.7110   -0.6580   -0.0790 hc        1 AL1      0.073200
     26 H19        -3.2270    1.2310    4.2180 ha        1 AL1      0.135000
     27 H20        -1.5080    1.5600    5.9790 ha        1 AL1      0.141000
     28 H22         1.3690   -0.6410    3.5960 ha        1 AL1      0.167000
     29 H241        1.7660    1.3040    7.5050 h1        1 AL1      0.046033
     30 H242        0.5190    2.3850    6.6910 h1        1 AL1      0.046033
     31 H243       -0.0180    0.8550    7.5530 h1        1 AL1      0.046033
     32 HNL1        0.3320    2.9620   -4.5800 hn        1 AL1      0.450300
     33 HNL2       -1.2790    2.6940   -4.3740 hn        1 AL1      0.450300
     34 H4         -2.1450   -0.5140   -3.0150 ha        1 AL1      0.183000
     35 H18        -2.7070   -0.0150    2.1500 ha        1 AL1      0.133000
     36 O23         1.0600    0.5760    5.7770 os        1 AL1     -0.320900
     37 N21        -0.3900    2.2880   -4.5210 n3        1 AL1     -1.027700
@<TRIPOS>BOND
     1    1    9 1   
     2    1   12 1   
     3    1   15 2   
     4    2    3 1   
     5    2   16 1   
     6    2   22 1   
     7    2   23 1   
     8    3   14 1   
     9    3   24 1   
    10    3   25 1   
    11    4    5 ar  
    12    4   21 ar  
    13    4   26 1   
    14    5    6 ar  
    15    5   27 1   
    16    6    7 ar  
    17    6   36 1   
    18    7   20 ar  
    19    7   28 1   
    20    8   29 1   
    21    8   30 1   
    22    8   31 1   
    23    8   36 1   
    24    9   10 2   
    25    9   11 2   
    26    9   37 1   
    27   12   13 1   
    28   13   14 2   
    29   13   17 1   
    30   14   15 1   
    31   15   34 1   
    32   16   17 1   
    33   16   20 1   
    34   17   18 2   
    35   17   19 2   
    36   20   21 ar  
    37   21   35 1   
    38   32   37 1   
    39   33   37 1   
@<TRIPOS>SUBSTRUCTURE
     1 AL1         1 TEMP              0 ****  ****    0 ROOT
