@<TRIPOS>MOLECULE
AL1
   38    37     1     0     0
SMALL
bcc


@<TRIPOS>ATOM
      1 C3         -0.2740    0.5580    1.3840 cc        1 AL1     -0.760600
      2 C9          4.3330   -2.1840    2.8860 c3        1 AL1      0.182100
      3 C10         2.4740    3.0580    1.8950 c         1 AL1      0.595500
      4 C19         4.9160    3.7880    6.6720 c1        1 AL1     -0.187500
      5 C20         4.7130    3.3390    7.7630 c1        1 AL1     -0.127100
      6 C21         4.1090   -0.6490    6.6340 c1        1 AL1      0.604600
      7 C22         3.8030   -0.9640    5.3850 ce        1 AL1     -0.431100
      8 C24         4.4780    2.8040    9.0650 c3        1 AL1     -0.033000
      9 S1         -1.8210    0.3820    1.2850 sy        1 AL1      1.558200
     10 O1A        -2.2850   -0.9040    1.4520 o         1 AL1     -0.575800
     11 O2A        -2.5750    1.4750    1.6470 o         1 AL1     -0.575800
     12 S2          0.9780   -0.5340    1.4270 ss        1 AL1      0.590200
     13 C6          2.1560    0.4950    1.6260 cc        1 AL1     -0.122600
     14 C5          1.6790    1.8350    1.6990 cd        1 AL1     -0.181600
     15 C4          0.2930    1.8670    1.5640 cd        1 AL1      0.015000
     16 N8          4.1540   -0.7610    2.9630 nh        1 AL1     -0.521100
     17 S7          3.9330    0.2060    1.6810 sx        1 AL1      0.613600
     18 O3B         3.7040    3.0740    1.8640 o         1 AL1     -0.496100
     19 O4B         4.1100   -0.6230    0.4820 o         1 AL1     -0.492200
     20 C17         4.2210   -0.1550    4.2460 ce        1 AL1      0.197000
     21 C18         4.6520    1.1190    4.4040 c2        1 AL1     -0.309000
     22 H91         1.8730    3.9770    2.0750 h4        1 AL1      0.035200
     23 H92         5.1190   -2.5220    3.6140 h1        1 AL1      0.058700
     24 H101        4.6600   -2.4650    1.8470 h1        1 AL1      0.058700
     25 H102        3.3740   -2.7210    3.1240 h1        1 AL1      0.058700
     26 H19         4.6660    1.5970    5.3930 ha        1 AL1      0.144000
     27 H20         5.1100    4.2040    5.7170 ha        1 AL1      0.163500
     28 H22         3.2270   -1.8880    5.2210 ha        1 AL1      0.187000
     29 H241        3.5170    3.1980    9.4860 hc        1 AL1      0.062367
     30 H242        4.4170    1.6840    9.0260 hc        1 AL1      0.062367
     31 H243        5.3110    3.0880    9.7600 hc        1 AL1      0.062367
     32 HNL1       -2.3900   -0.3400   -1.0260 hn        1 AL1      0.451800
     33 HNL2       -1.1270    0.7100   -1.1100 hn        1 AL1      0.451800
     34 H4         -0.3180    2.7790    1.6110 ha        1 AL1      0.191000
     35 H18         5.0050    1.7530    3.5800 ha        1 AL1      0.144000
     36 N21        -2.0080    0.5230   -0.6460 n4        1 AL1     -0.783500
     37 H213       -2.6510    1.2770   -0.8770 hn        1 AL1      0.451800
     38 O23         4.3480   -0.4000    7.7670 o         1 AL1     -0.340500
@<TRIPOS>BOND
     1    1    9 1   
     2    1   12 1   
     3    1   15 2   
     4    2   16 1   
     5    2   23 1   
     6    2   24 1   
     7    2   25 1   
     8    3   14 1   
     9    3   18 2   
    10    3   22 1   
    11    4    5 3   
    12    4   27 1   
    13    5    8 1   
    14    6    7 2   
    15    6   38 2   
    16    7   20 1   
    17    7   28 1   
    18    8   29 1   
    19    8   30 1   
    20    8   31 1   
    21    9   10 2   
    22    9   11 2   
    23    9   36 1   
    24   12   13 1   
    25   13   14 2   
    26   13   17 1   
    27   14   15 1   
    28   15   34 1   
    29   16   17 1   
    30   16   20 1   
    31   17   19 2   
    32   20   21 2   
    33   21   26 1   
    34   21   35 1   
    35   32   36 1   
    36   33   36 1   
    37   36   37 1   
@<TRIPOS>SUBSTRUCTURE
     1 AL1         1 TEMP              0 ****  ****    0 ROOT
