@<TRIPOS>MOLECULE
AL1
   37    34     1     0     0
SMALL
bcc


@<TRIPOS>ATOM
      1 C3         -3.1870   -0.0270   -3.2690 c1        1 AL1     -1.220000
      2 C9         -0.8000   -0.5540    1.2060 c3        1 AL1      0.003000
      3 C10        -2.1950   -0.1590    0.6740 c3        1 AL1     -0.142000
      4 C19         2.6410    2.1120    2.4870 c1        1 AL1     -0.088000
      5 C20         3.6400    1.1920    2.8110 c1        1 AL1     -0.202000
      6 C21         3.5430   -0.1230    2.3730 c1        1 AL1      0.093000
      7 C22         2.4630   -0.5150    1.6210 c1        1 AL1     -0.167000
      8 C24         4.8530   -1.3730    3.8940 c3        1 AL1     -0.077000
      9 N21        -4.8070    0.8270   -5.3950 n3        1 AL1     -0.953000
     10 S1         -3.9430   -0.4420   -4.8290 s4        1 AL1      2.116800
     11 O1A        -2.9730   -0.8670   -5.7770 o         1 AL1     -0.541400
     12 O2A        -4.7710   -1.6420   -4.7150 o         1 AL1     -0.541400
     13 S2         -1.6050   -0.0980   -3.2600 ss        1 AL1      1.098000
     14 C6         -1.1410   -0.0970   -1.7660 c1        1 AL1     -1.196000
     15 C5         -2.3680   -0.0290   -0.9060 c2        1 AL1     -0.027000
     16 C4         -3.6500    0.0150   -1.8580 c1        1 AL1     -0.068000
     17 N8          0.3140   -0.0170    0.5460 n3        1 AL1     -0.786000
     18 S7          0.4200   -0.1960   -0.9790 s4        1 AL1      2.110800
     19 O3B         1.3260    0.8250   -1.5380 o         1 AL1     -0.535400
     20 O4B         0.9760   -1.5220   -1.2400 o         1 AL1     -0.535400
     21 C17         1.4670    0.4040    1.2990 c2        1 AL1      0.070000
     22 C18         1.5650    1.7190    1.7380 c2        1 AL1     -0.162000
     23 O23         4.6330   -1.0050    2.5530 os        1 AL1     -0.204000
     24 H91        -0.7520   -0.2340    2.1590 h1        1 AL1      0.097000
     25 H92        -0.7330   -1.5200    1.1250 h1        1 AL1      0.097000
     26 H101       -2.4360    0.7050    1.0730 hc        1 AL1      0.116000
     27 H102       -2.8520   -0.8420    0.9990 hc        1 AL1      0.116000
     28 H19         2.7100    3.0530    2.8010 ha        1 AL1      0.137000
     29 H20         4.4080    1.4740    3.3450 ha        1 AL1      0.142000
     30 H22         2.3910   -1.4660    1.3030 ha        1 AL1      0.181000
     31 H241        3.9550   -1.5880    4.3420 h1        1 AL1      0.085667
     32 H242        5.2970   -0.6150    4.3810 h1        1 AL1      0.085667
     33 H243        5.4360   -2.1710    3.9250 h1        1 AL1      0.085667
     34 HNL1       -4.3650    1.6160   -5.6560 hn        1 AL1      0.245500
     35 HNL2       -5.7200    0.7880   -5.4110 hn        1 AL1      0.245500
     36 H4         -4.5820   -0.0080   -1.5610 DU        1 AL1      0.183000
     37 H18         0.8430    2.3840    1.5040 ha        1 AL1      0.140000
@<TRIPOS>BOND
     1    1   13 1   
     2    1   16 1   
     3    2    3 1   
     4    2   17 1   
     5    2   24 1   
     6    2   25 1   
     7    3   15 1   
     8    3   26 1   
     9    3   27 1   
    10    4   22 1   
    11    4   28 1   
    12    5    6 1   
    13    5   29 1   
    14    6   23 1   
    15    7   21 1   
    16    7   30 1   
    17    8   23 1   
    18    8   31 1   
    19    8   32 1   
    20    8   33 1   
    21    9   10 1   
    22    9   34 1   
    23    9   35 1   
    24   10   11 1   
    25   10   12 1   
    26   13   14 1   
    27   14   15 1   
    28   15   16 1   
    29   17   18 1   
    30   17   21 1   
    31   18   19 1   
    32   18   20 1   
    33   21   22 1   
    34   22   37 1   
@<TRIPOS>SUBSTRUCTURE
     1 AL1         1 TEMP              0 ****  ****    0 ROOT
