@<TRIPOS>MOLECULE
AL1
   38    38     1     0     0
SMALL
bcc


@<TRIPOS>ATOM
      1 C3          3.0230    0.7390    1.2020 c2        1 AL1     -1.420000
      2 C9         -0.5580   -1.1340    5.3660 c3        1 AL1     -0.077000
      3 C10        -0.2680   -0.2580    2.6470 c1        1 AL1     -0.056000
      4 C19         4.2830    3.3500    5.1110 c1        1 AL1     -0.217000
      5 C20         4.0730    2.2260    5.4690 c1        1 AL1     -0.129000
      6 C21         3.8540    0.9110    5.9210 c2        1 AL1      0.030000
      7 C22         2.6790    0.3480    6.0010 c1        1 AL1     -0.258000
      8 C24         6.0350    2.9190    1.1500 c3        1 AL1      0.159000
      9 S1          3.8530    1.5700    0.1430 s6        1 AL1      2.923000
     10 O1A         5.3100    1.7220    0.9180 os        1 AL1     -0.711000
     11 O2A         4.1420    0.9690   -1.0660 o         1 AL1     -0.816000
     12 S2          3.5280   -0.3720    2.3340 ss        1 AL1      1.289000
     13 C6          2.1330   -0.7510    2.9060 c2        1 AL1     -1.050000
     14 C5          1.0650   -0.0470    2.2470 c2        1 AL1     -0.147000
     15 C4          1.5960    0.8000    1.2640 c2        1 AL1      0.057000
     16 N8          0.8850   -1.0850    5.2850 n3        1 AL1     -0.758000
     17 S7          1.6570   -1.9340    4.1540 s6        1 AL1      2.857000
     18 O3B         2.9170   -2.3730    4.5930 o         1 AL1     -0.891500
     19 O4B         0.8570   -2.8810    3.5190 o         1 AL1     -0.891500
     20 C17         1.5270   -0.2530    6.2340 c2        1 AL1      0.133000
     21 C18         0.8560   -0.0440    7.5610 c3        1 AL1     -0.182000
     22 H91        -1.0910    0.1850    2.0760 ha        1 AL1      0.098000
     23 H92        -0.8720   -1.5870    6.3450 h1        1 AL1      0.108333
     24 H101       -0.9630   -1.7560    4.5180 h1        1 AL1      0.108333
     25 H102       -0.9910   -0.1020    5.2800 h1        1 AL1      0.108333
     26 H19         0.6560   -1.0280    8.0550 hc        1 AL1      0.108667
     27 H20         1.5170    0.5630    8.2290 hc        1 AL1      0.108667
     28 H22         4.7640    0.3570    6.2400 ha        1 AL1      0.168000
     29 H241        4.4580    4.3620    4.8400 ha        1 AL1      0.234000
     30 H242        5.3880    3.3770    2.9280 ho        1 AL1      0.250000
     31 H243        6.1540    3.5160    0.2050 h2        1 AL1      0.147500
     32 HNL1        3.0840    3.6230    0.7650 hn        1 AL1      0.297000
     33 HNL2        7.0140    2.5770    1.5860 h2        1 AL1      0.147500
     34 H4          0.9770    1.4390    0.6220 ha        1 AL1      0.177000
     35 H18        -0.1120    0.4990    7.4270 hc        1 AL1      0.108667
     36 N21         3.2480    2.9930    0.0050 n3        1 AL1     -0.952000
     37 H213        3.0150    3.4140   -0.8720 hn        1 AL1      0.297000
     38 O23         5.2140    3.6390    2.0100 oh        1 AL1     -0.360000
@<TRIPOS>BOND
     1    1    9 1   
     2    1   12 1   
     3    1   15 1   
     4    2   16 1   
     5    2   23 1   
     6    2   24 1   
     7    2   25 1   
     8    3   14 1   
     9    3   22 1   
    10    4    5 1   
    11    4   29 1   
    12    5    6 1   
    13    6    7 1   
    14    6   28 1   
    15    7   20 1   
    16    8   10 1   
    17    8   31 1   
    18    8   33 1   
    19    8   38 1   
    20    9   10 1   
    21    9   11 1   
    22    9   36 1   
    23   12   13 1   
    24   13   14 1   
    25   13   17 1   
    26   14   15 1   
    27   15   34 1   
    28   16   17 1   
    29   16   20 1   
    30   17   18 1   
    31   17   19 1   
    32   20   21 1   
    33   21   26 1   
    34   21   27 1   
    35   21   35 1   
    36   30   38 1   
    37   32   36 1   
    38   36   37 1   
@<TRIPOS>SUBSTRUCTURE
     1 AL1         1 TEMP              0 ****  ****    0 ROOT
