@<TRIPOS>MOLECULE
AL1
   38    39     1     0     0
SMALL
bcc


@<TRIPOS>ATOM
      1 C3          0.2430    0.0600    0.6220 c2        1 AL1     -1.500000
      2 C9          4.6760   -0.1240    3.7270 c3        1 AL1     -0.109000
      3 C10         0.3950    2.3930    3.4580 c1        1 AL1     -0.012000
      4 C19         4.1360    2.1840    6.8660 c1        1 AL1      0.021000
      5 C20         4.5010    0.8410    7.2990 c3        1 AL1     -0.212000
      6 C21         3.8510   -0.3810    6.5460 c2        1 AL1      0.250000
      7 C22         2.7130    0.2230    5.8470 c2        1 AL1     -0.271000
      8 C24         6.0120    0.6780    7.3180 c3        1 AL1     -0.184000
      9 S1         -0.7400   -0.8160   -0.2290 s6        1 AL1      2.893000
     10 O1A        -0.1300   -1.6780   -1.1130 o         1 AL1     -0.849000
     11 O2A        -1.9470   -1.1110    0.3590 o         1 AL1     -0.849000
     12 S2          1.8910    0.2140    0.6160 ss        1 AL1      1.260000
     13 C6          2.0410    1.1870    1.8270 c2        1 AL1     -1.106000
     14 C5          0.7590    1.5290    2.4000 c2        1 AL1     -0.136000
     15 C4         -0.2580    0.8640    1.7000 c2        1 AL1      0.094000
     16 N8          3.8160    1.0310    3.7950 n3        1 AL1     -0.754000
     17 S7          3.4970    1.9280    2.4970 s6        1 AL1      2.847000
     18 O3B         3.1580    3.2450    2.8130 o         1 AL1     -0.897000
     19 O4B         4.4420    1.7100    1.4810 o         1 AL1     -0.897000
     20 C17         3.0550    1.2310    4.9600 c2        1 AL1     -0.113000
     21 C18         3.2340    2.5170    5.7630 c3        1 AL1     -0.152000
     22 H91         1.1760    2.8520    4.0790 ha        1 AL1      0.099000
     23 H92         5.4930   -0.0320    4.4950 h1        1 AL1      0.111000
     24 H101        4.0970   -1.0630    3.9480 h1        1 AL1      0.111000
     25 H102        5.1490   -0.1960    2.7100 h1        1 AL1      0.111000
     26 H19         2.2640    2.8720    6.2210 hc        1 AL1      0.182000
     27 H20         4.1230    0.7610    8.3690 hc        1 AL1      0.181000
     28 H22         1.8090    0.3380    6.4680 ha        1 AL1      0.167000
     29 H241        6.4680    1.4330    8.0030 hc        1 AL1      0.103333
     30 H242        6.4390    0.8150    6.2960 hc        1 AL1      0.103333
     31 H243        6.2670   -0.3490    7.6780 hc        1 AL1      0.103333
     32 HNL1       -1.0710    0.2970   -2.4200 hn        1 AL1      0.250000
     33 HNL2       -0.9570    1.4580   -1.2610 hn        1 AL1      0.250000
     34 H4         -1.3230    0.9430    1.9700 ha        1 AL1      0.210000
     35 H18         3.6330    3.3740    5.1510 hc        1 AL1      0.182000
     36 N21        -1.3380    0.5420   -1.4690 nz        1 AL1     -0.507000
     37 H213       -2.3540    0.6130   -1.4410 hn        1 AL1      0.250000
     38 O23         4.2610   -1.5280    6.6140 o         1 AL1     -0.230000
@<TRIPOS>BOND
     1    1    9 1   
     2    1   12 1   
     3    1   15 1   
     4    2   16 1   
     5    2   23 1   
     6    2   24 1   
     7    2   25 1   
     8    3   14 1   
     9    3   22 1   
    10    4    5 1   
    11    4   21 1   
    12    5    6 1   
    13    5    8 1   
    14    5   27 1   
    15    6    7 1   
    16    6   38 1   
    17    7   20 1   
    18    7   28 1   
    19    8   29 1   
    20    8   30 1   
    21    8   31 1   
    22    9   10 1   
    23    9   11 1   
    24    9   36 1   
    25   12   13 1   
    26   13   14 1   
    27   13   17 1   
    28   14   15 1   
    29   15   34 1   
    30   16   17 1   
    31   16   20 1   
    32   17   18 1   
    33   17   19 1   
    34   20   21 1   
    35   21   26 1   
    36   21   35 1   
    37   32   36 1   
    38   33   36 1   
    39   36   37 1   
@<TRIPOS>SUBSTRUCTURE
     1 AL1         1 TEMP              0 ****  ****    0 ROOT
