@<TRIPOS>MOLECULE
AL2
   39    41     1     0     0
SMALL
bcc


@<TRIPOS>ATOM
      1 C3         -0.1480    0.1650    0.5890 cc        1 AL2     -0.757600
      2 O5          3.9460    0.5920   -0.2410 oh        1 AL2     -0.585800
      3 C9          4.3530   -0.5550    1.8580 c3        1 AL2      0.203800
      4 C10         3.5680   -0.5420    0.5230 c3        1 AL2      0.174400
      5 C11         4.5410   -1.4900    4.0760 ca        1 AL2      0.027600
      6 C12         4.3630   -0.4900    5.0580 ca        1 AL2     -0.073500
      7 C13         5.0740   -0.5380    6.2460 ca        1 AL2     -0.176000
      8 C14         5.9880   -1.5880    6.4700 ca        1 AL2      0.165100
      9 C15         6.1860   -2.5760    5.4970 ca        1 AL2     -0.176000
     10 C16         5.4730   -2.5220    4.3040 ca        1 AL2     -0.073500
     11 O1A        -0.9310    2.1890   -0.6570 o         1 AL2     -0.573300
     12 O2A        -2.5130    0.9240    0.6320 o         1 AL2     -0.573300
     13 N21        -1.6820   -0.0590   -1.5750 n4        1 AL2     -0.783500
     14 S1         -1.3020    1.0320   -0.0150 sy        1 AL2      1.558200
     15 C4          1.1950    0.3490    0.0950 cd        1 AL2     -0.010000
     16 C5          2.1030   -0.4540    0.7690 cd        1 AL2     -0.055300
     17 C6          1.4550   -1.2270    1.7760 cc        1 AL2     -0.388600
     18 S2         -0.0900   -0.9320    1.8210 ss        1 AL2      0.695200
     19 S7          2.4710   -2.3280    2.7010 sy        1 AL2      1.530200
     20 O3B         1.7740   -2.5430    3.8900 o         1 AL2     -0.618800
     21 O4B         2.6460   -3.4250    1.8580 o         1 AL2     -0.618800
     22 N8          3.8080   -1.4450    2.8550 nh        1 AL2     -0.689900
     23 O6          6.6370   -1.5390    7.6790 os        1 AL2     -0.312900
     24 C17         7.5560   -2.5950    7.9550 c3        1 AL2      0.107700
     25 HO5         4.9010    0.5300   -0.3840 ho        1 AL2      0.433000
     26 H91         4.3750    0.4970    2.2660 h1        1 AL2      0.074200
     27 H92         5.4160   -0.8600    1.6330 h1        1 AL2      0.074200
     28 H10         3.7870   -1.4850   -0.0630 h1        1 AL2      0.085700
     29 H12         3.6540    0.3360    4.8910 ha        1 AL2      0.143500
     30 H13         4.9360    0.2320    7.0210 ha        1 AL2      0.161000
     31 H15         6.9000   -3.3970    5.6620 ha        1 AL2      0.161000
     32 H16         5.6460   -3.3020    3.5440 ha        1 AL2      0.143500
     33 HNL1       -2.6290   -0.4280   -1.5270 hn        1 AL2      0.452133
     34 HNL2       -1.0420   -0.8400   -1.6670 hn        1 AL2      0.452133
     35 H4          1.4730    1.0650   -0.6910 ha        1 AL2      0.207000
     36 H171        8.3910   -2.5920    7.2130 h1        1 AL2      0.055700
     37 H172        7.0310   -3.5810    7.9580 h1        1 AL2      0.055700
     38 H173        7.9330   -2.3430    8.9790 h1        1 AL2      0.055700
     39 H213       -1.6100    0.5060   -2.4180 hn        1 AL2      0.452133
@<TRIPOS>BOND
     1    1   14 1   
     2    1   15 2   
     3    1   18 1   
     4    2    4 1   
     5    2   25 1   
     6    3    4 1   
     7    3   22 1   
     8    3   26 1   
     9    3   27 1   
    10    4   16 1   
    11    4   28 1   
    12    5    6 ar  
    13    5   10 ar  
    14    5   22 1   
    15    6    7 ar  
    16    6   29 1   
    17    7    8 ar  
    18    7   30 1   
    19    8    9 ar  
    20    8   23 1   
    21    9   10 ar  
    22    9   31 1   
    23   10   32 1   
    24   11   14 2   
    25   12   14 2   
    26   13   14 1   
    27   13   33 1   
    28   13   34 1   
    29   13   39 1   
    30   15   16 1   
    31   15   35 1   
    32   16   17 2   
    33   17   18 1   
    34   17   19 1   
    35   19   20 2   
    36   19   21 2   
    37   19   22 1   
    38   23   24 1   
    39   24   36 1   
    40   24   37 1   
    41   24   38 1   
@<TRIPOS>SUBSTRUCTURE
     1 AL2         1 TEMP              0 ****  ****    0 ROOT
