@<TRIPOS>MOLECULE
AL2
   39    41     1     0     0
SMALL
bcc


@<TRIPOS>ATOM
      1 C3         -0.1500    0.1770    0.6020 cc        1 AL2     -0.757600
      2 O5          3.9420    0.6350   -0.2210 oh        1 AL2     -0.585800
      3 C9          4.3540   -0.5410    1.8620 c3        1 AL2      0.203800
      4 C10         3.5700   -0.5120    0.5270 c3        1 AL2      0.174400
      5 C11         4.5420   -1.5030    4.0680 ca        1 AL2      0.027600
      6 C12         4.3580   -0.5150    5.0620 ca        1 AL2     -0.073500
      7 C13         5.0660   -0.5740    6.2500 ca        1 AL2     -0.176000
      8 C14         5.9850   -1.6230    6.4650 ca        1 AL2      0.165100
      9 C15         6.1890   -2.5990    5.4800 ca        1 AL2     -0.176000
     10 C16         5.4780   -2.5340    4.2860 ca        1 AL2     -0.073500
     11 O1A        -0.9410    2.2160   -0.6150 o         1 AL2     -0.573300
     12 O2A        -2.5180    0.9250    0.6540 o         1 AL2     -0.573300
     13 N21        -1.6820   -0.0210   -1.5660 n4        1 AL2     -0.783500
     14 S1         -1.3080    1.0480    0.0100 sy        1 AL2      1.558200
     15 C4          1.1920    0.3750    0.1110 cd        1 AL2     -0.010000
     16 C5          2.1040   -0.4340    0.7730 cd        1 AL2     -0.055300
     17 C6          1.4580   -1.2240    1.7690 cc        1 AL2     -0.388600
     18 S2         -0.0880   -0.9380    1.8170 ss        1 AL2      0.695200
     19 S7          2.4790   -2.3340    2.6780 sy        1 AL2      1.530200
     20 O3B         1.7830   -2.5710    3.8630 o         1 AL2     -0.618800
     21 O4B         2.6610   -3.4170    1.8190 o         1 AL2     -0.618800
     22 N8          3.8120   -1.4460    2.8470 nh        1 AL2     -0.689900
     23 O6          6.6310   -1.5860    7.6750 os        1 AL2     -0.312900
     24 C17         7.5540   -2.6410    7.9410 c3        1 AL2      0.107700
     25 HO5         4.8970    0.5790   -0.3640 ho        1 AL2      0.433000
     26 H91         5.4180   -0.8390    1.6330 h1        1 AL2      0.074200
     27 H92         4.3720    0.5060    2.2850 h1        1 AL2      0.074200
     28 H10         3.7920   -1.4460   -0.0730 h1        1 AL2      0.085700
     29 H12         3.6460    0.3100    4.9030 ha        1 AL2      0.143000
     30 H13         4.9240    0.1850    7.0340 ha        1 AL2      0.161000
     31 H15         6.9060   -3.4180    5.6360 ha        1 AL2      0.161000
     32 H16         5.6560   -3.3030    3.5170 ha        1 AL2      0.143000
     33 HNL1       -1.0380   -0.7980   -1.6690 hn        1 AL2      0.452133
     34 HNL2       -1.6120    0.5570   -2.4010 hn        1 AL2      0.452133
     35 H4          1.4670    1.1040   -0.6640 ha        1 AL2      0.207000
     36 H171        7.9280   -2.3980    8.9680 h1        1 AL2      0.055700
     37 H172        7.0340   -3.6290    7.9310 h1        1 AL2      0.055700
     38 H173        8.3900   -2.6250    7.2010 h1        1 AL2      0.055700
     39 H213       -2.6270   -0.3960   -1.5250 hn        1 AL2      0.452133
@<TRIPOS>BOND
     1    1   14 1   
     2    1   15 2   
     3    1   18 1   
     4    2    4 1   
     5    2   25 1   
     6    3    4 1   
     7    3   22 1   
     8    3   26 1   
     9    3   27 1   
    10    4   16 1   
    11    4   28 1   
    12    5    6 ar  
    13    5   10 ar  
    14    5   22 1   
    15    6    7 ar  
    16    6   29 1   
    17    7    8 ar  
    18    7   30 1   
    19    8    9 ar  
    20    8   23 1   
    21    9   10 ar  
    22    9   31 1   
    23   10   32 1   
    24   11   14 2   
    25   12   14 2   
    26   13   14 1   
    27   13   33 1   
    28   13   34 1   
    29   13   39 1   
    30   15   16 1   
    31   15   35 1   
    32   16   17 2   
    33   17   18 1   
    34   17   19 1   
    35   19   20 2   
    36   19   21 2   
    37   19   22 1   
    38   23   24 1   
    39   24   36 1   
    40   24   37 1   
    41   24   38 1   
@<TRIPOS>SUBSTRUCTURE
     1 AL2         1 TEMP              0 ****  ****    0 ROOT
