@<TRIPOS>MOLECULE
AL2
   38    33     1     0     0
SMALL
bcc


@<TRIPOS>ATOM
      1 C3         -2.3480    1.0320   -3.7270 c1        1 AL2     -1.226000
      2 O5          1.8040    2.1740   -2.0480 oh        1 AL2     -0.305000
      3 C9          1.1600    1.1320   -0.0190 c3        1 AL2     -0.028000
      4 C10         1.0830    1.0780   -1.5430 c3        1 AL2      0.058000
      5 C11         0.5330   -0.3070    1.8640 c1        1 AL2     -0.015000
      6 C12         0.7220   -1.6780    1.7800 c1        1 AL2     -0.084000
      7 C13         1.1550   -2.3910    2.8900 c1        1 AL2     -0.204000
      8 C14         1.3990   -1.7330    4.0850 c1        1 AL2      0.091000
      9 C15         1.2090   -0.3590    4.1710 c1        1 AL2     -0.118500
     10 C16         0.7750    0.3540    3.0570 c1        1 AL2     -0.118500
     11 O1A        -2.2490    0.7540   -6.4140 o         1 AL2     -0.540900
     12 O2A        -3.2340    2.6380   -5.7160 o         1 AL2     -0.540900
     13 N21        -4.5830    0.4870   -5.4030 n3        1 AL2     -0.952000
     14 S1         -3.1170    1.2380   -5.3620 s4        1 AL2      2.117800
     15 C4         -0.8840    1.1170   -3.7280 c1        1 AL2     -0.034000
     16 C5         -0.3790    1.1010   -2.2140 c2        1 AL2     -0.039000
     17 C6         -1.5700    1.0050   -1.3250 c1        1 AL2     -1.201000
     18 S2         -2.8310    0.9590   -2.2250 ss        1 AL2      1.106000
     19 S7         -1.3090    0.7180    0.3730 ss        1 AL2      2.896000
     20 O3B        -1.7690    1.8710    1.1090 o         1 AL2     -0.928000
     21 O4B        -2.0750   -0.4340    0.7760 o         1 AL2     -0.928000
     22 N8          0.1800    0.4350    0.6950 n2        1 AL2     -0.781000
     23 O6          1.8190   -2.4760    5.2400 os        1 AL2     -0.206000
     24 C17         3.2160   -2.7960    5.2480 c3        1 AL2     -0.078000
     25 HO5         2.5170    1.8830   -2.4860 ho        1 AL2      0.211000
     26 H91         2.0200    0.7420    0.2300 h1        1 AL2      0.097000
     27 H92         1.0770    2.0680    0.2330 h1        1 AL2      0.097000
     28 H10         1.5330    0.2600   -1.8370 h1        1 AL2      0.106000
     29 H12         0.5510   -2.1440    0.9360 ha        1 AL2      0.139000
     30 H13         1.2890   -3.3630    2.8280 ha        1 AL2      0.142000
     31 H15         1.3810    0.1080    5.0170 ha        1 AL2      0.160500
     32 H16         0.6390    1.3340    3.1170 ha        1 AL2      0.160500
     33 HNL1       -4.8110   -0.0340   -6.1230 hn        1 AL2      0.245500
     34 HNL2       -5.1870    0.6270   -4.7320 hn        1 AL2      0.245500
     35 H4         -0.3270    1.2210   -4.5050 DU        1 AL2      0.194000
     36 H171        3.4350   -3.3080    6.0750 h1        1 AL2      0.086333
     37 H172        3.4330   -3.3440    4.4540 h1        1 AL2      0.086333
     38 H173        3.7410   -1.9670    5.2270 h1        1 AL2      0.086333
@<TRIPOS>BOND
     1    1   15 1   
     2    1   18 1   
     3    2    4 1   
     4    2   25 1   
     5    3    4 1   
     6    3   22 1   
     7    3   26 1   
     8    3   27 1   
     9    4   16 1   
    10    4   28 1   
    11    5    6 1   
    12    5   22 1   
    13    6   29 1   
    14    7    8 1   
    15    7   30 1   
    16    8   23 1   
    17    9   10 1   
    18    9   31 1   
    19   10   32 1   
    20   11   14 1   
    21   12   14 1   
    22   13   14 1   
    23   13   33 1   
    24   13   34 1   
    25   15   16 1   
    26   16   17 1   
    27   17   18 1   
    28   19   20 1   
    29   19   21 1   
    30   23   24 1   
    31   24   36 1   
    32   24   37 1   
    33   24   38 1   
@<TRIPOS>SUBSTRUCTURE
     1 AL2         1 TEMP              0 ****  ****    0 ROOT
