@<TRIPOS>MOLECULE
AL2
   39    41     1     0     0
SMALL
bcc


@<TRIPOS>ATOM
      1 C3         -0.1320    0.2120    0.5930 cc        1 AL2     -0.757600
      2 O5          3.9650    0.4960   -0.2850 oh        1 AL2     -0.585800
      3 C9          4.3580   -0.6150    1.8360 c3        1 AL2      0.203800
      4 C10         3.5610   -0.6080    0.5090 c3        1 AL2      0.174400
      5 C11         4.5370   -1.4980    4.0760 ca        1 AL2      0.027600
      6 C12         4.3960   -0.4690    5.0330 ca        1 AL2     -0.073500
      7 C13         5.1150   -0.5080    6.2160 ca        1 AL2     -0.176000
      8 C14         6.0000   -1.5780    6.4610 ca        1 AL2      0.165100
      9 C15         6.1600   -2.5970    5.5120 ca        1 AL2     -0.176000
     10 C16         5.4390   -2.5520    4.3240 ca        1 AL2     -0.073500
     11 O1A        -0.8660    2.2310   -0.6930 o         1 AL2     -0.573300
     12 O2A        -2.4720    1.0440    0.6400 o         1 AL2     -0.573300
     13 N21        -1.6940   -0.0140   -1.5510 nz        1 AL2     -0.783500
     14 S1         -1.2650    1.1010   -0.0210 sy        1 AL2      1.558200
     15 C4          1.2110    0.3450    0.0820 cd        1 AL2     -0.010000
     16 C5          2.1020   -0.4700    0.7660 cd        1 AL2     -0.055300
     17 C6          1.4400   -1.2000    1.7960 cc        1 AL2     -0.388600
     18 S2         -0.0950   -0.8580    1.8490 ss        1 AL2      0.695200
     19 S7          2.4320   -2.3100    2.7370 sy        1 AL2      1.530200
     20 O3B         1.7400   -2.4780    3.9360 o         1 AL2     -0.618800
     21 O4B         2.5670   -3.4300    1.9170 o         1 AL2     -0.618800
     22 N8          3.7960   -1.4630    2.8600 nh        1 AL2     -0.689900
     23 O6          6.6590   -1.5190    7.6630 os        1 AL2     -0.312900
     24 C17         7.5490   -2.5940    7.9600 c3        1 AL2      0.107700
     25 HO5         4.9160    0.4020   -0.4360 ho        1 AL2      0.433000
     26 H91         5.4090   -0.9580    1.6090 h1        1 AL2      0.074200
     27 H92         4.4170    0.4460    2.2190 h1        1 AL2      0.074200
     28 H10         3.7450   -1.5710   -0.0570 h1        1 AL2      0.085700
     29 H12         3.7100    0.3730    4.8500 ha        1 AL2      0.143000
     30 H13         5.0060    0.2850    6.9730 ha        1 AL2      0.161000
     31 H15         6.8510   -3.4330    5.6920 ha        1 AL2      0.161000
     32 H16         5.5830   -3.3550    3.5820 ha        1 AL2      0.143000
     33 HNL1       -2.6510   -0.3530   -1.4870 hn        1 AL2      0.452133
     34 HNL2       -1.0780   -0.8160   -1.6310 hn        1 AL2      0.452133
     35 H4          1.5020    1.0340   -0.7230 ha        1 AL2      0.207000
     36 H171        7.9420   -2.3260    8.9740 h1        1 AL2      0.055700
     37 H172        6.9960   -3.5630    7.9920 h1        1 AL2      0.055700
     38 H173        8.3780   -2.6330    7.2120 h1        1 AL2      0.055700
     39 H213       -1.6130    0.5290   -2.4080 hn        1 AL2      0.452133
@<TRIPOS>BOND
     1    1   14 1   
     2    1   15 2   
     3    1   18 1   
     4    2    4 1   
     5    2   25 1   
     6    3    4 1   
     7    3   22 1   
     8    3   26 1   
     9    3   27 1   
    10    4   16 1   
    11    4   28 1   
    12    5    6 ar  
    13    5   10 ar  
    14    5   22 1   
    15    6    7 ar  
    16    6   29 1   
    17    7    8 ar  
    18    7   30 1   
    19    8    9 ar  
    20    8   23 1   
    21    9   10 ar  
    22    9   31 1   
    23   10   32 1   
    24   11   14 2   
    25   12   14 2   
    26   13   14 1   
    27   13   33 1   
    28   13   34 1   
    29   13   39 1   
    30   15   16 1   
    31   15   35 1   
    32   16   17 2   
    33   17   18 1   
    34   17   19 1   
    35   19   20 2   
    36   19   21 2   
    37   19   22 1   
    38   23   24 1   
    39   24   36 1   
    40   24   37 1   
    41   24   38 1   
@<TRIPOS>SUBSTRUCTURE
     1 AL2         1 TEMP              0 ****  ****    0 ROOT
