@<TRIPOS>MOLECULE
AL2
   38    40     1     0     0
SMALL
bcc


@<TRIPOS>ATOM
      1 C3          0.1530   -0.4490   -3.0430 cc        1 AL2     -0.506600
      2 O5          2.3800    2.4770   -0.7210 oh        1 AL2     -0.584800
      3 C9          0.8810    2.0430    1.0380 c3        1 AL2      0.203800
      4 C10         1.6520    1.4020   -0.1460 c3        1 AL2      0.174400
      5 C11        -0.0750    0.5260    2.7090 ca        1 AL2      0.109600
      6 C12        -1.1790    0.4000    3.5870 ca        1 AL2     -0.108500
      7 C13        -1.0510   -0.2780    4.7890 ca        1 AL2     -0.161500
      8 C14         0.1890   -0.8370    5.1490 ca        1 AL2      0.120100
      9 C15         1.2900   -0.7220    4.2950 ca        1 AL2     -0.161500
     10 C16         1.1550   -0.0500    3.0830 ca        1 AL2     -0.108500
     11 O1A         1.7190   -0.5940   -4.9940 o         1 AL2     -0.652300
     12 O2A        -0.6410   -0.9460   -5.3680 o         1 AL2     -0.652300
     13 N21         0.6620   -2.6780   -4.2260 n3        1 AL2     -1.028700
     14 S1          0.4920   -1.1210   -4.5510 sy        1 AL2      1.561200
     15 C4          1.2010    0.1800   -2.3350 cd        1 AL2     -0.072000
     16 C5          0.7510    0.7190   -1.1180 cd        1 AL2     -0.078300
     17 C6         -0.6330    0.4770   -0.9350 cc        1 AL2     -0.466600
     18 S2         -1.2240   -0.3300   -2.2050 ss        1 AL2      0.569200
     19 S7         -1.4530    1.0250    0.4420 sy        1 AL2      1.534200
     20 O3B        -2.0530    2.2550    0.1360 o         1 AL2     -0.639800
     21 O4B        -2.3430    0.0170    0.8510 o         1 AL2     -0.639800
     22 N8         -0.2170    1.2340    1.4940 nh        1 AL2     -0.659900
     23 O6          0.2050   -1.4790    6.3710 os        1 AL2     -0.322900
     24 C17         1.4450   -2.0600    6.7590 c3        1 AL2      0.112700
     25 HO5         2.6530    2.2080   -1.6070 ho        1 AL2      0.416000
     26 H91         0.4760    3.0430    0.6950 h1        1 AL2      0.090200
     27 H92         1.6130    2.2410    1.8680 h1        1 AL2      0.090200
     28 H10         2.3890    0.6400    0.2450 h1        1 AL2      0.054700
     29 H12        -2.1620    0.8180    3.3130 ha        1 AL2      0.143000
     30 H13        -1.9100   -0.3840    5.4680 ha        1 AL2      0.149500
     31 H15         2.2640   -1.1560    4.5630 ha        1 AL2      0.149500
     32 H16         2.0310    0.0290    2.4210 ha        1 AL2      0.143000
     33 HNL1       -0.0580   -3.3450   -4.3560 hn        1 AL2      0.451300
     34 HNL2        1.5050   -3.0860   -3.9110 hn        1 AL2      0.451300
     35 H4          2.2300    0.2460   -2.7080 ha        1 AL2      0.180000
     36 H171        1.2180   -2.5120    7.7580 h1        1 AL2      0.045700
     37 H172        1.7570   -2.8470    6.0310 h1        1 AL2      0.045700
     38 H173        2.2360   -1.2760    6.8520 h1        1 AL2      0.045700
@<TRIPOS>BOND
     1    1   14 1   
     2    1   15 2   
     3    1   18 1   
     4    2    4 1   
     5    2   25 1   
     6    3    4 1   
     7    3   22 1   
     8    3   26 1   
     9    3   27 1   
    10    4   16 1   
    11    4   28 1   
    12    5    6 ar  
    13    5   10 ar  
    14    5   22 1   
    15    6    7 ar  
    16    6   29 1   
    17    7    8 ar  
    18    7   30 1   
    19    8    9 ar  
    20    8   23 1   
    21    9   10 ar  
    22    9   31 1   
    23   10   32 1   
    24   11   14 2   
    25   12   14 2   
    26   13   14 1   
    27   13   33 1   
    28   13   34 1   
    29   15   16 1   
    30   15   35 1   
    31   16   17 2   
    32   17   18 1   
    33   17   19 1   
    34   19   20 2   
    35   19   21 2   
    36   19   22 1   
    37   23   24 1   
    38   24   36 1   
    39   24   37 1   
    40   24   38 1   
@<TRIPOS>SUBSTRUCTURE
     1 AL2         1 TEMP              0 ****  ****    0 ROOT
