@<TRIPOS>MOLECULE
AL3
   35    33     1     0     0
SMALL
bcc


@<TRIPOS>ATOM
      1 C3         -0.1570    0.5030   -0.0670 c2        1 AL3     -1.539000
      2 O5          3.7660   -0.8690   -1.0750 oh        1 AL3     -0.218000
      3 C9          4.3950    2.0630    3.1760 c3        1 AL3     -0.062000
      4 C10         3.5030   -0.3960    0.1290 c1        1 AL3      0.018000
      5 C12         5.3280   -1.0140    7.0850 c2        1 AL3     -0.454000
      6 C13         4.4470    0.1210    7.3550 c2        1 AL3     -0.074000
      7 C14         3.7020    0.4610    6.2550 c2        1 AL3     -0.127000
      8 C15         4.0010   -0.3960    5.1450 c1        1 AL3     -0.821000
      9 O1A        -1.2020    0.7760   -2.2930 o         1 AL3     -0.470900
     10 O2A        -2.4790    1.3010   -0.3600 o         1 AL3     -0.470900
     11 N21        -2.1670   -1.3360   -0.9050 n3        1 AL3     -0.487000
     12 S1         -1.3670    0.7560   -0.9380 s4        1 AL3      2.163800
     13 C4          1.1110    0.0960   -0.6260 c2        1 AL3      0.046000
     14 C5          2.1070   -0.0500    0.3350 c2        1 AL3     -0.180000
     15 C6          1.5770    0.2370    1.6250 c1        1 AL3     -0.856000
     16 S2          0.0890    0.6390    1.6050 ss        1 AL3      1.096000
     17 S7          2.7920   -0.0550    3.3530 s4        1 AL3      2.144800
     18 O3B         1.8600    0.6410    4.1300 o         1 AL3     -0.532400
     19 O4B         2.7670   -1.4330    3.1480 o         1 AL3     -0.532400
     20 N8          3.9760    0.7720    2.7300 n3        1 AL3     -0.890000
     21 S16         5.0560   -1.4880    5.4280 ss        1 AL3      0.926000
     22 HO5         4.7220   -1.0630   -1.1100 ho        1 AL3      0.270000
     23 H91         4.0710    2.8620    2.4540 h1        1 AL3      0.088000
     24 H92         5.5150    2.0980    3.2600 h1        1 AL3      0.088000
     25 H10         3.9490    2.2850    4.1850 h1        1 AL3      0.088000
     26 H111        4.4150    0.4710    1.8760 hn        1 AL3      0.290000
     27 H112        6.8050   -2.4420    7.6910 ha        1 AL3      0.148500
     28 H13         6.2750   -1.2140    8.9880 ha        1 AL3      0.148500
     29 H14         4.4120    0.6070    8.3350 ha        1 AL3      0.178000
     30 H15         2.9450    1.2540    6.2030 ha        1 AL3      0.199000
     31 HNL1       -1.5710   -1.9550   -0.3860 hn        1 AL3      0.207333
     32 HNL2       -3.0830   -1.3320   -0.4910 hn        1 AL3      0.207333
     33 H4          1.2610   -0.0610   -1.7030 ha        1 AL3      0.184000
     34 C11         6.1700   -1.5810    7.9530 c2        1 AL3      0.017000
     35 H213       -2.2370   -1.6650   -1.8540 hn        1 AL3      0.207333
@<TRIPOS>BOND
     1    1   12 1   
     2    1   13 1   
     3    1   16 1   
     4    2    4 1   
     5    2   22 1   
     6    3   20 1   
     7    3   23 1   
     8    3   24 1   
     9    3   25 1   
    10    4   14 1   
    11    5    6 1   
    12    5   21 1   
    13    5   34 1   
    14    6    7 1   
    15    6   29 1   
    16    7    8 1   
    17    7   30 1   
    18    8   21 1   
    19    9   12 1   
    20   10   12 1   
    21   11   31 1   
    22   11   32 1   
    23   11   35 1   
    24   13   14 1   
    25   13   33 1   
    26   14   15 1   
    27   15   16 1   
    28   17   18 1   
    29   17   19 1   
    30   17   20 1   
    31   20   26 1   
    32   27   34 1   
    33   28   34 1   
@<TRIPOS>SUBSTRUCTURE
     1 AL3         1 TEMP              0 ****  ****    0 ROOT
