@<TRIPOS>MOLECULE
AL3
   34    29     1     0     0
SMALL
bcc


@<TRIPOS>ATOM
      1 C3         -1.7580    0.5760   -3.3010 c1        1 AL3     -1.221000
      2 O5          2.4050    1.3820   -1.4490 oh        1 AL3     -0.310000
      3 C9          1.7180    0.0470    0.3890 c3        1 AL3     -0.060000
      4 C10         1.6510    0.2380   -1.1270 c3        1 AL3      0.054000
      5 C11         1.0700   -1.6440    2.0610 c3        1 AL3      0.061000
      6 C12         0.9790   -0.8840    3.4120 c2        1 AL3     -0.423000
      7 C13         2.0920   -0.6180    4.3210 c1        1 AL3     -0.149000
      8 C14         1.4990    0.0050    5.6710 c1        1 AL3     -0.160000
      9 C15         0.0500    0.0970    5.5360 c1        1 AL3     -0.442000
     10 O1A        -4.0540   -0.5140   -4.0480 o         1 AL3     -0.541900
     11 O2A        -2.3970   -0.7690   -5.4960 o         1 AL3     -0.541900
     12 N21        -3.3900    1.5590   -5.3420 n3        1 AL3     -0.952000
     13 S1         -2.9270    0.1950   -4.5730 s4        1 AL3      2.117800
     14 C4         -0.2930    0.6500   -3.2790 c1        1 AL3     -0.041000
     15 C5          0.1990    0.4040   -1.7870 c2        1 AL3     -0.030000
     16 C6         -0.9990    0.1840   -0.9300 c1        1 AL3     -1.191000
     17 S2         -2.2520    0.2820   -1.8330 ss        1 AL3      1.091000
     18 S7         -0.7550   -0.4010    0.6960 ss        1 AL3      2.882000
     19 O3B        -1.2100    0.6000    1.6150 o         1 AL3     -0.927500
     20 O4B        -1.5300   -1.5980    0.8810 o         1 AL3     -0.927500
     21 N8          0.7290   -0.7460    0.9770 n2        1 AL3     -0.818000
     22 S16        -0.3370   -0.4510    4.1280 ss        1 AL3      0.615000
     23 HO5         3.0830    1.1500   -1.9800 ho        1 AL3      0.208000
     24 H91         1.6390    0.9360    0.7890 h1        1 AL3      0.114500
     25 H92         2.5720   -0.3840    0.5790 h1        1 AL3      0.114500
     26 H10         2.0810   -0.5340   -1.5430 h1        1 AL3      0.098000
     27 H111        0.4410   -2.4050    2.0700 h1        1 AL3      0.109000
     28 H112        1.9820   -1.9770    1.9340 h1        1 AL3      0.109000
     29 H13         3.0260   -0.7900    4.1390 DU        1 AL3      0.166750
     30 H14         2.0220    0.2800    6.4590 DU        1 AL3      0.166750
     31 H15        -0.5700    0.4420    6.2100 DU        1 AL3      0.166750
     32 HNL1       -4.2230    1.8920   -5.2110 hn        1 AL3      0.246500
     33 HNL2       -2.8240    1.9670   -5.9220 hn        1 AL3      0.246500
     34 H4          0.2810    0.8290   -4.0470 DU        1 AL3      0.166750
@<TRIPOS>BOND
     1    1   14 1   
     2    1   17 1   
     3    2    4 1   
     4    2   23 1   
     5    3    4 1   
     6    3   21 1   
     7    3   24 1   
     8    3   25 1   
     9    4   15 1   
    10    4   26 1   
    11    5    6 1   
    12    5   21 1   
    13    5   27 1   
    14    5   28 1   
    15    6    7 1   
    16    6   22 1   
    17    7    8 1   
    18    8    9 1   
    19    9   22 1   
    20   10   13 1   
    21   11   13 1   
    22   12   13 1   
    23   12   32 1   
    24   12   33 1   
    25   14   15 1   
    26   15   16 1   
    27   16   17 1   
    28   18   19 1   
    29   18   20 1   
@<TRIPOS>SUBSTRUCTURE
     1 AL3         1 TEMP              0 ****  ****    0 ROOT
