@<TRIPOS>MOLECULE
AL3
   34    36     1     0     0
SMALL
bcc


@<TRIPOS>ATOM
      1 C3         -0.0870   -0.0750    3.2310 cc        1 AL3     -0.505600
      2 O5         -3.0510    0.7460    0.1720 oh        1 AL3     -0.583800
      3 C9         -1.3450    0.3900   -1.4060 c3        1 AL3      0.211800
      4 C10        -1.9180   -0.0820   -0.0440 c3        1 AL3      0.176400
      5 C12         0.1850   -0.5770   -4.0390 cc        1 AL3     -0.157400
      6 C13         1.3100   -0.3090   -4.7950 cd        1 AL3     -0.131000
      7 C14         0.9700    0.1370   -6.1100 cd        1 AL3     -0.156000
      8 C15        -0.3960    0.1890   -6.2890 cc        1 AL3     -0.157100
      9 O1A        -1.6430   -0.0350    5.1950 o         1 AL3     -0.652300
     10 O2A         0.6530    0.6420    5.5160 o         1 AL3     -0.652300
     11 N21         0.1390   -1.7300    5.1900 n3        1 AL3     -1.028700
     12 S1         -0.2800   -0.2140    4.8990 sy        1 AL3      1.562200
     13 C4         -1.2330   -0.1670    2.4100 cd        1 AL3     -0.072000
     14 C5         -0.9120    0.0030    1.0540 cd        1 AL3     -0.076300
     15 C6          0.4790    0.2120    0.8820 cc        1 AL3     -0.460600
     16 S2          1.2190    0.2020    2.3200 ss        1 AL3      0.561200
     17 S7          1.1690    0.4540   -0.6510 sy        1 AL3      1.543200
     18 O3B         1.4030    1.8250   -0.8060 o         1 AL3     -0.646300
     19 O4B         2.3130   -0.3660   -0.7420 o         1 AL3     -0.646300
     20 N8         -0.0100   -0.0850   -1.6290 n3        1 AL3     -0.802500
     21 S16        -1.2180   -0.2820   -4.9160 ss        1 AL3      0.021200
     22 HO5        -3.3120    0.6510    1.0960 ho        1 AL3      0.415000
     23 H91        -2.0380    0.0400   -2.2210 h1        1 AL3      0.081700
     24 H92        -1.3530    1.5210   -1.4180 h1        1 AL3      0.081700
     25 H10        -2.2640   -1.1550   -0.1230 h1        1 AL3      0.055700
     26 H111        1.2000   -1.5790   -2.4500 h1        1 AL3      0.070200
     27 H112       -0.5980   -1.8840   -2.5390 h1        1 AL3      0.070200
     28 H13         2.3410   -0.4220   -4.4500 ha        1 AL3      0.161000
     29 H14         1.7160    0.3990   -6.8630 ha        1 AL3      0.158000
     30 H15        -0.9030    0.4990   -7.2010 h4        1 AL3      0.173000
     31 HNL1        1.0360   -1.9970    5.5120 hn        1 AL3      0.450300
     32 HNL2       -0.4790   -2.4980    5.1050 hn        1 AL3      0.450300
     33 H4         -2.2440   -0.3340    2.8010 ha        1 AL3      0.180000
     34 C11         0.1980   -1.0870   -2.6440 c3        1 AL3      0.306100
@<TRIPOS>BOND
     1    1   12 1   
     2    1   13 2   
     3    1   16 1   
     4    2    4 1   
     5    2   22 1   
     6    3    4 1   
     7    3   20 1   
     8    3   23 1   
     9    3   24 1   
    10    4   14 1   
    11    4   25 1   
    12    5    6 2   
    13    5   21 1   
    14    5   34 1   
    15    6    7 1   
    16    6   28 1   
    17    7    8 2   
    18    7   29 1   
    19    8   21 1   
    20    8   30 1   
    21    9   12 2   
    22   10   12 2   
    23   11   12 1   
    24   11   31 1   
    25   11   32 1   
    26   13   14 1   
    27   13   33 1   
    28   14   15 2   
    29   15   16 1   
    30   15   17 1   
    31   17   18 2   
    32   17   19 2   
    33   17   20 1   
    34   20   34 1   
    35   26   34 1   
    36   27   34 1   
@<TRIPOS>SUBSTRUCTURE
     1 AL3         1 TEMP              0 ****  ****    0 ROOT
