@<TRIPOS>MOLECULE
AL3
   35    33     1     0     0
SMALL
bcc


@<TRIPOS>ATOM
      1 C3         -0.0430    0.4820   -0.1990 c2        1 AL3     -1.539000
      2 O5          4.0230   -0.4500   -1.1430 oh        1 AL3     -0.218000
      3 C9          4.2320    2.1760    3.3420 c3        1 AL3     -0.062000
      4 C10         3.6750   -0.1000    0.0820 c1        1 AL3      0.018000
      5 C12         5.3060   -1.1080    7.0400 c2        1 AL3     -0.454000
      6 C13         4.3160   -0.0810    7.3590 c2        1 AL3     -0.074000
      7 C14         3.5820    0.2790    6.2590 c2        1 AL3     -0.127000
      8 C15         3.9970   -0.4580    5.1000 c1        1 AL3     -0.821000
      9 O1A        -1.0300    0.8380   -2.4390 o         1 AL3     -0.470900
     10 O2A        -2.4170    1.0900   -0.5270 o         1 AL3     -0.470900
     11 N21        -1.8430   -1.4570   -1.2580 n9        1 AL3     -0.487000
     12 S1         -1.2400    0.6940   -1.0970 s4        1 AL3      2.163800
     13 C4          1.2760    0.2350   -0.7340 c2        1 AL3      0.046000
     14 C5          2.2470    0.1020    0.2540 c2        1 AL3     -0.180000
     15 C6          1.6490    0.2360    1.5400 c1        1 AL3     -0.856000
     16 S2          0.1310    0.5050    1.4880 ss        1 AL3      1.096000
     17 S7          2.8240   -0.0830    3.2890 s4        1 AL3      2.144800
     18 O3B         1.8060    0.4630    4.0780 o         1 AL3     -0.532400
     19 O4B         2.9330   -1.4380    2.9790 o         1 AL3     -0.532400
     20 N8          3.9490    0.8920    2.7820 n7        1 AL3     -0.890000
     21 S16         5.1370   -1.4720    5.3430 ss        1 AL3      0.926000
     22 HO5         4.9940   -0.5550   -1.1530 ho        1 AL3      0.270000
     23 H91         5.3400    2.3030    3.4770 h1        1 AL3      0.088000
     24 H92         3.7320    2.2760    4.3450 h1        1 AL3      0.088000
     25 H10         3.8610    2.9980    2.6710 h1        1 AL3      0.088000
     26 H111        4.4420    0.7010    1.9270 hn        1 AL3      0.290000
     27 H112        6.8850   -2.4450    7.5980 ha        1 AL3      0.148500
     28 H13         6.2000   -1.3750    8.9610 ha        1 AL3      0.148500
     29 H14         4.2020    0.3200    8.3710 ha        1 AL3      0.178000
     30 H15         2.7580    1.0030    6.2350 ha        1 AL3      0.199000
     31 HNL1       -1.2110   -2.0600   -0.7630 hn        1 AL3      0.207333
     32 HNL2       -1.8500   -1.7130   -2.2320 hn        1 AL3      0.207333
     33 H4          1.4780    0.1790   -1.8120 ha        1 AL3      0.184000
     34 C11         6.1650   -1.6660    7.8980 c2        1 AL3      0.017000
     35 H213       -2.7710   -1.5680   -0.8830 hn        1 AL3      0.207333
@<TRIPOS>BOND
     1    1   12 1   
     2    1   13 1   
     3    1   16 1   
     4    2    4 1   
     5    2   22 1   
     6    3   20 1   
     7    3   23 1   
     8    3   24 1   
     9    3   25 1   
    10    4   14 1   
    11    5    6 1   
    12    5   21 1   
    13    5   34 1   
    14    6    7 1   
    15    6   29 1   
    16    7    8 1   
    17    7   30 1   
    18    8   21 1   
    19    9   12 1   
    20   10   12 1   
    21   11   31 1   
    22   11   32 1   
    23   11   35 1   
    24   13   14 1   
    25   13   33 1   
    26   14   15 1   
    27   15   16 1   
    28   17   18 1   
    29   17   19 1   
    30   17   20 1   
    31   20   26 1   
    32   27   34 1   
    33   28   34 1   
@<TRIPOS>SUBSTRUCTURE
     1 AL3         1 TEMP              0 ****  ****    0 ROOT
