@<TRIPOS>MOLECULE
AL3
   35    36     1     0     0
SMALL
bcc


@<TRIPOS>ATOM
      1 C3          0.1800    0.1580    0.1430 c2        1 AL3     -1.480000
      2 O5          3.3700   -2.6470    0.8100 oh        1 AL3     -0.210000
      3 C9          3.5930    2.3210    3.6260 c3        1 AL3     -0.089000
      4 C10         3.2160   -1.5800    1.5630 c1        1 AL3      0.056000
      5 C12         5.5010    0.0460    5.0200 c3        1 AL3     -0.437000
      6 C13         4.6950   -0.5720    6.1140 c2        1 AL3     -0.164000
      7 C14         4.6970    0.1390    7.2850 c2        1 AL3     -0.069000
      8 C15         5.4760    1.3110    7.1080 c1        1 AL3     -0.674000
      9 O1A        -0.1770   -0.0290   -2.3200 o         1 AL3     -0.852000
     10 O2A        -1.5460    1.4890   -1.0540 o         1 AL3     -0.852000
     11 N21        -2.0020   -1.0120   -0.8470 n4        1 AL3     -0.506000
     12 S1         -0.7060    0.4010   -1.1250 s6        1 AL3      2.894000
     13 C4          1.2700   -0.7790    0.0800 c2        1 AL3      0.010000
     14 C5          2.0000   -0.8190    1.2640 c2        1 AL3     -0.141000
     15 C6          1.4520    0.0850    2.2220 c2        1 AL3     -1.031000
     16 S2          0.2050    0.8530    1.6450 ss        1 AL3      1.215000
     17 S7          2.1280    0.1300    3.8780 s6        1 AL3      2.853000
     18 O3B         1.1620    0.9320    4.5160 o         1 AL3     -0.901000
     19 O4B         2.2280   -1.2030    4.2800 o         1 AL3     -0.901000
     20 N8          3.5190    0.8880    3.7250 n3        1 AL3     -0.825000
     21 S16         6.1170    1.6400    5.8350 ss        1 AL3      0.825000
     22 HO5         4.2010   -3.0870    1.0840 ho        1 AL3      0.289000
     23 H91         3.8320    2.6310    2.5730 h1        1 AL3      0.100000
     24 H92         4.4050    2.7100    4.3030 h1        1 AL3      0.100000
     25 H10         2.6200    2.7850    3.9450 h1        1 AL3      0.100000
     26 H111        5.4700    0.7140    2.9690 h1        1 AL3      0.116000
     27 H112        4.5870   -0.8560    3.2830 h1        1 AL3      0.116000
     28 H13         6.4320   -0.5530    4.8490 h1        1 AL3      0.155000
     29 H14         4.1690   -1.5170    5.9430 ha        1 AL3      0.171000
     30 H15         4.1860   -0.1360    8.2120 ha        1 AL3      0.173000
     31 HNL1       -1.7880   -1.5840   -0.0370 hn        1 AL3      0.248667
     32 HNL2       -2.9320   -0.6200   -0.7210 hn        1 AL3      0.248667
     33 H4          1.5100   -1.3700   -0.8150 ha        1 AL3      0.197000
     34 C11         4.7840    0.1840    3.6930 c3        1 AL3      0.017000
     35 H213       -2.0290   -1.6220   -1.6610 hn        1 AL3      0.248667
@<TRIPOS>BOND
     1    1   12 1   
     2    1   13 1   
     3    1   16 1   
     4    2    4 1   
     5    2   22 1   
     6    3   20 1   
     7    3   23 1   
     8    3   24 1   
     9    3   25 1   
    10    4   14 1   
    11    5    6 1   
    12    5   21 1   
    13    5   28 1   
    14    5   34 1   
    15    6    7 1   
    16    6   29 1   
    17    7    8 1   
    18    7   30 1   
    19    8   21 1   
    20    9   12 1   
    21   10   12 1   
    22   11   12 1   
    23   11   31 1   
    24   11   32 1   
    25   11   35 1   
    26   13   14 1   
    27   13   33 1   
    28   14   15 1   
    29   15   16 1   
    30   15   17 1   
    31   17   18 1   
    32   17   19 1   
    33   17   20 1   
    34   20   34 1   
    35   26   34 1   
    36   27   34 1   
@<TRIPOS>SUBSTRUCTURE
     1 AL3         1 TEMP              0 ****  ****    0 ROOT
