@<TRIPOS>MOLECULE
AL4
   41    42     1     0     0
SMALL
bcc


@<TRIPOS>ATOM
      1 C3         -0.5120   -0.0210   -2.6150 cc        1 AL4     -0.511600
      2 C9          1.3010    0.2610    1.8250 c3        1 AL4      0.176800
      3 C10         1.7030   -0.2710    0.4110 c3        1 AL4      0.217800
      4 C12         0.1690   -0.5940    4.6910 c3        1 AL4      0.107400
      5 C14        -0.8290    0.7970    6.3260 c3        1 AL4      0.116700
      6 O1A        -1.6710    0.6290   -4.7340 o         1 AL4     -0.654800
      7 O2A         0.7180    0.2970   -4.7830 o         1 AL4     -0.654800
      8 N21        -0.7710   -1.6480   -4.5910 n3        1 AL4     -1.025700
      9 S1         -0.5420   -0.0920   -4.2940 sy        1 AL4      1.562200
     10 C4          0.7200   -0.1870   -1.9460 cd        1 AL4     -0.045000
     11 C5          0.5700   -0.0750   -0.5520 cd        1 AL4     -0.040300
     12 C6         -0.7780    0.1790   -0.2010 cc        1 AL4     -0.468600
     13 S2         -1.6890    0.2560   -1.5390 ss        1 AL4      0.535200
     14 S7         -1.2880    0.3910    1.4020 sy        1 AL4      1.550200
     15 O3B        -2.4210   -0.4200    1.6030 o         1 AL4     -0.646300
     16 O4B        -1.4760    1.7650    1.6040 o         1 AL4     -0.646300
     17 N8         -0.0050   -0.1730    2.2270 n3        1 AL4     -0.795500
     18 N15         2.9380    0.2930   -0.1050 n3        1 AL4     -0.825200
     19 O13        -0.9820    0.1500    5.0740 os        1 AL4     -0.418600
     20 C17         5.3840    0.5970    0.1050 c3        1 AL4     -0.099100
     21 H91         2.0710   -0.0870    2.5690 h1        1 AL4      0.063200
     22 H92         1.3220    1.3910    1.8160 h1        1 AL4      0.063200
     23 H10         1.8650   -1.3910    0.5040 h1        1 AL4      0.076700
     24 H111       -1.1530   -1.5690    3.2720 h1        1 AL4      0.070700
     25 H112        0.6250   -1.9780    3.0990 h1        1 AL4      0.070700
     26 H121        0.3100   -1.4550    5.3980 h1        1 AL4      0.033700
     27 H122        1.0810    0.0590    4.7180 h1        1 AL4      0.033700
     28 H141       -1.8020    1.3270    6.4830 h1        1 AL4      0.036033
     29 H142       -0.6520    0.0470    7.1360 h1        1 AL4      0.036033
     30 H143        0.0160    1.5280    6.2920 h1        1 AL4      0.036033
     31 H161        4.2470   -1.2000    0.5300 h1        1 AL4      0.027200
     32 H162        4.0400    0.1450    1.7340 h1        1 AL4      0.027200
     33 HNL1       -1.6600   -2.0490   -4.7520 hn        1 AL4      0.448800
     34 HNL2       -0.0370   -2.3080   -4.6560 hn        1 AL4      0.448800
     35 H4          1.6770   -0.3540   -2.4540 ha        1 AL4      0.191000
     36 HNF         2.8670    1.2880   -0.2050 hn        1 AL4      0.374800
     37 H171        6.2630    0.2220    0.6830 hc        1 AL4      0.044367
     38 H172        5.5440    0.3670   -0.9760 hc        1 AL4      0.044367
     39 H173        5.3240    1.7050    0.2270 hc        1 AL4      0.044367
     40 C11        -0.1070   -1.1400    3.2830 c3        1 AL4      0.224800
     41 C16         4.1290   -0.0830    0.6290 c3        1 AL4      0.168800
@<TRIPOS>BOND
     1    1    9 1   
     2    1   10 2   
     3    1   13 1   
     4    2    3 1   
     5    2   17 1   
     6    2   21 1   
     7    2   22 1   
     8    3   11 1   
     9    3   18 1   
    10    3   23 1   
    11    4   19 1   
    12    4   26 1   
    13    4   27 1   
    14    4   40 1   
    15    5   19 1   
    16    5   28 1   
    17    5   29 1   
    18    5   30 1   
    19    6    9 2   
    20    7    9 2   
    21    8    9 1   
    22    8   33 1   
    23    8   34 1   
    24   10   11 1   
    25   10   35 1   
    26   11   12 2   
    27   12   13 1   
    28   12   14 1   
    29   14   15 2   
    30   14   16 2   
    31   14   17 1   
    32   17   40 1   
    33   18   36 1   
    34   18   41 1   
    35   20   37 1   
    36   20   38 1   
    37   20   39 1   
    38   20   41 1   
    39   24   40 1   
    40   25   40 1   
    41   31   41 1   
    42   32   41 1   
@<TRIPOS>SUBSTRUCTURE
     1 AL4         1 TEMP              0 ****  ****    0 ROOT
