@<TRIPOS>MOLECULE
AL4
   41    38     1     0     0
SMALL
bcc


@<TRIPOS>ATOM
      1 C3         -2.3530    0.3640   -2.5830 c1        1 AL4     -1.219000
      2 C9          1.2360    0.7480    1.0100 c3        1 AL4     -0.021000
      3 C10         1.1280    0.4570   -0.4830 c3        1 AL4      0.009000
      4 C11         0.6540   -0.2960    3.1750 c3        1 AL4     -0.045000
      5 C12         0.2410   -1.7700    3.3300 c3        1 AL4     -0.046000
      6 C14        -0.0960   -3.2510    5.2180 c3        1 AL4     -0.080000
      7 C16         2.9630    0.8560   -1.7950 c3        1 AL4     -0.070000
      8 O1A        -3.4100    2.0130   -4.3930 o         1 AL4     -0.540400
      9 O2A        -4.8700    1.2840   -2.8520 o         1 AL4     -0.540400
     10 N21        -4.1250   -0.4310   -4.6320 n3        1 AL4     -0.954000
     11 S1         -3.7160    0.8290   -3.6380 s4        1 AL4      2.116800
     12 C4         -0.8780    0.3350   -2.6190 c1        1 AL4     -0.076000
     13 C5         -0.3400    0.4060   -1.1230 c2        1 AL4     -0.060000
     14 C6         -1.5160    0.4770   -0.2050 c1        1 AL4     -1.185000
     15 S2         -2.8010    0.4540   -1.0770 ss        1 AL4      1.088000
     16 S7         -1.2280    0.4320    1.5080 ss        1 AL4      2.879000
     17 O3B        -2.0610   -0.6250    2.0930 o         1 AL4     -0.929000
     18 O4B        -1.5990    1.6670    2.0600 o         1 AL4     -0.929000
     19 N8          0.2700    0.1840    1.8430 n2        1 AL4     -0.820000
     20 N15         1.8570    1.4460   -1.1640 n3        1 AL4     -0.306000
     21 O13         0.7550   -2.2800    4.5800 os        1 AL4     -0.271000
     22 C17         3.7410    1.9080   -2.5390 c3        1 AL4     -0.223000
     23 H91         2.1160    0.3870    1.3080 h1        1 AL4      0.116000
     24 H92         1.1600    1.7490    1.1150 h1        1 AL4      0.116000
     25 H10         1.5650   -0.4150   -0.6520 h1        1 AL4      0.113000
     26 H111        1.6270   -0.2160    3.2820 h1        1 AL4      0.109000
     27 H112        0.2120    0.2370    3.8500 h1        1 AL4      0.109000
     28 H121        0.6030   -2.2810    2.6020 h1        1 AL4      0.092000
     29 H122       -0.7360   -1.8380    3.3220 h1        1 AL4      0.092000
     30 H141       -0.2480   -4.0200    4.6010 h1        1 AL4      0.077000
     31 H142        0.3440   -3.5790    6.0570 h1        1 AL4      0.077000
     32 H143       -0.9820   -2.8240    5.4480 h1        1 AL4      0.077000
     33 H161        2.6440    0.1610   -2.4360 h1        1 AL4      0.070000
     34 H162        3.5440    0.4360   -1.1160 h1        1 AL4      0.070000
     35 HNL1       -3.7170   -0.5200   -5.4470 hn        1 AL4      0.245500
     36 HNL2       -4.6850   -1.0610   -4.3440 hn        1 AL4      0.245500
     37 H4         -0.3280    0.3300   -3.4240 DU        1 AL4      0.182000
     38 HNF         1.3290    1.8360   -1.7830 hn        1 AL4      0.173000
     39 H171        3.1570    2.3420   -3.1950 hc        1 AL4      0.085333
     40 H172        4.0700    2.5650   -1.9180 hc        1 AL4      0.085333
     41 H173        4.4730    1.5010   -2.9840 hc        1 AL4      0.085333
@<TRIPOS>BOND
     1    1   12 1   
     2    1   15 1   
     3    2    3 1   
     4    2   19 1   
     5    2   23 1   
     6    2   24 1   
     7    3   13 1   
     8    3   20 1   
     9    3   25 1   
    10    4    5 1   
    11    4   19 1   
    12    4   26 1   
    13    4   27 1   
    14    5   21 1   
    15    5   28 1   
    16    5   29 1   
    17    6   21 1   
    18    6   30 1   
    19    6   31 1   
    20    6   32 1   
    21    7   20 1   
    22    7   22 1   
    23    7   33 1   
    24    7   34 1   
    25    8   11 1   
    26    9   11 1   
    27   10   11 1   
    28   10   35 1   
    29   10   36 1   
    30   12   13 1   
    31   13   14 1   
    32   14   15 1   
    33   16   17 1   
    34   16   18 1   
    35   20   38 1   
    36   22   39 1   
    37   22   40 1   
    38   22   41 1   
@<TRIPOS>SUBSTRUCTURE
     1 AL4         1 TEMP              0 ****  ****    0 ROOT
