@<TRIPOS>MOLECULE
AL4
   43    42     1     0     0
SMALL
bcc


@<TRIPOS>ATOM
      1 C3         -0.0240   -0.0650    0.6970 c2        1 AL4     -1.310000
      2 C9          4.7810    0.3850    1.4090 c3        1 AL4      0.080000
      3 C10         3.6000    0.6860    0.5250 c2        1 AL4     -0.477000
      4 C12         3.2250   -0.2610    6.6300 c2        1 AL4      0.321000
      5 C14         4.2500    1.8670    6.3710 c3        1 AL4     -0.095000
      6 O1A        -2.5200   -0.0620    0.8420 o         1 AL4     -0.838000
      7 O2A        -1.4610    1.1670   -0.9440 o         1 AL4     -0.838000
      8 N21        -1.5180   -1.3640   -1.0940 n4        1 AL4     -0.512000
      9 S1         -1.4450    0.1850    0.0190 s6        1 AL4      2.866000
     10 C4          1.1320    0.4700    0.0790 c2        1 AL4     -0.120000
     11 C5          2.3120    0.2680    0.8520 c2        1 AL4      0.169000
     12 C6          1.9940   -0.4550    2.0510 c2        1 AL4     -1.279000
     13 S2          0.4030   -0.7720    2.1160 ss        1 AL4      1.030000
     14 S7          3.1740   -0.8730    3.1310 s6        1 AL4      2.932000
     15 O3B         3.0010   -2.1980    3.5820 o         1 AL4     -0.986500
     16 O4B         3.1360    0.0020    4.2660 o         1 AL4     -0.986500
     17 N8          4.5310   -0.7130    2.3000 n3        1 AL4     -0.870000
     18 N15         3.8560    1.5120   -0.6480 n4        1 AL4      0.035000
     19 O13         4.3230    0.4400    6.6600 os        1 AL4     -0.092000
     20 C17         4.9830    0.0310   -2.3360 c3        1 AL4     -0.358000
     21 H91         5.2020   -1.4470    2.2490 hn        1 AL4      0.277000
     22 H92         5.0250    1.3060    2.0230 h1        1 AL4      0.096000
     23 H10         5.6920    0.1500    0.7830 h1        1 AL4      0.096000
     24 H111        2.2470    0.2220    6.4190 h4        1 AL4      0.191000
     25 H112        3.1230   -2.2540    5.9370 hc        1 AL4      0.176000
     26 H121        2.5750   -2.0070    7.6570 hc        1 AL4      0.176000
     27 H122        4.3620   -1.9950    7.2570 hc        1 AL4      0.176000
     28 H141        5.3290    2.1690    6.3850 h1        1 AL4      0.142333
     29 H142        3.6710    2.3670    7.1840 h1        1 AL4      0.142333
     30 H143        3.7840    2.0050    5.3650 h1        1 AL4      0.142333
     31 H161        6.8580    1.7300   -0.3360 ha        1 AL4      0.002000
     32 H162        7.4980    1.9410   -0.4150 ha        1 AL4      0.002000
     33 HNL1       -1.6570   -1.0900   -2.0680 hn        1 AL4      0.257000
     34 HNL2       -0.6730   -1.9260   -1.0500 hn        1 AL4      0.257000
     35 H4          1.1180    0.9830   -0.8900 ha        1 AL4      0.186000
     36 HNF         3.1060    2.2110   -0.7420 hn        1 AL4      0.234000
     37 H171        5.0110    0.3190   -3.4310 hc        1 AL4      0.164333
     38 H172        5.9630    0.3000   -1.8660 hc        1 AL4      0.164333
     39 H173        4.8680   -1.0920   -2.3270 hc        1 AL4      0.164333
     40 C11         3.3430   -1.6980    6.8990 c3        1 AL4     -0.299000
     41 C16         3.7760    0.6090   -1.7800 c1        1 AL4      0.091000
     42 H213       -2.3030   -1.9590   -0.8290 hn        1 AL4      0.257000
     43 H152        4.7520    2.0050   -0.5150 hn        1 AL4      0.234000
@<TRIPOS>BOND
     1    1    9 1   
     2    1   10 1   
     3    1   13 1   
     4    2    3 1   
     5    2   17 1   
     6    2   22 1   
     7    2   23 1   
     8    3   11 1   
     9    3   18 1   
    10    4   19 1   
    11    4   24 1   
    12    4   40 1   
    13    5   19 1   
    14    5   28 1   
    15    5   29 1   
    16    5   30 1   
    17    6    9 1   
    18    7    9 1   
    19    8    9 1   
    20    8   33 1   
    21    8   34 1   
    22    8   42 1   
    23   10   11 1   
    24   10   35 1   
    25   11   12 1   
    26   12   13 1   
    27   12   14 1   
    28   14   15 1   
    29   14   16 1   
    30   14   17 1   
    31   17   21 1   
    32   18   36 1   
    33   18   41 1   
    34   18   43 1   
    35   20   37 1   
    36   20   38 1   
    37   20   39 1   
    38   20   41 1   
    39   25   40 1   
    40   26   40 1   
    41   27   40 1   
    42   31   32 1   
@<TRIPOS>SUBSTRUCTURE
     1 AL4         1 TEMP              0 ****  ****    0 ROOT
