@<TRIPOS>MOLECULE
AL5
   37    38     1     0     0
SMALL
bcc


@<TRIPOS>ATOM
      1 C3          0.2000   -0.1900   -0.3480 cc        1 AL5     -0.649600
      2 C9          0.6920    2.5790    5.3070 c3        1 AL5      0.175100
      3 C10         1.3020    3.9160    5.4950 ca        1 AL5     -0.218300
      4 C11         0.5000    5.0650    5.4650 ca        1 AL5     -0.088500
      5 C12         1.0650    6.3140    5.6960 ca        1 AL5     -0.128000
      6 C13         2.4380    6.4380    5.9630 ca        1 AL5      0.005700
      7 C14         3.2350    5.2830    5.9900 ca        1 AL5     -0.128000
      8 C15         2.6740    4.0320    5.7600 ca        1 AL5     -0.088500
      9 C16         3.0310    7.7640    6.2370 c3        1 AL5     -0.082800
     10 O2A        -1.0750    0.1630   -2.4560 o         1 AL5     -0.534300
     11 O1A         1.3220   -0.2270   -2.5900 o         1 AL5     -0.534300
     12 N21        -0.1930   -2.1880   -2.1120 nz        1 AL5     -0.801500
     13 S1          0.1070   -0.3360   -1.9650 sy        1 AL5      1.510200
     14 C4          1.4680   -0.4520    0.2720 cd        1 AL5     -0.047000
     15 C5          1.4340   -0.1860    1.6340 cd        1 AL5     -0.060000
     16 C6          0.1450    0.2860    2.0430 cc        1 AL5     -0.597600
     17 S2         -0.8390    0.3410    0.7730 ss        1 AL5      0.766200
     18 S7         -0.0960    0.5250    3.6630 sy        1 AL5      1.481200
     19 O3B         0.7130   -0.2930    4.4170 o         1 AL5     -0.540800
     20 O4B        -1.4340    0.7450    3.9140 o         1 AL5     -0.540800
     21 N8          0.6630    2.1790    3.8480 ny        1 AL5     -0.740900
     22 H91         1.2830    1.7860    5.8560 hx        1 AL5      0.118700
     23 H92        -0.3800    2.5750    5.6690 hx        1 AL5      0.118700
     24 H11        -0.5830    4.9820    5.2850 ha        1 AL5      0.137000
     25 H12         0.4300    7.2160    5.6830 ha        1 AL5      0.166000
     26 H14         4.3120    5.3700    6.2090 ha        1 AL5      0.166000
     27 H15         3.3080    3.1330    5.8110 ha        1 AL5      0.137000
     28 H161        2.9790    7.9790    7.3370 hc        1 AL5      0.073367
     29 H162        4.1050    7.7990    5.9270 hc        1 AL5      0.073367
     30 H163        2.4770    8.5740    5.6990 hc        1 AL5      0.073367
     31 HNL1       -1.1060   -2.3750   -2.5390 hn        1 AL5      0.473133
     32 HNL2        0.5120   -2.6130   -2.7230 hn        1 AL5      0.473133
     33 H4          2.3620   -0.7890   -0.2740 ha        1 AL5      0.218000
     34 H5          2.2780   -0.3520    2.3210 ha        1 AL5      0.217000
     35 HN8         1.6250    2.2180    3.5060 hn        1 AL5      0.461300
     36 H213       -0.1620   -2.6890   -1.2280 hn        1 AL5      0.473133
     37 H82         0.1510    2.9120    3.3520 hn        1 AL5      0.461300
@<TRIPOS>BOND
     1    1   13 1   
     2    1   14 2   
     3    1   17 1   
     4    2    3 1   
     5    2   21 1   
     6    2   22 1   
     7    2   23 1   
     8    3    4 ar  
     9    3    8 ar  
    10    4    5 ar  
    11    4   24 1   
    12    5    6 ar  
    13    5   25 1   
    14    6    7 ar  
    15    6    9 1   
    16    7    8 ar  
    17    7   26 1   
    18    8   27 1   
    19    9   28 1   
    20    9   29 1   
    21    9   30 1   
    22   10   13 2   
    23   11   13 2   
    24   12   13 1   
    25   12   31 1   
    26   12   32 1   
    27   12   36 1   
    28   14   15 1   
    29   14   33 1   
    30   15   16 2   
    31   15   34 1   
    32   16   17 1   
    33   16   18 1   
    34   18   19 2   
    35   18   20 2   
    36   18   21 1   
    37   21   35 1   
    38   21   37 1   
@<TRIPOS>SUBSTRUCTURE
     1 AL5         1 TEMP              0 ****  ****    0 ROOT
