@<TRIPOS>MOLECULE
AL5
   35    36     1     0     0
SMALL
bcc


@<TRIPOS>ATOM
      1 C3          0.0610   -0.1690   -3.4080 cc        1 AL5     -0.503600
      2 C9          0.6260    0.5530    1.9700 c3        1 AL5      0.271100
      3 C10         0.8460    0.3240    3.4380 ca        1 AL5     -0.119300
      4 C11         1.7080   -0.6900    3.8660 ca        1 AL5     -0.111000
      5 C12         1.9330   -0.8930    5.2250 ca        1 AL5     -0.130500
      6 C13         1.2980   -0.0850    6.1760 ca        1 AL5     -0.065300
      7 C14         0.4320    0.9270    5.7430 ca        1 AL5     -0.130500
      8 C15         0.2050    1.1290    4.3840 ca        1 AL5     -0.111000
      9 C16         1.5490   -0.2900    7.6210 c3        1 AL5     -0.056800
     10 O2A         1.6290    1.2360   -4.7570 o         1 AL5     -0.654800
     11 O1A         1.2630   -1.0530   -5.4260 o         1 AL5     -0.654800
     12 N21        -0.5060    0.6170   -5.7930 n3        1 AL5     -1.026700
     13 S1          0.7440    0.1490   -4.9120 sy        1 AL5      1.561200
     14 C4         -0.3530   -1.4890   -3.1130 cd        1 AL5     -0.074000
     15 C5         -0.8680   -1.5850   -1.8140 cd        1 AL5     -0.074000
     16 C6         -0.8290   -0.3360   -1.1510 cc        1 AL5     -0.494600
     17 S2         -0.1990    0.7900   -2.1290 ss        1 AL5      0.529200
     18 S7         -1.4420   -0.2330    0.4160 sy        1 AL5      1.550200
     19 O3B        -2.3500   -1.2920    0.5980 o         1 AL5     -0.651800
     20 O4B        -1.9280    1.0800    0.5940 o         1 AL5     -0.651800
     21 N8         -0.1420   -0.4810    1.3330 n3        1 AL5     -0.920100
     22 H91         0.0970    1.5410    1.8190 h1        1 AL5      0.059200
     23 H92         1.6390    0.6220    1.4720 h1        1 AL5      0.059200
     24 H11         2.2150   -1.3270    3.1250 ha        1 AL5      0.134500
     25 H12         2.6120   -1.6930    5.5550 ha        1 AL5      0.135000
     26 H14        -0.0750    1.5650    6.4830 ha        1 AL5      0.135000
     27 H15        -0.4830    1.9240    4.0560 ha        1 AL5      0.134500
     28 H161        2.4200    0.3330    7.9470 hc        1 AL5      0.047367
     29 H162        0.6590    0.0080    8.2280 hc        1 AL5      0.047367
     30 H163        1.7840   -1.3610    7.8390 hc        1 AL5      0.047367
     31 HNL1       -0.7480    1.5640   -5.9410 hn        1 AL5      0.450800
     32 HNL2       -1.1090   -0.0080   -6.2670 hn        1 AL5      0.450800
     33 H4         -0.2560   -2.3280   -3.8110 ha        1 AL5      0.182000
     34 H5         -1.2730   -2.5000   -1.3680 ha        1 AL5      0.183000
     35 HN8         0.1660   -1.3970    1.5620 hn        1 AL5      0.453800
@<TRIPOS>BOND
     1    1   13 1   
     2    1   14 2   
     3    1   17 1   
     4    2    3 1   
     5    2   21 1   
     6    2   22 1   
     7    2   23 1   
     8    3    4 ar  
     9    3    8 ar  
    10    4    5 ar  
    11    4   24 1   
    12    5    6 ar  
    13    5   25 1   
    14    6    7 ar  
    15    6    9 1   
    16    7    8 ar  
    17    7   26 1   
    18    8   27 1   
    19    9   28 1   
    20    9   29 1   
    21    9   30 1   
    22   10   13 2   
    23   11   13 2   
    24   12   13 1   
    25   12   31 1   
    26   12   32 1   
    27   14   15 1   
    28   14   33 1   
    29   15   16 2   
    30   15   34 1   
    31   16   17 1   
    32   16   18 1   
    33   18   19 2   
    34   18   20 2   
    35   18   21 1   
    36   21   35 1   
@<TRIPOS>SUBSTRUCTURE
     1 AL5         1 TEMP              0 ****  ****    0 ROOT
