@<TRIPOS>MOLECULE
AL5
   35    29     1     0     0
SMALL
bcc


@<TRIPOS>ATOM
      1 C3         -0.8830    1.2190   -4.6520 c1        1 AL5     -1.213500
      2 C9         -0.6470   -0.7850    1.1990 c3        1 AL5      0.027000
      3 C10         0.1930   -0.9810    2.4090 c2        1 AL5     -0.112000
      4 C11         1.1510   -1.9930    2.4340 c2        1 AL5     -0.116000
      5 C12         1.8530   -2.2580    3.6060 c1        1 AL5     -0.131000
      6 C13         1.5990   -1.5170    4.7480 c1        1 AL5     -0.058000
      7 C14         0.6430   -0.5070    4.7230 c1        1 AL5     -0.130000
      8 C15        -0.0600   -0.2420    3.5500 c1        1 AL5     -0.106000
      9 C16         2.3610   -1.8360    6.0700 c3        1 AL5     -0.182000
     10 O2A        -0.5510    0.1550   -7.0710 o         1 AL5     -0.542400
     11 O1A        -1.2600    2.2660   -7.0700 o         1 AL5     -0.542400
     12 N21        -2.9670    0.5200   -6.3810 n3        1 AL5     -0.953000
     13 S1         -1.4210    1.0390   -6.3350 s4        1 AL5      2.116800
     14 C4          0.2850    2.0380   -4.4060 c1        1 AL5     -0.074000
     15 C5          0.4950    2.1490   -2.8300 c1        1 AL5     -0.074000
     16 C6         -0.5530    1.3930   -2.1780 c1        1 AL5     -1.213500
     17 S2         -1.4560    0.7810   -3.2810 ss        1 AL5      1.069000
     18 S7         -0.8790    1.3590   -0.4280 ss        1 AL5      2.889000
     19 O3B        -0.6080    2.6500    0.1860 o         1 AL5     -0.931000
     20 O4B        -2.2960    1.2120   -0.1610 o         1 AL5     -0.931000
     21 N8          0.0050    0.1430    0.3040 n2        1 AL5     -0.893000
     22 H91        -1.5220   -0.4250    1.4630 h1        1 AL5      0.098500
     23 H92        -0.7680   -1.6250    0.7550 h1        1 AL5      0.098500
     24 H11         1.3320   -2.5170    1.6250 ha        1 AL5      0.129000
     25 H12         2.5140   -2.9560    3.6230 ha        1 AL5      0.134000
     26 H14         0.4630    0.0190    5.5330 ha        1 AL5      0.136000
     27 H15        -0.7440    0.4790    3.5330 ha        1 AL5      0.140000
     28 H161        1.7960   -2.4010    6.6470 hc        1 AL5      0.086333
     29 H162        3.1930   -2.3130    5.8620 hc        1 AL5      0.086333
     30 H163        2.5700   -1.0080    6.5320 hc        1 AL5      0.086333
     31 HNL1       -3.6540    1.1290   -6.4190 hn        1 AL5      0.246000
     32 HNL2       -3.1500   -0.3680   -6.3150 hn        1 AL5      0.246000
     33 H4          0.8300    2.4390   -5.0680 DU        1 AL5      0.182500
     34 H5          1.2100    2.6440   -2.3810 DU        1 AL5      0.182500
     35 HN8         0.9250    0.0980    0.1770 hn        1 AL5      0.249000
@<TRIPOS>BOND
     1    1   14 1   
     2    1   17 1   
     3    2    3 1   
     4    2   21 1   
     5    2   22 1   
     6    2   23 1   
     7    3    4 1   
     8    3    8 1   
     9    4    5 1   
    10    4   24 1   
    11    5   25 1   
    12    6    7 1   
    13    6    9 1   
    14    7   26 1   
    15    8   27 1   
    16    9   28 1   
    17    9   29 1   
    18    9   30 1   
    19   10   13 1   
    20   11   13 1   
    21   12   13 1   
    22   12   31 1   
    23   12   32 1   
    24   14   15 1   
    25   15   16 1   
    26   16   17 1   
    27   18   19 1   
    28   18   20 1   
    29   21   35 1   
@<TRIPOS>SUBSTRUCTURE
     1 AL5         1 TEMP              0 ****  ****    0 ROOT
