@<TRIPOS>MOLECULE
AL5
   37    38     1     0     0
SMALL
bcc


@<TRIPOS>ATOM
      1 C3          0.2030   -0.2050   -0.3390 cc        1 AL5     -0.649600
      2 C9          0.6840    2.5920    5.3040 c3        1 AL5      0.175100
      3 C10         1.2980    3.9280    5.4870 ca        1 AL5     -0.218300
      4 C11         0.5000    5.0800    5.4430 ca        1 AL5     -0.088500
      5 C12         1.0670    6.3290    5.6700 ca        1 AL5     -0.128000
      6 C13         2.4380    6.4490    5.9470 ca        1 AL5      0.005700
      7 C14         3.2310    5.2930    5.9890 ca        1 AL5     -0.128000
      8 C15         2.6680    4.0420    5.7620 ca        1 AL5     -0.088500
      9 C16         3.0330    7.7760    6.2160 c3        1 AL5     -0.082800
     10 O2A        -1.0660    0.1410   -2.4500 o         1 AL5     -0.534300
     11 O1A         1.3300   -0.2550   -2.5780 o         1 AL5     -0.534300
     12 N21        -0.1910   -2.2100   -2.0940 n4        1 AL5     -0.801500
     13 S1          0.1140   -0.3580   -1.9550 sy        1 AL5      1.510200
     14 C4          1.4700   -0.4670    0.2860 cd        1 AL5     -0.047000
     15 C5          1.4340   -0.1940    1.6470 cd        1 AL5     -0.060000
     16 C6          0.1450    0.2820    2.0510 cc        1 AL5     -0.597600
     17 S2         -0.8370    0.3340    0.7790 ss        1 AL5      0.766200
     18 S7         -0.0990    0.5300    3.6690 sy        1 AL5      1.481200
     19 O3B         0.7060   -0.2870    4.4280 o         1 AL5     -0.540800
     20 O4B        -1.4370    0.7540    3.9160 o         1 AL5     -0.540800
     21 N8          0.6640    2.1830    3.8480 n4        1 AL5     -0.740900
     22 H91         1.2700    1.8010    5.8630 hx        1 AL5      0.118700
     23 H92        -0.3900    2.5930    5.6590 hx        1 AL5      0.118700
     24 H11        -0.5820    5.0000    5.2550 ha        1 AL5      0.137000
     25 H12         0.4350    7.2320    5.6450 ha        1 AL5      0.166000
     26 H14         4.3070    5.3780    6.2160 ha        1 AL5      0.166000
     27 H15         3.2990    3.1410    5.8260 ha        1 AL5      0.137000
     28 H161        2.9690    8.0000    7.3140 hc        1 AL5      0.073033
     29 H162        2.4880    8.5830    5.6650 hc        1 AL5      0.073033
     30 H163        4.1100    7.8040    5.9180 hc        1 AL5      0.073033
     31 HNL1        0.5150   -2.6400   -2.7010 hn        1 AL5      0.473133
     32 HNL2       -1.1020   -2.3970   -2.5220 hn        1 AL5      0.473133
     33 H4          2.3640   -0.8090   -0.2570 ha        1 AL5      0.218000
     34 H5          2.2760   -0.3600    2.3360 ha        1 AL5      0.217000
     35 HN8         0.1580    2.9140    3.3430 hn        1 AL5      0.461300
     36 H213       -0.1630   -2.7080   -1.2070 hn        1 AL5      0.473133
     37 H82         1.6280    2.2160    3.5120 hn        1 AL5      0.461300
@<TRIPOS>BOND
     1    1   13 1   
     2    1   14 2   
     3    1   17 1   
     4    2    3 1   
     5    2   21 1   
     6    2   22 1   
     7    2   23 1   
     8    3    4 ar  
     9    3    8 ar  
    10    4    5 ar  
    11    4   24 1   
    12    5    6 ar  
    13    5   25 1   
    14    6    7 ar  
    15    6    9 1   
    16    7    8 ar  
    17    7   26 1   
    18    8   27 1   
    19    9   28 1   
    20    9   29 1   
    21    9   30 1   
    22   10   13 2   
    23   11   13 2   
    24   12   13 1   
    25   12   31 1   
    26   12   32 1   
    27   12   36 1   
    28   14   15 1   
    29   14   33 1   
    30   15   16 2   
    31   15   34 1   
    32   16   17 1   
    33   16   18 1   
    34   18   19 2   
    35   18   20 2   
    36   18   21 1   
    37   21   35 1   
    38   21   37 1   
@<TRIPOS>SUBSTRUCTURE
     1 AL5         1 TEMP              0 ****  ****    0 ROOT
