@<TRIPOS>MOLECULE
AL5
   37    38     1     0     0
SMALL
bcc


@<TRIPOS>ATOM
      1 C3          0.1900   -0.2030   -0.3360 cc        1 AL5     -0.649600
      2 C9          0.6630    2.6120    5.2980 c3        1 AL5      0.175100
      3 C10         1.3030    3.9360    5.4820 ca        1 AL5     -0.218300
      4 C11         0.5280    5.1040    5.4310 ca        1 AL5     -0.088500
      5 C12         1.1200    6.3410    5.6570 ca        1 AL5     -0.128000
      6 C13         2.4910    6.4350    5.9410 ca        1 AL5      0.005700
      7 C14         3.2610    5.2620    5.9900 ca        1 AL5     -0.128000
      8 C15         2.6740    4.0220    5.7630 ca        1 AL5     -0.088500
      9 C16         3.1120    7.7500    6.2110 c3        1 AL5     -0.082800
     10 O2A        -1.0420    0.1580   -2.4670 o         1 AL5     -0.534300
     11 O1A         1.3460   -0.2900   -2.5590 o         1 AL5     -0.534300
     12 N21        -0.2230   -2.2100   -2.0850 n4        1 AL5     -0.801500
     13 S1          0.1190   -0.3630   -1.9530 sy        1 AL5      1.510200
     14 C4          1.4420   -0.4890    0.3070 cd        1 AL5     -0.047000
     15 C5          1.3930   -0.2070    1.6660 cd        1 AL5     -0.060000
     16 C6          0.1100    0.2990    2.0500 cc        1 AL5     -0.597600
     17 S2         -0.8530    0.3640    0.7640 ss        1 AL5      0.766200
     18 S7         -0.1500    0.5620    3.6630 sy        1 AL5      1.481200
     19 O3B         0.6260   -0.2680    4.4380 o         1 AL5     -0.540800
     20 O4B        -1.4860    0.8160    3.8900 o         1 AL5     -0.540800
     21 N8          0.6440    2.1990    3.8430 n4        1 AL5     -0.740900
     22 H91         1.2280    1.8110    5.8630 hx        1 AL5      0.118700
     23 H92        -0.4130    2.6370    5.6450 hx        1 AL5      0.118700
     24 H11        -0.5540    5.0450    5.2370 ha        1 AL5      0.137000
     25 H12         0.5060    7.2570    5.6280 ha        1 AL5      0.166000
     26 H14         4.3370    5.3260    6.2220 ha        1 AL5      0.166000
     27 H15         3.2850    3.1090    5.8320 ha        1 AL5      0.137000
     28 H161        3.0520    7.9750    7.3080 hc        1 AL5      0.073367
     29 H162        4.1900    7.7560    5.9140 hc        1 AL5      0.073367
     30 H163        2.5840    8.5670    5.6600 hc        1 AL5      0.073367
     31 HNL1       -1.1330   -2.3790   -2.5250 hn        1 AL5      0.473133
     32 HNL2        0.4820   -2.6580   -2.6800 hn        1 AL5      0.473133
     33 H4          2.3360   -0.8530   -0.2210 ha        1 AL5      0.218000
     34 H5          2.2220   -0.3870    2.3680 ha        1 AL5      0.217000
     35 HN8         1.6120    2.2120    3.5140 hn        1 AL5      0.461300
     36 H213       -0.2180   -2.7020   -1.1960 hn        1 AL5      0.473133
     37 H82         0.1570    2.9380    3.3330 hn        1 AL5      0.461300
@<TRIPOS>BOND
     1    1   13 1   
     2    1   14 2   
     3    1   17 1   
     4    2    3 1   
     5    2   21 1   
     6    2   22 1   
     7    2   23 1   
     8    3    4 ar  
     9    3    8 ar  
    10    4    5 ar  
    11    4   24 1   
    12    5    6 ar  
    13    5   25 1   
    14    6    7 ar  
    15    6    9 1   
    16    7    8 ar  
    17    7   26 1   
    18    8   27 1   
    19    9   28 1   
    20    9   29 1   
    21    9   30 1   
    22   10   13 2   
    23   11   13 2   
    24   12   13 1   
    25   12   31 1   
    26   12   32 1   
    27   12   36 1   
    28   14   15 1   
    29   14   33 1   
    30   15   16 2   
    31   15   34 1   
    32   16   17 1   
    33   16   18 1   
    34   18   19 2   
    35   18   20 2   
    36   18   21 1   
    37   21   35 1   
    38   21   37 1   
@<TRIPOS>SUBSTRUCTURE
     1 AL5         1 TEMP              0 ****  ****    0 ROOT
