@<TRIPOS>MOLECULE
AL6
   36    38     1     0     0
SMALL
bcc


@<TRIPOS>ATOM
      1 C3         -0.1330    0.1820    0.1580 cc        1 AL6     -0.716600
      2 O5          6.4750   -4.0820    5.5200 os        1 AL6     -0.320900
      3 C9          4.0030   -0.8350    2.3110 c2        1 AL6      0.181000
      4 C10         3.4000   -0.4570    1.1510 cf        1 AL6     -0.258200
      5 C11         4.0950   -1.4880    4.6190 ca        1 AL6      0.086600
      6 C12         4.0340   -0.7110    5.7950 ca        1 AL6     -0.161000
      7 C13         4.7920   -1.0870    6.9010 ca        1 AL6     -0.075000
      8 C14         5.6220   -2.2040    6.8630 ca        1 AL6     -0.177000
      9 C15         5.6880   -2.9640    5.6880 ca        1 AL6      0.143100
     10 C16         4.9280   -2.6150    4.5570 ca        1 AL6     -0.146000
     11 O1A        -2.3660    0.9610   -0.6250 o         1 AL6     -0.570800
     12 O2A        -0.4530    1.3860   -2.0140 o         1 AL6     -0.570800
     13 N21        -1.3390   -0.9940   -1.9020 n4        1 AL6     -0.784500
     14 S1         -1.0670    0.6980   -0.9950 sy        1 AL6      1.553200
     15 C4          1.2810    0.1130   -0.0760 cd        1 AL6     -0.058000
     16 C5          1.9830   -0.3040    1.0590 cd        1 AL6      0.046200
     17 C6          1.0870   -0.5480    2.1450 cc        1 AL6     -0.429600
     18 S2         -0.4150   -0.2420    1.7220 ss        1 AL6      0.643200
     19 S7          1.6710   -1.1210    3.6700 sy        1 AL6      1.528200
     20 O3B         1.1620   -2.4100    3.7980 o         1 AL6     -0.611800
     21 O4B         1.2620   -0.1820    4.6140 o         1 AL6     -0.611800
     22 N8          3.3110   -1.1190    3.4770 nh        1 AL6     -0.524700
     23 C17         7.2390   -4.4970    6.6510 c3        1 AL6      0.108700
     24 H9          5.1080   -0.9320    2.3730 h4        1 AL6      0.187000
     25 H10         4.0080   -0.2450    0.2590 ha        1 AL6      0.177000
     26 H12         3.3850    0.1780    5.8560 ha        1 AL6      0.167000
     27 H13         4.7340   -0.4840    7.8220 ha        1 AL6      0.156000
     28 H14         6.2140   -2.4790    7.7490 ha        1 AL6      0.157000
     29 H16         5.0010   -3.2380    3.6530 ha        1 AL6      0.162000
     30 HNL1       -1.0650   -0.9110   -2.8790 hn        1 AL6      0.453133
     31 HNL2       -2.3210   -1.2580   -1.8750 hn        1 AL6      0.453133
     32 H4          1.7540    0.3920   -1.0260 ha        1 AL6      0.193000
     33 H171        7.9730   -3.7060    6.9390 h1        1 AL6      0.055700
     34 H172        7.7670   -5.4120    6.2790 h1        1 AL6      0.055700
     35 H173        6.5680   -4.7470    7.5080 h1        1 AL6      0.055700
     36 H213       -0.7980   -1.7470   -1.4900 hn        1 AL6      0.453133
@<TRIPOS>BOND
     1    1   14 1   
     2    1   15 2   
     3    1   18 1   
     4    2    9 1   
     5    2   23 1   
     6    3    4 2   
     7    3   22 1   
     8    3   24 1   
     9    4   16 1   
    10    4   25 1   
    11    5    6 ar  
    12    5   10 ar  
    13    5   22 1   
    14    6    7 ar  
    15    6   26 1   
    16    7    8 ar  
    17    7   27 1   
    18    8    9 ar  
    19    8   28 1   
    20    9   10 ar  
    21   10   29 1   
    22   11   14 2   
    23   12   14 2   
    24   13   14 1   
    25   13   30 1   
    26   13   31 1   
    27   13   36 1   
    28   15   16 1   
    29   15   32 1   
    30   16   17 2   
    31   17   18 1   
    32   17   19 1   
    33   19   20 2   
    34   19   21 2   
    35   19   22 1   
    36   23   33 1   
    37   23   34 1   
    38   23   35 1   
@<TRIPOS>SUBSTRUCTURE
     1 AL6         1 TEMP              0 ****  ****    0 ROOT
