@<TRIPOS>MOLECULE
AL6
   35    28     1     0     0
SMALL
bcc


@<TRIPOS>ATOM
      1 C3         -1.6880    1.1160   -4.0980 c1        1 AL6     -1.206500
      2 O5          2.4100   -0.0210    4.9360 os        1 AL6     -0.209000
      3 C9          1.6860   -0.4230   -0.6210 c1        1 AL6     -0.115750
      4 C10         1.5860    0.4770   -1.9080 c1        1 AL6     -0.115750
      5 C11         0.8610   -0.9540    1.6460 c1        1 AL6      0.053000
      6 C12         0.5660   -2.3040    1.8670 c1        1 AL6     -0.170000
      7 C13         0.8450   -2.8900    3.1050 c1        1 AL6     -0.115750
      8 C14         1.4160   -2.1340    4.1200 c1        1 AL6     -0.115750
      9 C15         1.7150   -0.7800    3.9080 c1        1 AL6      0.089000
     10 C16         1.4360   -0.1910    2.6690 c1        1 AL6     -0.156000
     11 O1A        -2.3610    0.3020   -6.5700 o         1 AL6     -0.539400
     12 O2A        -4.0250    0.2940   -5.0810 o         1 AL6     -0.539400
     13 N21        -3.3040    2.6310   -5.9030 n3        1 AL6     -0.953000
     14 S1         -2.8750    1.0640   -5.4380 s4        1 AL6      2.113800
     15 C4         -0.2480    1.1100   -4.0460 c1        1 AL6     -0.009500
     16 C5          0.2050    0.8020   -2.5170 c1        1 AL6     -0.009500
     17 C6         -0.9840    0.6360   -1.7200 c1        1 AL6     -1.206500
     18 S2         -2.2250    0.8230   -2.6610 ss        1 AL6      1.043000
     19 S7         -0.8480    0.1100   -0.0430 ss        1 AL6      2.891000
     20 O3B        -1.7990   -0.9580    0.1730 o         1 AL6     -0.920500
     21 O4B        -1.1790    1.1910    0.7940 o         1 AL6     -0.920500
     22 N8          0.6430   -0.3850    0.3700 n1        1 AL6     -0.690000
     23 C17         1.5710    0.3820    6.0420 c3        1 AL6     -0.077000
     24 H9          2.4320   -1.0100   -0.5060 ha        1 AL6      0.153250
     25 H10         2.4070    0.8220   -2.3320 ha        1 AL6      0.153250
     26 H12         0.1440   -2.8640    1.1190 ha        1 AL6      0.173000
     27 H13         0.6380   -3.8350    3.2570 ha        1 AL6      0.153250
     28 H14         1.6130   -2.5510    4.9900 ha        1 AL6      0.153250
     29 H16         1.6390    0.7200    2.5220 ha        1 AL6      0.158000
     30 HNL1       -4.1060    2.9380   -5.7210 hn        1 AL6      0.246000
     31 HNL2       -2.7000    3.1550   -6.4170 hn        1 AL6      0.246000
     32 H4          0.3730    1.2850   -4.8260 DU        1 AL6      0.184000
     33 H171        2.0290    1.1120    6.5640 h1        1 AL6      0.086333
     34 H172        1.4130   -0.3830    6.6260 h1        1 AL6      0.086333
     35 H173        0.7140    0.7130    5.6990 h1        1 AL6      0.086333
@<TRIPOS>BOND
     1    1   15 1   
     2    1   18 1   
     3    2    9 1   
     4    2   23 1   
     5    3    4 1   
     6    3   24 1   
     7    4   25 1   
     8    5    6 1   
     9    5   22 1   
    10    6   26 1   
    11    7    8 1   
    12    7   27 1   
    13    8   28 1   
    14    9   10 1   
    15   10   29 1   
    16   11   14 1   
    17   12   14 1   
    18   13   14 1   
    19   13   30 1   
    20   13   31 1   
    21   15   16 1   
    22   16   17 1   
    23   17   18 1   
    24   19   20 1   
    25   19   21 1   
    26   23   33 1   
    27   23   34 1   
    28   23   35 1   
@<TRIPOS>SUBSTRUCTURE
     1 AL6         1 TEMP              0 ****  ****    0 ROOT
