@<TRIPOS>MOLECULE
AL6
   36    38     1     0     0
SMALL
bcc


@<TRIPOS>ATOM
      1 C3         -0.1610    0.1640    0.1780 cc        1 AL6     -0.716600
      2 O5          6.5270   -4.0490    5.4820 os        1 AL6     -0.320900
      3 C9          3.9930   -0.8010    2.3230 c2        1 AL6      0.181000
      4 C10         3.3840   -0.4170    1.1680 cf        1 AL6     -0.258200
      5 C11         4.0940   -1.4900    4.6190 ca        1 AL6      0.086600
      6 C12         4.0140   -0.7360    5.8090 ca        1 AL6     -0.161000
      7 C13         4.7770   -1.1130    6.9100 ca        1 AL6     -0.075000
      8 C14         5.6320   -2.2120    6.8540 ca        1 AL6     -0.177000
      9 C15         5.7170   -2.9510    5.6670 ca        1 AL6      0.143100
     10 C16         4.9510   -2.5990    4.5400 ca        1 AL6     -0.146000
     11 O1A        -2.4080    0.9080   -0.5970 o         1 AL6     -0.570800
     12 O2A        -0.5020    1.3980   -1.9740 o         1 AL6     -0.570800
     13 N21        -1.3370   -1.0030   -1.9050 n4        1 AL6     -0.784500
     14 S1         -1.1030    0.6790   -0.9690 sy        1 AL6      1.553200
     15 C4          1.2560    0.1290   -0.0540 cd        1 AL6     -0.058000
     16 C5          1.9640   -0.2920    1.0750 cd        1 AL6      0.046200
     17 C6          1.0710   -0.5740    2.1550 cc        1 AL6     -0.429600
     18 S2         -0.4360   -0.2930    1.7330 ss        1 AL6      0.643200
     19 S7          1.6640   -1.1600    3.6710 sy        1 AL6      1.528200
     20 O3B         1.1830   -2.4620    3.7760 o         1 AL6     -0.611800
     21 O4B         1.2340   -0.2470    4.6300 o         1 AL6     -0.611800
     22 N8          3.3040   -1.1200    3.4820 nh        1 AL6     -0.524700
     23 C17         7.2970   -4.4660    6.6080 c3        1 AL6      0.108700
     24 H9          5.1000   -0.8750    2.3860 h4        1 AL6      0.187000
     25 H10         3.9880   -0.1760    0.2810 ha        1 AL6      0.177000
     26 H12         3.3460    0.1390    5.8820 ha        1 AL6      0.167000
     27 H13         4.7050   -0.5270    7.8410 ha        1 AL6      0.156000
     28 H14         6.2270   -2.4890    7.7370 ha        1 AL6      0.157000
     29 H16         5.0390   -3.2050    3.6260 ha        1 AL6      0.162000
     30 HNL1       -1.0630   -0.8970   -2.8800 hn        1 AL6      0.453133
     31 HNL2       -2.3130   -1.2880   -1.8850 hn        1 AL6      0.453133
     32 H4          1.7240    0.4350   -0.9980 ha        1 AL6      0.193000
     33 H171        6.6300   -4.7440    7.4590 h1        1 AL6      0.055700
     34 H172        8.0140   -3.6640    6.9100 h1        1 AL6      0.055700
     35 H173        7.8450   -5.3630    6.2220 h1        1 AL6      0.055700
     36 H213       -0.7800   -1.7500   -1.5050 hn        1 AL6      0.453133
@<TRIPOS>BOND
     1    1   14 1   
     2    1   15 2   
     3    1   18 1   
     4    2    9 1   
     5    2   23 1   
     6    3    4 2   
     7    3   22 1   
     8    3   24 1   
     9    4   16 1   
    10    4   25 1   
    11    5    6 ar  
    12    5   10 ar  
    13    5   22 1   
    14    6    7 ar  
    15    6   26 1   
    16    7    8 ar  
    17    7   27 1   
    18    8    9 ar  
    19    8   28 1   
    20    9   10 ar  
    21   10   29 1   
    22   11   14 2   
    23   12   14 2   
    24   13   14 1   
    25   13   30 1   
    26   13   31 1   
    27   13   36 1   
    28   15   16 1   
    29   15   32 1   
    30   16   17 2   
    31   17   18 1   
    32   17   19 1   
    33   19   20 2   
    34   19   21 2   
    35   19   22 1   
    36   23   33 1   
    37   23   34 1   
    38   23   35 1   
@<TRIPOS>SUBSTRUCTURE
     1 AL6         1 TEMP              0 ****  ****    0 ROOT
