@<TRIPOS>MOLECULE
AL6
   36    38     1     0     0
SMALL
bcc


@<TRIPOS>ATOM
      1 C3         -0.1590    0.1620    0.1750 cc        1 AL6     -0.716600
      2 O5          6.5190   -4.0510    5.4900 os        1 AL6     -0.320900
      3 C9          3.9940   -0.8090    2.3170 c2        1 AL6      0.181000
      4 C10         3.3850   -0.4290    1.1610 cf        1 AL6     -0.258200
      5 C11         4.0970   -1.4860    4.6170 ca        1 AL6      0.086600
      6 C12         4.0240   -0.7240    5.8030 ca        1 AL6     -0.161000
      7 C13         4.7870   -1.0990    6.9040 ca        1 AL6     -0.075000
      8 C14         5.6360   -2.2020    6.8540 ca        1 AL6     -0.177000
      9 C15         5.7140   -2.9480    5.6710 ca        1 AL6      0.143100
     10 C16         4.9490   -2.5990    4.5440 ca        1 AL6     -0.146000
     11 O1A        -2.4040    0.9120   -0.6000 o         1 AL6     -0.570800
     12 O2A        -0.4980    1.3840   -1.9840 o         1 AL6     -0.570800
     13 N21        -1.3440   -1.0120   -1.8990 nz        1 AL6     -0.784500
     14 S1         -1.1010    0.6740   -0.9730 sy        1 AL6      1.553200
     15 C4          1.2570    0.1190   -0.0600 cd        1 AL6     -0.058000
     16 C5          1.9660   -0.2990    1.0710 cd        1 AL6      0.046200
     17 C6          1.0740   -0.5700    2.1540 cc        1 AL6     -0.429600
     18 S2         -0.4330   -0.2850    1.7330 ss        1 AL6      0.643200
     19 S7          1.6670   -1.1490    3.6730 sy        1 AL6      1.528200
     20 O3B         1.1800   -2.4480    3.7870 o         1 AL6     -0.611800
     21 O4B         1.2430   -0.2280    4.6270 o         1 AL6     -0.611800
     22 N8          3.3070   -1.1180    3.4790 nh        1 AL6     -0.524700
     23 C17         7.2890   -4.4660    6.6170 c3        1 AL6      0.108700
     24 H9          5.1010   -0.8880    2.3790 h4        1 AL6      0.187000
     25 H10         3.9890   -0.1970    0.2720 ha        1 AL6      0.177000
     26 H12         3.3600    0.1550    5.8720 ha        1 AL6      0.167000
     27 H13         4.7200   -0.5070    7.8320 ha        1 AL6      0.156000
     28 H14         6.2320   -2.4770    7.7370 ha        1 AL6      0.157000
     29 H16         5.0320   -3.2110    3.6330 ha        1 AL6      0.162000
     30 HNL1       -2.3220   -1.2920   -1.8740 hn        1 AL6      0.453133
     31 HNL2       -1.0730   -0.9130   -2.8750 hn        1 AL6      0.453133
     32 H4          1.7250    0.4170   -1.0060 ha        1 AL6      0.193000
     33 H171        6.6220   -4.7360    7.4710 h1        1 AL6      0.055700
     34 H172        7.8310   -5.3690    6.2360 h1        1 AL6      0.055700
     35 H173        8.0100   -3.6670    6.9140 h1        1 AL6      0.055700
     36 H213       -0.7900   -1.7600   -1.4950 hn        1 AL6      0.453133
@<TRIPOS>BOND
     1    1   14 1   
     2    1   15 2   
     3    1   18 1   
     4    2    9 1   
     5    2   23 1   
     6    3    4 2   
     7    3   22 1   
     8    3   24 1   
     9    4   16 1   
    10    4   25 1   
    11    5    6 ar  
    12    5   10 ar  
    13    5   22 1   
    14    6    7 ar  
    15    6   26 1   
    16    7    8 ar  
    17    7   27 1   
    18    8    9 ar  
    19    8   28 1   
    20    9   10 ar  
    21   10   29 1   
    22   11   14 2   
    23   12   14 2   
    24   13   14 1   
    25   13   30 1   
    26   13   31 1   
    27   13   36 1   
    28   15   16 1   
    29   15   32 1   
    30   16   17 2   
    31   17   18 1   
    32   17   19 1   
    33   19   20 2   
    34   19   21 2   
    35   19   22 1   
    36   23   33 1   
    37   23   34 1   
    38   23   35 1   
@<TRIPOS>SUBSTRUCTURE
     1 AL6         1 TEMP              0 ****  ****    0 ROOT
