@<TRIPOS>MOLECULE
AL6
   35    37     1     0     0
SMALL
bcc


@<TRIPOS>ATOM
      1 C3          0.1270    0.0760   -3.4070 cc        1 AL6     -0.472600
      2 O5          2.0190   -0.4410    5.8640 os        1 AL6     -0.325900
      3 C9          1.0180    1.2140    1.1170 c2        1 AL6      0.131000
      4 C10         1.3080    1.4690   -0.1860 cf        1 AL6     -0.223200
      5 C11        -0.0700    0.0920    2.9300 ca        1 AL6      0.134600
      6 C12        -1.3640    0.1430    3.4950 ca        1 AL6     -0.170000
      7 C13        -1.5230   -0.0250    4.8670 ca        1 AL6     -0.080000
      8 C14        -0.4270   -0.2250    5.7040 ca        1 AL6     -0.197000
      9 C15         0.8540   -0.2630    5.1430 ca        1 AL6      0.134100
     10 C16         1.0460   -0.1090    3.7600 ca        1 AL6     -0.156000
     11 O1A        -1.0000   -0.1910   -5.6300 o         1 AL6     -0.651800
     12 O2A         0.7700    1.4350   -5.4180 o         1 AL6     -0.651800
     13 N21         1.3190   -0.9620   -5.4400 n3        1 AL6     -1.026700
     14 S1          0.2480    0.1730   -5.0880 sy        1 AL6      1.558200
     15 C4          0.9090    0.9430   -2.6220 cd        1 AL6     -0.069000
     16 C5          0.6760    0.7440   -1.2440 cd        1 AL6      0.038200
     17 C6         -0.2850   -0.2780   -1.0240 cc        1 AL6     -0.511600
     18 S2         -0.7990   -0.8560   -2.4580 ss        1 AL6      0.503200
     19 S7         -0.7560   -0.7590    0.5010 sy        1 AL6      1.552200
     20 O3B        -0.3630   -2.0870    0.6980 o         1 AL6     -0.641300
     21 O4B        -2.1290   -0.5240    0.6550 o         1 AL6     -0.641300
     22 N8          0.1040    0.2490    1.5240 nh        1 AL6     -0.517700
     23 C17         1.8650   -0.6790    7.2580 c3        1 AL6      0.112700
     24 H9          1.5080    1.7860    1.9300 h4        1 AL6      0.164000
     25 H10         2.0350    2.2490   -0.4500 ha        1 AL6      0.163000
     26 H12        -2.2510    0.3020    2.8580 ha        1 AL6      0.173000
     27 H13        -2.5360    0.0050    5.2980 ha        1 AL6      0.143000
     28 H14        -0.5790   -0.3510    6.7850 ha        1 AL6      0.143000
     29 H16         2.0680   -0.1560    3.3540 ha        1 AL6      0.158000
     30 HNL1        1.0730   -1.8770   -5.7250 hn        1 AL6      0.450800
     31 HNL2        2.2970   -0.8200   -5.4180 hn        1 AL6      0.450800
     32 H4          1.5940    1.6950   -3.0280 ha        1 AL6      0.184000
     33 H171        2.9160   -0.8290    7.6130 h1        1 AL6      0.047033
     34 H172        1.4020    0.2060    7.7590 h1        1 AL6      0.047033
     35 H173        1.2530   -1.5960    7.4380 h1        1 AL6      0.047033
@<TRIPOS>BOND
     1    1   14 1   
     2    1   15 2   
     3    1   18 1   
     4    2    9 1   
     5    2   23 1   
     6    3    4 2   
     7    3   22 1   
     8    3   24 1   
     9    4   16 1   
    10    4   25 1   
    11    5    6 ar  
    12    5   10 ar  
    13    5   22 1   
    14    6    7 ar  
    15    6   26 1   
    16    7    8 ar  
    17    7   27 1   
    18    8    9 ar  
    19    8   28 1   
    20    9   10 ar  
    21   10   29 1   
    22   11   14 2   
    23   12   14 2   
    24   13   14 1   
    25   13   30 1   
    26   13   31 1   
    27   15   16 1   
    28   15   32 1   
    29   16   17 2   
    30   17   18 1   
    31   17   19 1   
    32   19   20 2   
    33   19   21 2   
    34   19   22 1   
    35   23   33 1   
    36   23   34 1   
    37   23   35 1   
@<TRIPOS>SUBSTRUCTURE
     1 AL6         1 TEMP              0 ****  ****    0 ROOT
