@<TRIPOS>MOLECULE
AL7
   44    42     1     0     0
SMALL
bcc


@<TRIPOS>ATOM
      1 C3          1.1560    0.3110    0.5880 c2        1 AL7     -1.357000
      2 C9          4.9480   -1.7910    4.2480 c2        1 AL7      0.195000
      3 C10        -0.3400   -1.3860    3.6120 c3        1 AL7     -0.108000
      4 C19         5.6430   -1.8120    9.9800 c1        1 AL7     -0.001000
      5 C20         5.0670   -1.6610    8.9370 c1        1 AL7     -0.169000
      6 C21         4.3990   -1.4950    7.7740 c1        1 AL7      0.158000
      7 C22         3.8160   -1.3500    6.7330 c1        1 AL7     -0.321000
      8 C24         6.6910    0.6710    2.6410 c2        1 AL7      0.202000
      9 S1          0.7850    1.1990   -0.7130 s6        1 AL7      2.855000
     10 O1A         1.9020    1.5530   -1.4320 o         1 AL7     -0.817000
     11 O2A        -0.4280    0.8990   -1.2740 o         1 AL7     -0.817000
     12 S2          2.4900   -0.5060    1.0010 ss        1 AL7      1.264000
     13 C6          1.9050   -1.2800    2.2920 c2        1 AL7     -1.261000
     14 C5          0.5460   -0.8810    2.5180 c2        1 AL7      0.019000
     15 C4          0.1230    0.0150    1.5310 c2        1 AL7     -0.079000
     16 N8          3.6450   -1.7490    4.3350 n3        1 AL7     -0.570000
     17 S7          2.5930   -2.5420    3.1370 s6        1 AL7      2.844000
     18 O3B         3.5020   -3.1790    2.3020 o         1 AL7     -0.841500
     19 O4B         1.6470   -3.2350    3.8630 o         1 AL7     -0.841500
     20 N15        -1.5490   -0.6040    3.8240 n7        1 AL7     -0.207000
     21 C17         3.0060   -1.1720    5.5590 c3        1 AL7      0.127000
     22 C18         2.6460    0.3050    5.3760 c3        1 AL7     -0.230000
     23 H91         5.6040   -1.3590    5.0370 h4        1 AL7      0.209500
     24 H92         5.4390   -2.2800    3.3720 h4        1 AL7      0.209500
     25 H10         0.2500   -1.4210    4.5750 h1        1 AL7      0.139500
     26 H161       -3.7350   -2.2840    5.1550 ha        1 AL7      0.004500
     27 H162       -4.1890   -1.7800    5.1680 ha        1 AL7      0.004500
     28 H163       -2.9540   -1.7830    2.8370 ha        1 AL7      0.080000
     29 H19         1.9120    0.4320    4.5450 hc        1 AL7      0.107333
     30 H20         3.5520    0.9230    5.1700 hc        1 AL7      0.107333
     31 H22         2.0490   -1.7770    5.7060 h1        1 AL7      0.158000
     32 H241        6.7580    1.4700    1.8730 h4        1 AL7      0.115000
     33 H242        7.6180    0.4370    3.2070 h4        1 AL7      0.115000
     34 H243        6.1550   -1.9460   10.9060 ha        1 AL7      0.261000
     35 HNL1        0.3730    2.7860    1.1460 hn        1 AL7      0.264000
     36 HNL2        1.0190    3.5680   -0.1510 hn        1 AL7      0.264000
     37 H4         -0.6280   -2.4550    3.3620 h1        1 AL7      0.139500
     38 HNF        -0.9030    0.4000    1.4500 ha        1 AL7      0.204000
     39 H18         2.1820    0.6680    6.3280 hc        1 AL7      0.107333
     40 C16        -2.7600   -0.8690    3.4320 c1        1 AL7     -0.107000
     41 N21         0.3640    2.8360    0.1310 nz        1 AL7     -0.519000
     42 H152       -1.4150    0.2010    4.4020 hn        1 AL7      0.243000
     43 H213       -0.5720    3.1460   -0.1500 hn        1 AL7      0.264000
     44 O23         5.6290    0.0690    2.8520 o         1 AL7     -0.415000
@<TRIPOS>BOND
     1    1    9 1   
     2    1   12 1   
     3    1   15 1   
     4    2   16 1   
     5    2   23 1   
     6    2   24 1   
     7    3   14 1   
     8    3   20 1   
     9    3   25 1   
    10    3   37 1   
    11    4    5 1   
    12    4   34 1   
    13    5    6 1   
    14    6    7 1   
    15    7   21 1   
    16    8   32 1   
    17    8   33 1   
    18    8   44 1   
    19    9   10 1   
    20    9   11 1   
    21    9   41 1   
    22   12   13 1   
    23   13   14 1   
    24   13   17 1   
    25   14   15 1   
    26   15   38 1   
    27   16   17 1   
    28   16   21 1   
    29   17   18 1   
    30   17   19 1   
    31   20   40 1   
    32   20   42 1   
    33   21   22 1   
    34   21   31 1   
    35   22   29 1   
    36   22   30 1   
    37   22   39 1   
    38   26   27 1   
    39   28   40 1   
    40   35   41 1   
    41   36   41 1   
    42   41   43 1   
@<TRIPOS>SUBSTRUCTURE
     1 AL7         1 TEMP              0 ****  ****    0 ROOT
