@<TRIPOS>MOLECULE
AL7
   42    44     1     0     0
SMALL
bcc


@<TRIPOS>ATOM
      1 C3         -0.1600    0.3830   -2.9660 cc        1 AL7     -0.505600
      2 C9          1.6310   -1.3730    1.1420 c3        1 AL7      0.205800
      3 C10         2.0910   -0.5250   -0.0890 c3        1 AL7      0.211800
      4 C19         1.5210    1.3750    4.4240 ca        1 AL7     -0.077000
      5 C20         0.4890    1.2440    5.3510 ca        1 AL7     -0.215000
      6 C21        -0.5830    0.3980    5.0470 ca        1 AL7      0.151100
      7 C22        -0.6290   -0.3190    3.8390 ca        1 AL7     -0.175000
      8 C24        -1.6830    0.9200    7.0920 c3        1 AL7      0.112700
      9 S1         -0.1790    0.9960   -4.5350 sy        1 AL7      1.561200
     10 O1A        -1.2990    1.8410   -4.6570 o         1 AL7     -0.653300
     11 O2A         1.0910    1.5370   -4.8080 o         1 AL7     -0.653300
     12 S2         -1.3540   -0.0170   -1.9540 ss        1 AL7      0.551200
     13 C6         -0.4310   -0.4770   -0.7060 cc        1 AL7     -0.471600
     14 C5          0.9390   -0.2980   -1.0240 cd        1 AL7     -0.065300
     15 C4          1.0880    0.1920   -2.3320 cd        1 AL7     -0.075000
     16 N8          0.3880   -0.9050    1.7020 nh        1 AL7     -0.665900
     17 S7         -0.9390   -1.1300    0.7690 sy        1 AL7      1.538200
     18 O3B        -1.1700   -2.5000    0.5690 o         1 AL7     -0.641300
     19 O4B        -2.0510   -0.4020    1.2190 o         1 AL7     -0.641300
     20 N15         3.2620   -1.1510   -0.6780 n3        1 AL7     -0.830200
     21 C17         0.4210   -0.1770    2.9110 ca        1 AL7      0.187600
     22 C18         1.4990    0.6850    3.2180 ca        1 AL7     -0.190000
     23 H91         1.4840   -2.4480    0.8240 h1        1 AL7      0.083200
     24 H92         2.4490   -1.3570    1.9140 h1        1 AL7      0.083200
     25 H10         2.3870    0.5000    0.3020 h1        1 AL7      0.078700
     26 H161        5.1390   -0.8690   -1.5290 h1        1 AL7      0.037033
     27 H162        3.9540    0.4520   -1.9470 h1        1 AL7      0.037033
     28 H163        4.6550    0.3590   -0.2710 h1        1 AL7      0.037033
     29 H19         2.3680    2.0410    4.6490 ha        1 AL7      0.135000
     30 H20         0.5260    1.8010    6.2960 ha        1 AL7      0.141000
     31 H22        -1.5050   -0.9550    3.6380 ha        1 AL7      0.167000
     32 H241       -2.6430    0.6020    7.5730 h1        1 AL7      0.046033
     33 H242       -0.8110    0.6490    7.7360 h1        1 AL7      0.046033
     34 H243       -1.6910    2.0170    6.8830 h1        1 AL7      0.046033
     35 HNL1       -1.2980   -0.5750   -5.7850 hn        1 AL7      0.450300
     36 HNL2        0.3120   -0.9130   -5.7240 hn        1 AL7      0.450300
     37 H4          2.0470    0.4310   -2.8080 ha        1 AL7      0.183000
     38 HNF         2.9990   -1.8090   -1.3860 hn        1 AL7      0.375800
     39 H18         2.3280    0.8170    2.5080 ha        1 AL7      0.136000
     40 C16         4.2860   -0.2540   -1.1360 c3        1 AL7      0.154100
     41 O23        -1.6610    0.1750    5.8800 os        1 AL7     -0.320900
     42 N21        -0.4130   -0.3070   -5.4330 n3        1 AL7     -1.027700
@<TRIPOS>BOND
     1    1    9 1   
     2    1   12 1   
     3    1   15 2   
     4    2    3 1   
     5    2   16 1   
     6    2   23 1   
     7    2   24 1   
     8    3   14 1   
     9    3   20 1   
    10    3   25 1   
    11    4    5 ar  
    12    4   22 ar  
    13    4   29 1   
    14    5    6 ar  
    15    5   30 1   
    16    6    7 ar  
    17    6   41 1   
    18    7   21 ar  
    19    7   31 1   
    20    8   32 1   
    21    8   33 1   
    22    8   34 1   
    23    8   41 1   
    24    9   10 2   
    25    9   11 2   
    26    9   42 1   
    27   12   13 1   
    28   13   14 2   
    29   13   17 1   
    30   14   15 1   
    31   15   37 1   
    32   16   17 1   
    33   16   21 1   
    34   17   18 2   
    35   17   19 2   
    36   20   38 1   
    37   20   40 1   
    38   21   22 ar  
    39   22   39 1   
    40   26   40 1   
    41   27   40 1   
    42   28   40 1   
    43   35   42 1   
    44   36   42 1   
@<TRIPOS>SUBSTRUCTURE
     1 AL7         1 TEMP              0 ****  ****    0 ROOT
