@<TRIPOS>MOLECULE
AL7
   42    42     1     0     0
SMALL
bcc


@<TRIPOS>ATOM
      1 C3          0.3620   -0.3330    0.2200 c2        1 AL7     -1.502000
      2 C9          2.2670    0.9860    4.4960 c3        1 AL7      0.002000
      3 C10         1.0060    0.5530    3.7680 c2        1 AL7     -0.108000
      4 C19         3.0380   -3.9410    6.5290 c1        1 AL7     -0.223000
      5 C20         2.6040   -4.8500    7.1720 c1        1 AL7     -0.223000
      6 C21         5.8040   -1.4180    5.1630 cv        1 AL7      0.110000
      7 C22         5.6910   -0.8370    3.9350 cv        1 AL7     -0.304000
      8 C24         6.4500   -2.6240    7.0590 c3        1 AL7     -0.078000
      9 S1         -0.7730   -0.9420   -0.8430 s6        1 AL7      2.919000
     10 O1A        -0.0680   -1.3200   -2.0070 o         1 AL7     -0.938500
     11 O2A        -1.5270   -1.9260   -0.1790 o         1 AL7     -0.938500
     12 S2          1.8470    0.0110    0.1180 ss        1 AL7      1.623000
     13 C6          2.1950    0.4620    1.5580 c2        1 AL7     -1.450000
     14 C5          1.0230    0.3310    2.4320 c2        1 AL7     -0.027000
     15 C4         -0.1590   -0.1270    1.6230 c3        1 AL7     -0.041000
     16 N8          3.4710    0.5960    3.7940 nh        1 AL7     -0.699000
     17 S7          3.6000    1.0740    2.2110 s6        1 AL7      2.907000
     18 O3B         3.5630    2.4720    2.1470 o         1 AL7     -0.920000
     19 O4B         4.6830    0.4720    1.5510 o         1 AL7     -0.920000
     20 N15        -0.1790    0.4170    4.5470 n3        1 AL7     -0.136000
     21 C17         4.3540   -0.2310    4.4270 cv        1 AL7      0.114000
     22 C18         4.4830   -0.8300    5.6550 cv        1 AL7     -0.304000
     23 H91         2.2560    2.1150    4.5850 h1        1 AL7      0.128500
     24 H92         2.2780    0.5560    5.5400 h1        1 AL7      0.128500
     25 H10        -0.9700    0.6490    1.6400 hc        1 AL7      0.124000
     26 H161       -1.8940    2.8880    5.5670 ha        1 AL7      0.003000
     27 H162       -1.3710    3.2650    5.3570 ha        1 AL7      0.003000
     28 H163        0.3210    1.5640    6.1980 ha        1 AL7      0.051000
     29 H19         3.4200   -3.1320    5.9520 ha        1 AL7      0.222500
     30 H20         2.2180   -5.6570    7.7420 ha        1 AL7      0.222500
     31 H22         6.2050   -0.7610    2.9920 ha        1 AL7      0.187000
     32 H241        5.4830   -3.1830    7.0910 h1        1 AL7      0.093000
     33 H242        7.3120   -3.2890    7.3150 h1        1 AL7      0.093000
     34 H243        6.4130   -1.7350    7.7320 h1        1 AL7      0.093000
     35 HNL1       -1.5580    0.9200   -1.9390 hn        1 AL7      0.245500
     36 HNL2       -2.5160    0.5450   -0.6540 hn        1 AL7      0.245500
     37 H4         -0.5810   -1.0880    2.0270 hc        1 AL7      0.124000
     38 HNF        -0.8850   -0.1470    4.1110 hn        1 AL7      0.246000
     39 H18         3.9670   -0.8840    6.5950 ha        1 AL7      0.187000
     40 C16        -0.4530    0.9350    5.7110 c1        1 AL7     -0.140000
     41 O23         6.7400   -2.2130    5.7150 os        1 AL7     -0.166000
     42 N21        -1.7080    0.3110   -1.1740 n3        1 AL7     -0.951000
@<TRIPOS>BOND
     1    1    9 1   
     2    1   12 1   
     3    1   15 1   
     4    2    3 1   
     5    2   16 1   
     6    2   23 1   
     7    2   24 1   
     8    3   14 1   
     9    3   20 1   
    10    4    5 1   
    11    4   29 1   
    12    5   30 1   
    13    6    7 1   
    14    6   22 1   
    15    6   41 1   
    16    7   21 1   
    17    7   31 1   
    18    8   32 1   
    19    8   33 1   
    20    8   34 1   
    21    8   41 1   
    22    9   10 1   
    23    9   11 1   
    24    9   42 1   
    25   12   13 1   
    26   13   14 1   
    27   13   17 1   
    28   14   15 1   
    29   15   25 1   
    30   15   37 1   
    31   16   17 1   
    32   16   21 1   
    33   17   18 1   
    34   17   19 1   
    35   20   38 1   
    36   20   40 1   
    37   21   22 1   
    38   22   39 1   
    39   26   27 1   
    40   28   40 1   
    41   35   42 1   
    42   36   42 1   
@<TRIPOS>SUBSTRUCTURE
     1 AL7         1 TEMP              0 ****  ****    0 ROOT
