@<TRIPOS>MOLECULE
AL7
   42    39     1     0     0
SMALL
bcc


@<TRIPOS>ATOM
      1 C3         -2.9010   -0.1750   -3.2780 c1        1 AL7     -1.222000
      2 C9         -0.4620    0.6120    1.0880 c3        1 AL7     -0.071000
      3 C10        -1.8410    0.1800    0.6200 c3        1 AL7      0.005000
      4 C16        -3.6110    0.7120    2.0420 c3        1 AL7     -0.126000
      5 C19         3.0650   -2.0340    2.4350 c1        1 AL7     -0.077000
      6 C20         4.0360   -1.0960    2.7190 c1        1 AL7     -0.216000
      7 C21         3.8910    0.2190    2.2670 c1        1 AL7      0.106000
      8 C22         2.7490    0.5880    1.5190 c1        1 AL7     -0.174000
      9 C24         6.0860    1.0920    2.2480 c3        1 AL7     -0.077000
     10 N21        -3.8840   -1.4190   -5.6360 n3        1 AL7     -0.953000
     11 S1         -3.7660    0.0520   -4.8020 s4        1 AL7      2.116800
     12 O1A        -5.0050    0.6040   -4.5970 o         1 AL7     -0.540900
     13 O2A        -3.1510    1.0570   -5.5970 o         1 AL7     -0.540900
     14 S2         -1.3290   -0.1510   -3.2990 ss        1 AL7      1.086000
     15 C6         -0.8450   -0.1080   -1.8280 c1        1 AL7     -1.197000
     16 C5         -2.0370   -0.1050   -0.9610 c2        1 AL7     -0.030000
     17 C4         -3.3300   -0.1470   -1.8820 c1        1 AL7     -0.048000
     18 N8          0.6340    0.0210    0.4660 n3        1 AL7     -0.756000
     19 S7          0.7190    0.0680   -1.0800 s4        1 AL7      2.096800
     20 O3B         1.3210    1.3030   -1.4990 o         1 AL7     -0.528400
     21 O4B         1.5710   -1.0630   -1.5260 o         1 AL7     -0.528400
     22 N15        -2.7620    1.2040    1.0070 n3        1 AL7     -0.299000
     23 C17         1.7800   -0.3490    1.2370 c2        1 AL7      0.107000
     24 C18         1.9250   -1.6670    1.6900 c2        1 AL7     -0.193000
     25 O23         4.7630    1.2110    2.7330 os        1 AL7     -0.204000
     26 H91        -0.4050    0.3880    2.0260 h1        1 AL7      0.114500
     27 H92        -0.3930    1.6170    0.9110 h1        1 AL7      0.114500
     28 H10        -2.0890   -0.6690    1.1190 h1        1 AL7      0.119000
     29 H161       -4.0730   -0.0760    1.7330 h1        1 AL7      0.075333
     30 H162       -4.2570    1.3900    2.2790 h1        1 AL7      0.075333
     31 H163       -3.0450    0.4760    2.8630 h1        1 AL7      0.075333
     32 H19         3.1670   -2.9610    2.7540 ha        1 AL7      0.135000
     33 H20         4.8350   -1.3540    3.2420 ha        1 AL7      0.142000
     34 H22         2.6450    1.5310    1.1950 ha        1 AL7      0.168000
     35 H241        6.5910    0.5310    2.8360 h1        1 AL7      0.085667
     36 H242        6.4910    1.9620    2.2110 h1        1 AL7      0.085667
     37 H243        6.0730    0.6830    1.3170 h1        1 AL7      0.085667
     38 HNL1       -4.5710   -2.0170   -5.4290 hn        1 AL7      0.245000
     39 HNL2       -3.3110   -1.5960   -6.3590 hn        1 AL7      0.245000
     40 H4         -4.2090   -0.1000   -1.5850 DU        1 AL7      0.192000
     41 HNF        -2.3060    1.9130    1.3110 hn        1 AL7      0.171000
     42 H18         1.2410   -2.3290    1.4890 ha        1 AL7      0.133000
@<TRIPOS>BOND
     1    1   14 1   
     2    1   17 1   
     3    2    3 1   
     4    2   18 1   
     5    2   26 1   
     6    2   27 1   
     7    3   16 1   
     8    3   22 1   
     9    3   28 1   
    10    4   22 1   
    11    4   29 1   
    12    4   30 1   
    13    4   31 1   
    14    5   24 1   
    15    5   32 1   
    16    6    7 1   
    17    6   33 1   
    18    7   25 1   
    19    8   23 1   
    20    8   34 1   
    21    9   25 1   
    22    9   35 1   
    23    9   36 1   
    24    9   37 1   
    25   10   11 1   
    26   10   38 1   
    27   10   39 1   
    28   11   12 1   
    29   11   13 1   
    30   14   15 1   
    31   15   16 1   
    32   16   17 1   
    33   18   19 1   
    34   18   23 1   
    35   19   20 1   
    36   19   21 1   
    37   22   41 1   
    38   23   24 1   
    39   24   42 1   
@<TRIPOS>SUBSTRUCTURE
     1 AL7         1 TEMP              0 ****  ****    0 ROOT
