@<TRIPOS>MOLECULE
AL8
   42    39     1     0     0
SMALL
bcc


@<TRIPOS>ATOM
      1 C3         -2.6740    0.3070   -3.5510 c1        1 AL8     -1.226000
      2 C9         -0.3000    0.7790    0.9100 c3        1 AL8     -0.048000
      3 C10        -1.6990    0.4950    0.3800 c3        1 AL8      0.011000
      4 C16        -3.3270   -0.4640    1.7400 c3        1 AL8     -0.119000
      5 C19         3.0300   -2.1980    2.0100 c1        1 AL8     -0.065000
      6 C20         4.0060   -1.3310    2.4750 c1        1 AL8     -0.215000
      7 C21         3.9100    0.0260    2.2120 c1        1 AL8      0.100000
      8 C22         2.8380    0.5170    1.4830 c1        1 AL8     -0.179000
      9 C24         4.9940    1.0740    4.0270 c3        1 AL8     -0.076000
     10 N21        -4.5360   -0.4460   -5.5070 n3        1 AL8     -0.952000
     11 S1         -3.2550    0.5380   -5.2110 s4        1 AL8      2.117800
     12 O1A        -3.5850    1.9130   -5.4610 o         1 AL8     -0.541900
     13 O2A        -2.2020    0.3250   -6.1660 o         1 AL8     -0.541900
     14 S2         -1.1010    0.3150   -3.5340 ss        1 AL8      1.121000
     15 C6         -0.6510    0.3460   -2.0550 c1        1 AL8     -1.216000
     16 C5         -1.8740    0.3570   -1.2070 c2        1 AL8     -0.030000
     17 C4         -3.1430    0.3320   -2.1590 c1        1 AL8     -0.048000
     18 N8          0.7700    0.1510    0.2630 n3        1 AL8     -0.773000
     19 S7          0.8990    0.3120   -1.2660 s4        1 AL8      2.110800
     20 O3B         1.6960   -0.7570   -1.8020 o         1 AL8     -0.535900
     21 O4B         1.5580    1.5610   -1.5260 o         1 AL8     -0.535900
     22 N15        -2.1520   -0.7190    0.9740 n3        1 AL8     -0.311000
     23 C17         1.8610   -0.3500    1.0190 c2        1 AL8      0.099000
     24 C18         1.9570   -1.7070    1.2820 c2        1 AL8     -0.196000
     25 O23         4.9320    0.8960    2.6290 os        1 AL8     -0.211000
     26 H91        -0.2850    0.4720    1.8400 h1        1 AL8      0.099500
     27 H92        -0.1560    1.7430    0.8200 h1        1 AL8      0.099500
     28 H10        -2.2860    1.2160    0.6830 h1        1 AL8      0.128000
     29 H161       -3.7270   -1.3160    2.0200 h1        1 AL8      0.074333
     30 H162       -3.9720    0.0350    1.1930 h1        1 AL8      0.074333
     31 H163       -3.0930    0.0630    2.5330 h1        1 AL8      0.074333
     32 H19         3.0970   -3.1540    2.1950 ha        1 AL8      0.140000
     33 H20         4.7610   -1.6770    2.9880 ha        1 AL8      0.142000
     34 H22         2.7700    1.4730    1.2980 ha        1 AL8      0.154000
     35 H241        4.0950    0.9830    4.4090 h1        1 AL8      0.085667
     36 H242        5.5870    0.3960    4.4170 h1        1 AL8      0.085667
     37 H243        5.3450    1.9690    4.2270 h1        1 AL8      0.085667
     38 HNL1       -5.3850   -0.1100   -5.4810 hn        1 AL8      0.246500
     39 HNL2       -4.3990   -1.3270   -5.7090 hn        1 AL8      0.246500
     40 H4         -4.0750    0.3340   -1.8690 DU        1 AL8      0.185000
     41 HNF        -1.4990   -1.0540    1.5210 hn        1 AL8      0.190000
     42 H18         1.2690   -2.3180    0.9540 ha        1 AL8      0.151000
@<TRIPOS>BOND
     1    1   14 1   
     2    1   17 1   
     3    2    3 1   
     4    2   18 1   
     5    2   26 1   
     6    2   27 1   
     7    3   16 1   
     8    3   22 1   
     9    3   28 1   
    10    4   22 1   
    11    4   29 1   
    12    4   30 1   
    13    4   31 1   
    14    5   24 1   
    15    5   32 1   
    16    6    7 1   
    17    6   33 1   
    18    7   25 1   
    19    8   23 1   
    20    8   34 1   
    21    9   25 1   
    22    9   35 1   
    23    9   36 1   
    24    9   37 1   
    25   10   11 1   
    26   10   38 1   
    27   10   39 1   
    28   11   12 1   
    29   11   13 1   
    30   14   15 1   
    31   15   16 1   
    32   16   17 1   
    33   18   19 1   
    34   18   23 1   
    35   19   20 1   
    36   19   21 1   
    37   22   41 1   
    38   23   24 1   
    39   24   42 1   
@<TRIPOS>SUBSTRUCTURE
     1 AL8         1 TEMP              0 ****  ****    0 ROOT
