@<TRIPOS>MOLECULE
AL8
   44    46     1     0     0
SMALL
bcc


@<TRIPOS>ATOM
      1 C3         -0.0660    0.6970    0.3960 cc        1 AL8     -0.732600
      2 C9          1.0620    0.0770    4.9170 c3        1 AL8      0.226800
      3 C10         0.0270   -0.5760    3.9540 c3        1 AL8      0.171800
      4 C19         5.1610    1.1120    6.7350 ca        1 AL8     -0.064000
      5 C20         5.0930    2.5000    6.6710 ca        1 AL8     -0.159000
      6 C21         4.1160    3.1030    5.8630 ca        1 AL8      0.158100
      7 C22         3.2160    2.3190    5.1190 ca        1 AL8     -0.167000
      8 C24         4.8360    5.2990    6.4520 c3        1 AL8      0.106700
      9 S1         -1.0160    1.0660   -0.8360 sy        1 AL8      1.529200
     10 O1A        -0.3860    0.9810   -2.0540 o         1 AL8     -0.549300
     11 O2A        -2.3340    0.7360   -0.6240 o         1 AL8     -0.549300
     12 S2          1.5600    0.5010    0.5260 ss        1 AL8      0.812200
     13 C6          1.5950   -0.0440    1.9920 cc        1 AL8     -0.426600
     14 C5          0.2800   -0.1380    2.5510 cd        1 AL8     -0.150300
     15 C4         -0.6720    0.2950    1.6380 cd        1 AL8      0.012000
     16 N8          2.4150    0.1070    4.4210 nh        1 AL8     -0.699900
     17 S7          2.9000   -0.5830    3.0480 sy        1 AL8      1.535200
     18 O3B         4.0760   -0.1170    2.4920 o         1 AL8     -0.609800
     19 O4B         2.6540   -1.9670    3.1340 o         1 AL8     -0.609800
     20 N15         0.0040   -2.0860    4.0640 n4        1 AL8     -0.772000
     21 C17         3.3110    0.9190    5.1860 ca        1 AL8      0.086600
     22 C18         4.2780    0.3110    6.0110 ca        1 AL8     -0.151000
     23 H91         0.7050    1.1370    5.0920 h1        1 AL8      0.098700
     24 H92         1.0450   -0.4530    5.9150 h1        1 AL8      0.098700
     25 H10        -0.9980   -0.2150    4.2820 hx        1 AL8      0.132700
     26 H161       -0.3760   -2.1320    6.1710 hx        1 AL8      0.115700
     27 H162       -0.7300   -3.6840    5.2620 hx        1 AL8      0.115700
     28 H163       -1.8640   -2.2500    5.1040 hx        1 AL8      0.115700
     29 H19         5.9250    0.6330    7.3710 ha        1 AL8      0.169000
     30 H20         5.8020    3.1130    7.2510 ha        1 AL8      0.171000
     31 H22         2.4600    2.8270    4.5040 ha        1 AL8      0.141000
     32 H241        4.4970    6.3300    6.1730 h1        1 AL8      0.063700
     33 H242        5.8890    5.1250    6.1250 h1        1 AL8      0.063700
     34 H243        4.7230    5.1280    7.5490 h1        1 AL8      0.063700
     35 HNL1       -2.0910    3.2480   -0.5750 hn        1 AL8      0.465800
     36 HNL2       -0.6260    3.3170    0.1640 hn        1 AL8      0.465800
     37 H4         -1.7580    0.3180    1.8090 ha        1 AL8      0.202000
     38 HNF        -0.3920   -2.4730    3.1980 hn        1 AL8      0.478300
     39 H18         4.3550   -0.7830    6.0920 ha        1 AL8      0.148000
     40 C16        -0.7910   -2.5600    5.2190 c3        1 AL8      0.076100
     41 N21        -1.1140    2.9540   -0.6480 n4        1 AL8     -0.796500
     42 H152        0.9750   -2.4480    4.1440 hn        1 AL8      0.478300
     43 H213       -0.7250    3.4140   -1.4750 hn        1 AL8      0.465800
     44 O23         3.9410    4.4580    5.7200 os        1 AL8     -0.326900
@<TRIPOS>BOND
     1    1    9 1   
     2    1   12 1   
     3    1   15 2   
     4    2    3 1   
     5    2   16 1   
     6    2   23 1   
     7    2   24 1   
     8    3   14 1   
     9    3   20 1   
    10    3   25 1   
    11    4    5 ar  
    12    4   22 ar  
    13    4   29 1   
    14    5    6 ar  
    15    5   30 1   
    16    6    7 ar  
    17    6   44 1   
    18    7   21 ar  
    19    7   31 1   
    20    8   32 1   
    21    8   33 1   
    22    8   34 1   
    23    8   44 1   
    24    9   10 2   
    25    9   11 2   
    26    9   41 1   
    27   12   13 1   
    28   13   14 2   
    29   13   17 1   
    30   14   15 1   
    31   15   37 1   
    32   16   17 1   
    33   16   21 1   
    34   17   18 2   
    35   17   19 2   
    36   20   38 1   
    37   20   40 1   
    38   20   42 1   
    39   21   22 ar  
    40   22   39 1   
    41   26   40 1   
    42   27   40 1   
    43   28   40 1   
    44   35   41 1   
    45   36   41 1   
    46   41   43 1   
@<TRIPOS>SUBSTRUCTURE
     1 AL8         1 TEMP              0 ****  ****    0 ROOT
