@<TRIPOS>MOLECULE
AL8
   42    44     1     0     0
SMALL
bcc


@<TRIPOS>ATOM
      1 C3         -0.0980    0.3530    2.9970 cc        1 AL8     -0.505600
      2 C9          0.8150   -1.8160   -1.2040 c3        1 AL8      0.162800
      3 C10         1.5600   -1.0420   -0.0710 c3        1 AL8      0.208800
      4 C19        -1.6940    0.2810   -4.7660 ca        1 AL8     -0.070000
      5 C20        -0.5700    0.9390   -5.2600 ca        1 AL8     -0.215000
      6 C21         0.6120    0.8970   -4.5130 ca        1 AL8      0.143100
      7 C22         0.6780    0.2090   -3.2910 ca        1 AL8     -0.191000
      8 C24         1.7660    2.2370   -6.1070 c3        1 AL8      0.113700
      9 S1          0.1830    1.0080    4.5220 sy        1 AL8      1.561200
     10 O1A        -0.9980    0.8500    5.2750 o         1 AL8     -0.652800
     11 O2A         1.3700    0.4560    5.0340 o         1 AL8     -0.652800
     12 S2         -1.4760    0.0420    2.2100 ss        1 AL8      0.545200
     13 C6         -0.8190   -0.5970    0.8730 cc        1 AL8     -0.485600
     14 C5          0.5940   -0.5980    0.9860 cd        1 AL8     -0.035300
     15 C4          1.0050   -0.0540    2.2160 cd        1 AL8     -0.048000
     16 N8         -0.4200   -1.1890   -1.6000 nh        1 AL8     -0.656900
     17 S7         -1.6130   -1.2260   -0.4720 sy        1 AL8      1.542200
     18 O3B        -2.6870   -0.3800   -0.7980 o         1 AL8     -0.642300
     19 O4B        -1.9680   -2.5550   -0.1960 o         1 AL8     -0.642300
     20 N15         2.6790   -1.7710    0.5040 n3        1 AL8     -0.820200
     21 C17        -0.4600   -0.4650   -2.8100 ca        1 AL8      0.189600
     22 C18        -1.6560   -0.4190   -3.5670 ca        1 AL8     -0.178000
     23 H91         1.5080   -1.9170   -2.0850 h1        1 AL8      0.076700
     24 H92         0.5700   -2.8610   -0.8450 h1        1 AL8      0.076700
     25 H10         1.9910   -0.0990   -0.5340 h1        1 AL8      0.082700
     26 H161        4.5720   -2.5530    0.1550 h1        1 AL8      0.036700
     27 H162        3.4030   -2.8630   -1.2080 h1        1 AL8      0.036700
     28 H163        4.0750   -1.1910   -0.9520 h1        1 AL8      0.036700
     29 H19        -2.6350    0.3110   -5.3400 ha        1 AL8      0.140000
     30 H20        -0.6240    1.4790   -6.2140 ha        1 AL8      0.142000
     31 H22         1.6270    0.2160   -2.7350 ha        1 AL8      0.149000
     32 H241        2.8070    2.6410   -6.1920 h1        1 AL8      0.046367
     33 H242        1.5360    1.5590   -6.9640 h1        1 AL8      0.046367
     34 H243        1.0230    3.0690   -6.0540 h1        1 AL8      0.046367
     35 HNL1       -0.3160    3.2380    4.2650 hn        1 AL8      0.449800
     36 HNL2        1.2810    2.9560    3.9800 hn        1 AL8      0.449800
     37 H4          2.0500    0.0200    2.5390 ha        1 AL8      0.191000
     38 HNF         2.3570   -2.5770    1.0060 hn        1 AL8      0.374800
     39 H18        -2.5710   -0.9110   -3.2010 ha        1 AL8      0.154000
     40 C16         3.7180   -2.1160   -0.4280 c3        1 AL8      0.150100
     41 O23         1.7950    1.5090   -4.8850 os        1 AL8     -0.329900
     42 N21         0.4050    2.5630    4.2180 n3        1 AL8     -1.025700
@<TRIPOS>BOND
     1    1    9 1   
     2    1   12 1   
     3    1   15 2   
     4    2    3 1   
     5    2   16 1   
     6    2   23 1   
     7    2   24 1   
     8    3   14 1   
     9    3   20 1   
    10    3   25 1   
    11    4    5 ar  
    12    4   22 ar  
    13    4   29 1   
    14    5    6 ar  
    15    5   30 1   
    16    6    7 ar  
    17    6   41 1   
    18    7   21 ar  
    19    7   31 1   
    20    8   32 1   
    21    8   33 1   
    22    8   34 1   
    23    8   41 1   
    24    9   10 2   
    25    9   11 2   
    26    9   42 1   
    27   12   13 1   
    28   13   14 2   
    29   13   17 1   
    30   14   15 1   
    31   15   37 1   
    32   16   17 1   
    33   16   21 1   
    34   17   18 2   
    35   17   19 2   
    36   20   38 1   
    37   20   40 1   
    38   21   22 ar  
    39   22   39 1   
    40   26   40 1   
    41   27   40 1   
    42   28   40 1   
    43   35   42 1   
    44   36   42 1   
@<TRIPOS>SUBSTRUCTURE
     1 AL8         1 TEMP              0 ****  ****    0 ROOT
