@<TRIPOS>MOLECULE
AL9
   38    39     1     0     0
SMALL
bcc


@<TRIPOS>ATOM
      1 C3          0.2930   -0.1320   -0.3600 cc        1 AL9     -0.650600
      2 C9          0.4150    2.4630    5.4020 c3        1 AL9      0.185100
      3 C10         0.9630    3.8120    5.6600 ca        1 AL9     -0.261300
      4 C11         0.1580    4.9460    5.4500 ca        1 AL9     -0.053500
      5 C12         0.6360    6.2110    5.7360 ca        1 AL9     -0.183500
      6 C13         1.9470    6.3570    6.2540 ca        1 AL9      0.206100
      7 C14         2.7550    5.2270    6.4720 ca        1 AL9     -0.183500
      8 C15         2.2580    3.9650    6.1730 ca        1 AL9     -0.053500
      9 O2A        -0.9050    0.2860   -2.5010 o         1 AL9     -0.534800
     10 O1A         1.5000   -0.0680   -2.5570 o         1 AL9     -0.534800
     11 N21        -0.0040   -2.0660   -2.2120 n4        1 AL9     -0.801500
     12 S1          0.2640   -0.2160   -1.9830 sy        1 AL9      1.511200
     13 C4          1.5420   -0.3990    0.2980 cd        1 AL9     -0.047000
     14 C5          1.4520   -0.1860    1.6670 cd        1 AL9     -0.060000
     15 C6          0.1410    0.2500    2.0440 cc        1 AL9     -0.594600
     16 S2         -0.7960    0.3390    0.7410 ss        1 AL9      0.764200
     17 S7         -0.1660    0.4220    3.6630 sy        1 AL9      1.478200
     18 O3B         0.6300   -0.4110    4.4150 o         1 AL9     -0.541800
     19 O4B        -1.5190    0.5990    3.8670 o         1 AL9     -0.541800
     20 N8          0.5500    2.0770    3.9420 n4        1 AL9     -0.744900
     21 O16         2.3230    7.6430    6.5030 os        1 AL9     -0.296900
     22 C17         3.6060    7.8480    7.1050 c3        1 AL9      0.102700
     23 H91        -0.6890    2.4260    5.6440 hx        1 AL9      0.116700
     24 H92         0.9660    1.6790    6.0020 hx        1 AL9      0.116700
     25 H11        -0.8730    4.8290    5.0780 ha        1 AL9      0.138000
     26 H12         0.0160    7.1090    5.5870 ha        1 AL9      0.175000
     27 H14         3.7680    5.3340    6.8880 ha        1 AL9      0.175000
     28 H15         2.8860    3.0800    6.3660 ha        1 AL9      0.138000
     29 HNL1        0.7300   -2.4580   -2.8100 hn        1 AL9      0.472800
     30 HNL2       -0.8970   -2.2480   -2.6800 hn        1 AL9      0.472800
     31 H4          2.4610   -0.7010   -0.2260 ha        1 AL9      0.218000
     32 H5          2.2720   -0.3660    2.3790 ha        1 AL9      0.217000
     33 HN8         1.5440    2.1240    3.7090 hn        1 AL9      0.461300
     34 H171        3.6450    8.9610    7.2330 h1        1 AL9      0.067367
     35 H172        3.6600    7.3300    8.0930 h1        1 AL9      0.067367
     36 H173        4.4150    7.4970    6.4200 h1        1 AL9      0.067367
     37 H213       -0.0000   -2.6000   -1.3460 hn        1 AL9      0.472800
     38 H82         0.0920    2.8130    3.4010 hn        1 AL9      0.461300
@<TRIPOS>BOND
     1    1   12 1   
     2    1   13 2   
     3    1   16 1   
     4    2    3 1   
     5    2   20 1   
     6    2   23 1   
     7    2   24 1   
     8    3    4 ar  
     9    3    8 ar  
    10    4    5 ar  
    11    4   25 1   
    12    5    6 ar  
    13    5   26 1   
    14    6    7 ar  
    15    6   21 1   
    16    7    8 ar  
    17    7   27 1   
    18    8   28 1   
    19    9   12 2   
    20   10   12 2   
    21   11   12 1   
    22   11   29 1   
    23   11   30 1   
    24   11   37 1   
    25   13   14 1   
    26   13   31 1   
    27   14   15 2   
    28   14   32 1   
    29   15   16 1   
    30   15   17 1   
    31   17   18 2   
    32   17   19 2   
    33   17   20 1   
    34   20   33 1   
    35   20   38 1   
    36   21   22 1   
    37   22   34 1   
    38   22   35 1   
    39   22   36 1   
@<TRIPOS>SUBSTRUCTURE
     1 AL9         1 TEMP              0 ****  ****    0 ROOT
