@<TRIPOS>MOLECULE
AL9
   38    39     1     0     0
SMALL
bcc


@<TRIPOS>ATOM
      1 C3          0.3290   -0.1310   -0.3690 cc        1 AL9     -0.650600
      2 C9          0.4180    2.4440    5.4030 c3        1 AL9      0.185100
      3 C10         0.9460    3.8000    5.6650 ca        1 AL9     -0.261300
      4 C11         0.1220    4.9230    5.4600 ca        1 AL9     -0.053500
      5 C12         0.5810    6.1940    5.7510 ca        1 AL9     -0.183500
      6 C13         1.8900    6.3590    6.2680 ca        1 AL9      0.206100
      7 C14         2.7160    5.2400    6.4800 ca        1 AL9     -0.183500
      8 C15         2.2380    3.9720    6.1780 ca        1 AL9     -0.053500
      9 O2A        -0.8800    0.2770   -2.5060 o         1 AL9     -0.534800
     10 O1A         1.5300   -0.0390   -2.5670 o         1 AL9     -0.534800
     11 N21         0.0580   -2.0610   -2.2270 nz        1 AL9     -0.801500
     12 S1          0.2980   -0.2090   -1.9920 sy        1 AL9      1.511200
     13 C4          1.5820   -0.3800    0.2860 cd        1 AL9     -0.047000
     14 C5          1.4910   -0.1740    1.6560 cd        1 AL9     -0.060000
     15 C6          0.1740    0.2390    2.0370 cc        1 AL9     -0.594600
     16 S2         -0.7660    0.3190    0.7360 ss        1 AL9      0.764200
     17 S7         -0.1330    0.4010    3.6570 sy        1 AL9      1.478200
     18 O3B         0.6780   -0.4230    4.4040 o         1 AL9     -0.541800
     19 O4B        -1.4870    0.5560    3.8640 o         1 AL9     -0.541800
     20 N8          0.5570    2.0650    3.9410 ny        1 AL9     -0.744900
     21 O16         2.2470    7.6490    6.5210 os        1 AL9     -0.296900
     22 C17         3.5260    7.8720    7.1220 c3        1 AL9      0.102700
     23 H91        -0.6850    2.3890    5.6460 hx        1 AL9      0.116700
     24 H92         0.9820    1.6660    5.9990 hx        1 AL9      0.116700
     25 H11        -0.9070    4.7910    5.0890 ha        1 AL9      0.138000
     26 H12        -0.0530    7.0830    5.6060 ha        1 AL9      0.175000
     27 H14         3.7280    5.3610    6.8960 ha        1 AL9      0.175000
     28 H15         2.8810    3.0960    6.3660 ha        1 AL9      0.138000
     29 HNL1        0.7970   -2.4400   -2.8290 hn        1 AL9      0.472800
     30 HNL2       -0.8330   -2.2550   -2.6950 hn        1 AL9      0.472800
     31 H4          2.5060   -0.6650   -0.2410 ha        1 AL9      0.218000
     32 H5          2.3150   -0.3430    2.3660 ha        1 AL9      0.217000
     33 HN8         1.5500    2.1300    3.7080 hn        1 AL9      0.461300
     34 H171        3.5480    8.9850    7.2540 h1        1 AL9      0.067367
     35 H172        3.5900    7.3520    8.1080 h1        1 AL9      0.067367
     36 H173        4.3400    7.5360    6.4350 h1        1 AL9      0.067367
     37 H213        0.0720   -2.5990   -1.3640 hn        1 AL9      0.472800
     38 H82         0.0880    2.7970    3.4030 hn        1 AL9      0.461300
@<TRIPOS>BOND
     1    1   12 1   
     2    1   13 2   
     3    1   16 1   
     4    2    3 1   
     5    2   20 1   
     6    2   23 1   
     7    2   24 1   
     8    3    4 ar  
     9    3    8 ar  
    10    4    5 ar  
    11    4   25 1   
    12    5    6 ar  
    13    5   26 1   
    14    6    7 ar  
    15    6   21 1   
    16    7    8 ar  
    17    7   27 1   
    18    8   28 1   
    19    9   12 2   
    20   10   12 2   
    21   11   12 1   
    22   11   29 1   
    23   11   30 1   
    24   11   37 1   
    25   13   14 1   
    26   13   31 1   
    27   14   15 2   
    28   14   32 1   
    29   15   16 1   
    30   15   17 1   
    31   17   18 2   
    32   17   19 2   
    33   17   20 1   
    34   20   33 1   
    35   20   38 1   
    36   21   22 1   
    37   22   34 1   
    38   22   35 1   
    39   22   36 1   
@<TRIPOS>SUBSTRUCTURE
     1 AL9         1 TEMP              0 ****  ****    0 ROOT
