@<TRIPOS>MOLECULE
AL9
   36    30     1     0     0
SMALL
bcc


@<TRIPOS>ATOM
      1 C3          1.7590   -3.8640   -2.8700 c1        1 AL9     -1.213000
      2 C9         -1.7480    0.7390    0.1880 c3        1 AL9      0.032000
      3 C10        -1.2440    1.8610    1.1010 c2        1 AL9     -0.145000
      4 C11        -0.7960    3.0720    0.5450 c2        1 AL9     -0.088000
      5 C12        -0.4640    4.1280    1.3680 c1        1 AL9     -0.157000
      6 C13        -0.5720    3.9930    2.7610 c1        1 AL9      0.090000
      7 C14        -1.0080    2.8120    3.3030 c1        1 AL9     -0.205000
      8 C15        -1.3490    1.7320    2.4610 c1        1 AL9     -0.073000
      9 O2A         1.0050   -4.0750   -5.4600 o         1 AL9     -0.542400
     10 O1A         3.1680   -3.9430   -5.1040 o         1 AL9     -0.542400
     11 N21         2.1620   -6.1190   -4.5010 n3        1 AL9     -0.953000
     12 S1          2.0480   -4.5110   -4.5340 s4        1 AL9      2.116800
     13 C4          2.6260   -3.5780   -1.7380 c1        1 AL9     -0.073500
     14 C5          1.7900   -2.7480   -0.6610 c1        1 AL9     -0.073500
     15 C6          0.4400   -2.5580   -1.1770 c1        1 AL9     -1.213000
     16 S2          0.3610   -3.2420   -2.5710 ss        1 AL9      1.069000
     17 S7         -0.9130   -1.7900   -0.3090 ss        1 AL9      2.888000
     18 O3B        -1.1460   -2.4310    0.9950 o         1 AL9     -0.932000
     19 O4B        -2.1700   -2.0420   -0.9750 o         1 AL9     -0.932000
     20 N8         -0.6370   -0.1590   -0.1400 n2        1 AL9     -0.894000
     21 O16        -0.1130    5.0160    3.5990 os        1 AL9     -0.209000
     22 C17        -1.1380    5.8230    4.1260 c3        1 AL9     -0.077000
     23 H91        -2.1020    1.1180   -0.6190 h1        1 AL9      0.097000
     24 H92        -2.4500    0.2360    0.6480 h1        1 AL9      0.097000
     25 H11        -0.7220    3.1650   -0.4150 ha        1 AL9      0.133000
     26 H12        -0.1430    4.9920    0.9700 ha        1 AL9      0.152000
     27 H14        -1.0830    2.7200    4.2550 ha        1 AL9      0.141000
     28 H15        -1.6640    0.8800    2.8520 ha        1 AL9      0.142000
     29 HNL1        3.0380   -6.5410   -4.4910 hn        1 AL9      0.246000
     30 HNL2        1.3730   -6.6560   -4.6150 hn        1 AL9      0.246000
     31 H4          3.5650   -3.8490   -1.6520 DU        1 AL9      0.182500
     32 H5          2.1460   -2.4060    0.2450 DU        1 AL9      0.182500
     33 HN8         0.1430    0.1720   -0.3450 hn        1 AL9      0.249000
     34 H171       -1.8950    5.9090    3.4390 h1        1 AL9      0.085667
     35 H172       -1.5030    5.3970    4.9820 h1        1 AL9      0.085667
     36 H173       -0.7670    6.7470    4.3390 h1        1 AL9      0.085667
@<TRIPOS>BOND
     1    1   13 1   
     2    1   16 1   
     3    2    3 1   
     4    2   20 1   
     5    2   23 1   
     6    2   24 1   
     7    3    4 1   
     8    3    8 1   
     9    4    5 1   
    10    4   25 1   
    11    5   26 1   
    12    6    7 1   
    13    6   21 1   
    14    7   27 1   
    15    8   28 1   
    16    9   12 1   
    17   10   12 1   
    18   11   12 1   
    19   11   29 1   
    20   11   30 1   
    21   13   14 1   
    22   14   15 1   
    23   15   16 1   
    24   17   18 1   
    25   17   19 1   
    26   20   33 1   
    27   21   22 1   
    28   22   34 1   
    29   22   35 1   
    30   22   36 1   
@<TRIPOS>SUBSTRUCTURE
     1 AL9         1 TEMP              0 ****  ****    0 ROOT
