@<TRIPOS>MOLECULE
AL9
   36    37     1     0     0
SMALL
bcc


@<TRIPOS>ATOM
      1 C3         -0.1130    0.1790   -3.7560 cc        1 AL9     -0.503600
      2 C9         -0.5880   -0.4870    1.6360 c3        1 AL9      0.276100
      3 C10        -0.7170   -0.2780    3.1170 ca        1 AL9     -0.152300
      4 C11        -1.5840    0.7080    3.6080 ca        1 AL9     -0.080500
      5 C12        -1.7310    0.9030    4.9740 ca        1 AL9     -0.181000
      6 C13        -0.9940    0.0990    5.8660 ca        1 AL9      0.135100
      7 C14        -0.1230   -0.8860    5.3860 ca        1 AL9     -0.181000
      8 C15         0.0110   -1.0650    4.0090 ca        1 AL9     -0.080500
      9 O2A        -1.7570   -1.1780   -5.0630 o         1 AL9     -0.654800
     10 O1A        -1.3280    1.0950   -5.7510 o         1 AL9     -0.654800
     11 N21         0.3740   -0.6350   -6.1490 n3        1 AL9     -1.026700
     12 S1         -0.8390   -0.1220   -5.2430 sy        1 AL9      1.561200
     13 C4          0.3550    1.4840   -3.4780 cd        1 AL9     -0.073000
     14 C5          0.9020    1.5670   -2.1910 cd        1 AL9     -0.074000
     15 C6          0.8330    0.3250   -1.5190 cc        1 AL9     -0.493600
     16 S2          0.1410   -0.7820   -2.4770 ss        1 AL9      0.529200
     17 S7          1.4760    0.2070    0.0340 sy        1 AL9      1.549200
     18 O3B         2.4310    1.2300    0.1880 o         1 AL9     -0.652800
     19 O4B         1.9140   -1.1230    0.2110 o         1 AL9     -0.652800
     20 N8          0.2090    0.5120    0.9780 n3        1 AL9     -0.921100
     21 O16        -1.2110    0.3680    7.2020 os        1 AL9     -0.325900
     22 C17        -0.4690   -0.4150    8.1300 c3        1 AL9      0.112700
     23 H91        -0.1280   -1.5020    1.4410 h1        1 AL9      0.057700
     24 H92        -1.6260   -0.4850    1.1870 h1        1 AL9      0.057700
     25 H11        -2.1580    1.3290    2.9040 ha        1 AL9      0.137500
     26 H12        -2.4090    1.6710    5.3730 ha        1 AL9      0.146500
     27 H14         0.4560   -1.5170    6.0740 ha        1 AL9      0.146500
     28 H15         0.7000   -1.8360    3.6290 ha        1 AL9      0.137500
     29 HNL1        0.5800   -1.5920   -6.2970 hn        1 AL9      0.450800
     30 HNL2        0.9870   -0.0340   -6.6400 hn        1 AL9      0.450800
     31 H4          0.2740    2.3230   -4.1780 ha        1 AL9      0.182000
     32 H5          1.3500    2.4690   -1.7590 ha        1 AL9      0.183000
     33 HN8        -0.0520    1.4400    1.2150 hn        1 AL9      0.453800
     34 H171       -0.7990   -0.0180    9.1240 h1        1 AL9      0.046367
     35 H172       -0.7310   -1.4960    8.0310 h1        1 AL9      0.046367
     36 H173        0.6280   -0.2610    7.9880 h1        1 AL9      0.046367
@<TRIPOS>BOND
     1    1   12 1   
     2    1   13 2   
     3    1   16 1   
     4    2    3 1   
     5    2   20 1   
     6    2   23 1   
     7    2   24 1   
     8    3    4 ar  
     9    3    8 ar  
    10    4    5 ar  
    11    4   25 1   
    12    5    6 ar  
    13    5   26 1   
    14    6    7 ar  
    15    6   21 1   
    16    7    8 ar  
    17    7   27 1   
    18    8   28 1   
    19    9   12 2   
    20   10   12 2   
    21   11   12 1   
    22   11   29 1   
    23   11   30 1   
    24   13   14 1   
    25   13   31 1   
    26   14   15 2   
    27   14   32 1   
    28   15   16 1   
    29   15   17 1   
    30   17   18 2   
    31   17   19 2   
    32   17   20 1   
    33   20   33 1   
    34   21   22 1   
    35   22   34 1   
    36   22   35 1   
    37   22   36 1   
@<TRIPOS>SUBSTRUCTURE
     1 AL9         1 TEMP              0 ****  ****    0 ROOT
