@<TRIPOS>MOLECULE
AL9
   38    39     1     0     0
SMALL
bcc


@<TRIPOS>ATOM
      1 C3          0.2920   -0.1200   -0.3700 cc        1 AL9     -0.650600
      2 C9          0.4490    2.4300    5.4120 c3        1 AL9      0.185100
      3 C10         0.9700    3.7880    5.6720 ca        1 AL9     -0.260300
      4 C11         0.1370    4.9060    5.4820 ca        1 AL9     -0.053500
      5 C12         0.5900    6.1790    5.7710 ca        1 AL9     -0.183500
      6 C13         1.9050    6.3510    6.2730 ca        1 AL9      0.206100
      7 C14         2.7410    5.2380    6.4710 ca        1 AL9     -0.183500
      8 C15         2.2680    3.9670    6.1700 ca        1 AL9     -0.053500
      9 O2A        -0.9520    0.2890   -2.4860 o         1 AL9     -0.534800
     10 O1A         1.4600   -0.0100   -2.5860 o         1 AL9     -0.534800
     11 N21         0.0060   -2.0430   -2.2330 n4        1 AL9     -0.801500
     12 S1          0.2370   -0.1900   -1.9920 sy        1 AL9      1.511200
     13 C4          1.5570   -0.3630    0.2650 cd        1 AL9     -0.047000
     14 C5          1.4850   -0.1640    1.6370 cd        1 AL9     -0.060000
     15 C6          0.1710    0.2380    2.0400 cc        1 AL9     -0.594600
     16 S2         -0.7890    0.3170    0.7540 ss        1 AL9      0.764200
     17 S7         -0.1120    0.3900    3.6650 sy        1 AL9      1.478200
     18 O3B         0.7150   -0.4310    4.3960 o         1 AL9     -0.541800
     19 O4B        -1.4650    0.5340    3.8930 o         1 AL9     -0.541800
     20 N8          0.5700    2.0580    3.9470 n4        1 AL9     -0.744900
     21 O16         2.2560    7.6440    6.5260 os        1 AL9     -0.296900
     22 C17         3.5410    7.8720    7.1120 c3        1 AL9      0.102700
     23 H91         1.0270    1.6540    5.9970 hx        1 AL9      0.116700
     24 H92        -0.6500    2.3660    5.6710 hx        1 AL9      0.116700
     25 H11        -0.8960    4.7690    5.1230 ha        1 AL9      0.138000
     26 H12        -0.0520    7.0640    5.6370 ha        1 AL9      0.175000
     27 H14         3.7570    5.3640    6.8740 ha        1 AL9      0.175000
     28 H15         2.9190    3.0950    6.3470 ha        1 AL9      0.138000
     29 HNL1       -0.8900   -2.2410   -2.6880 hn        1 AL9      0.472800
     30 HNL2        0.0370   -2.5850   -1.3730 hn        1 AL9      0.472800
     31 H4          2.4740   -0.6400   -0.2770 ha        1 AL9      0.218000
     32 H5          2.3210   -0.3320    2.3340 ha        1 AL9      0.217000
     33 HN8         1.5590    2.1300    3.6990 hn        1 AL9      0.461300
     34 H171        3.6200    7.3500    8.0950 h1        1 AL9      0.067367
     35 H172        3.5570    8.9850    7.2480 h1        1 AL9      0.067367
     36 H173        4.3480    7.5450    6.4140 h1        1 AL9      0.067367
     37 H213        0.7390   -2.4140   -2.8470 hn        1 AL9      0.472800
     38 H82         0.0880    2.7880    3.4190 hn        1 AL9      0.461300
@<TRIPOS>BOND
     1    1   12 1   
     2    1   13 2   
     3    1   16 1   
     4    2    3 1   
     5    2   20 1   
     6    2   23 1   
     7    2   24 1   
     8    3    4 ar  
     9    3    8 ar  
    10    4    5 ar  
    11    4   25 1   
    12    5    6 ar  
    13    5   26 1   
    14    6    7 ar  
    15    6   21 1   
    16    7    8 ar  
    17    7   27 1   
    18    8   28 1   
    19    9   12 2   
    20   10   12 2   
    21   11   12 1   
    22   11   29 1   
    23   11   30 1   
    24   11   37 1   
    25   13   14 1   
    26   13   31 1   
    27   14   15 2   
    28   14   32 1   
    29   15   16 1   
    30   15   17 1   
    31   17   18 2   
    32   17   19 2   
    33   17   20 1   
    34   20   33 1   
    35   20   38 1   
    36   21   22 1   
    37   22   34 1   
    38   22   35 1   
    39   22   36 1   
@<TRIPOS>SUBSTRUCTURE
     1 AL9         1 TEMP              0 ****  ****    0 ROOT
