@<TRIPOS>MOLECULE
ALA
   12    11     1     0     0
SMALL
bcc


@<TRIPOS>ATOM
      1 N          -0.8790    0.3890    1.7450 n3        1 ALA     -0.891800
      2 CA          0.2320    0.3580    0.8010 c3        1 ALA      0.015500
      3 C          -0.1470   -0.1430   -0.6310 c         1 ALA      0.887600
      4 O          -1.3400   -0.5080   -0.8400 o         1 ALA     -0.847800
      5 CB          1.4140   -0.4620    1.3010 c3        1 ALA     -0.068100
      6 OXT         0.7590   -0.1370   -1.5090 o         1 ALA     -0.847800
      7 H          -1.6820    0.7380    1.2470 hn        1 ALA      0.328300
      8 H2         -1.1030   -0.5570    2.0010 hn        1 ALA      0.328300
      9 HA          0.5740    1.4280    0.6810 h1        1 ALA      0.037700
     10 HB1         1.8310   -0.0400    2.2470 hc        1 ALA      0.019700
     11 HB2         1.1160   -1.5220    1.4880 hc        1 ALA      0.019700
     12 HB3         2.2040   -0.4510    0.5120 hc        1 ALA      0.019700
@<TRIPOS>BOND
     1    1    2 1   
     2    1    7 1   
     3    1    8 1   
     4    2    3 1   
     5    2    5 1   
     6    2    9 1   
     7    3    4 1   
     8    3    6 1   
     9    5   10 1   
    10    5   11 1   
    11    5   12 1   
@<TRIPOS>SUBSTRUCTURE
     1 ALA         1 TEMP              0 ****  ****    0 ROOT
