@<TRIPOS>MOLECULE
ALC
   28    28     1     0     0
SMALL
bcc


@<TRIPOS>ATOM
      1 N           0.5100    1.8770    1.5500 n3        1 ALC     -0.891800
      2 CA         -0.0980    0.5540    1.4810 c3        1 ALC      0.017500
      3 C          -0.0810   -0.2320    2.8360 c         1 ALC      0.886600
      4 O           0.4380    0.3300    3.8430 o         1 ALC     -0.845300
      5 CB          0.5180   -0.3440    0.4060 c3        1 ALC     -0.060400
      6 CG          0.2560    0.1310   -1.0150 c3        1 ALC     -0.062700
      7 CD2         1.2340   -0.5330   -1.9770 c3        1 ALC     -0.072900
      8 CE2         0.9810   -0.1110   -3.4090 c3        1 ALC     -0.074400
      9 CZ         -0.4480   -0.3960   -3.8250 c3        1 ALC     -0.072400
     10 CE1        -1.4300    0.2540   -2.8720 c3        1 ALC     -0.074400
     11 CD1        -1.1740   -0.1720   -1.4410 c3        1 ALC     -0.072900
     12 OXT        -0.6080   -1.3790    2.8530 o         1 ALC     -0.845300
     13 H           0.2220    2.2900    2.4230 hn        1 ALC      0.329800
     14 H2          1.5070    1.7670    1.6100 hn        1 ALC      0.329800
     15 HA         -1.1860    0.7180    1.2280 h1        1 ALC      0.040700
     16 HB2         1.6250   -0.4170    0.5700 hc        1 ALC      0.046700
     17 HB3         0.0890   -1.3730    0.5500 hc        1 ALC      0.046700
     18 HG          0.4120    1.2450   -1.0670 hc        1 ALC      0.057700
     19 HD23        2.2820   -0.2610   -1.6890 hc        1 ALC      0.039700
     20 HD22        1.1390   -1.6470   -1.8900 hc        1 ALC      0.039700
     21 HE23        1.1870    0.9870   -3.5160 hc        1 ALC      0.026950
     22 HE22        1.6860   -0.6530   -4.0930 hc        1 ALC      0.026950
     23 HZ3        -0.6210   -0.0170   -4.8650 hc        1 ALC      0.025200
     24 HZ2        -0.6180   -1.5040   -3.8370 hc        1 ALC      0.025200
     25 HE13       -1.3420    1.3690   -2.9500 hc        1 ALC      0.026950
     26 HE12       -2.4760   -0.0230   -3.1660 hc        1 ALC      0.026950
     27 HD12       -1.3690   -1.2720   -1.3350 hc        1 ALC      0.039700
     28 HD13       -1.8850    0.3620   -0.7580 hc        1 ALC      0.039700
@<TRIPOS>BOND
     1    1    2 1   
     2    1   13 1   
     3    1   14 1   
     4    2    3 1   
     5    2    5 1   
     6    2   15 1   
     7    3    4 1   
     8    3   12 1   
     9    5    6 1   
    10    5   16 1   
    11    5   17 1   
    12    6    7 1   
    13    6   11 1   
    14    6   18 1   
    15    7    8 1   
    16    7   19 1   
    17    7   20 1   
    18    8    9 1   
    19    8   21 1   
    20    8   22 1   
    21    9   10 1   
    22    9   23 1   
    23    9   24 1   
    24   10   11 1   
    25   10   25 1   
    26   10   26 1   
    27   11   27 1   
    28   11   28 1   
@<TRIPOS>SUBSTRUCTURE
     1 ALC         1 TEMP              0 ****  ****    0 ROOT
