@<TRIPOS>MOLECULE
ALD
   80    80     1     0     0
SMALL
bcc


@<TRIPOS>ATOM
      1 C9         -0.9390    0.2440   -0.5520 c         1 ALD      0.662100
      2 O31        -0.7960    1.2840   -1.2010 o         1 ALD     -0.569000
      3 O8         -1.2280    0.0460    0.6990 os        1 ALD     -0.392900
      4 C7         -1.4800    1.2820    1.6230 c3        1 ALD      0.270700
      5 C3         -1.6160    0.6740    2.9380 ca        1 ALD     -0.199300
      6 C4         -0.4930    0.5430    3.7780 ca        1 ALD     -0.060000
      7 C5         -0.6410    0.0350    5.0630 ca        1 ALD     -0.132000
      8 C6         -1.9030   -0.3590    5.5220 ca        1 ALD     -0.027000
      9 C1         -3.0200   -0.2440    4.6880 ca        1 ALD     -0.132000
     10 C2         -2.8810    0.2640    3.4010 ca        1 ALD     -0.060000
     11 N10        -0.7410   -1.0770   -1.3060 ny        1 ALD     -0.675800
     12 C11         0.0360   -0.8670   -2.5710 c3        1 ALD      0.083500
     13 C12        -0.7590    0.0500   -3.5180 c         1 ALD      0.543100
     14 O32        -1.9010   -0.1500   -3.8970 o         1 ALD     -0.389100
     15 C30         0.3310   -2.1840   -3.3060 c3        1 ALD     -0.121400
     16 C31         1.2010   -1.9580   -4.5380 c3        1 ALD     -0.063700
     17 C32         2.5670   -1.4100   -4.1840 c3        1 ALD     -0.110100
     18 C33         1.3450   -3.2770   -5.2790 c3        1 ALD     -0.110100
     19 N13        -0.0430    1.2800   -4.0030 ny        1 ALD     -0.673800
     20 C14        -0.8100    2.1360   -4.9860 c3        1 ALD      0.058500
     21 C15        -0.6090    1.6270   -6.4240 c         1 ALD      0.522100
     22 O34         0.2720    0.8320   -6.7360 o         1 ALD     -0.409100
     23 C24        -0.3650    3.6060   -4.8780 c3        1 ALD     -0.132400
     24 C25        -0.9290    4.2940   -3.6380 c3        1 ALD     -0.069700
     25 C26        -0.1520    5.5750   -3.3930 c3        1 ALD     -0.109100
     26 C27        -2.4030    4.6030   -3.7990 c3        1 ALD     -0.109100
     27 N16        -1.5460    2.1220   -7.4580 ny        1 ALD     -0.657800
     28 C17        -0.8700    2.4800   -8.7820 c3        1 ALD      0.110500
     29 C22        -0.0590    3.7880   -8.6350 c3        1 ALD      0.106400
     30 C18        -1.9150    2.6260   -9.8880 c3        1 ALD     -0.122400
     31 C19        -2.8170    1.4190  -10.1040 c3        1 ALD     -0.077700
     32 C20        -3.6430    1.6470  -11.3590 c3        1 ALD     -0.105600
     33 C21        -2.0360    0.1290  -10.2250 c3        1 ALD     -0.105600
     34 O33        -0.8290    4.7330   -7.9200 oh        1 ALD     -0.650800
     35 H71        -0.5770    1.9210    1.4770 h1        1 ALD      0.090700
     36 H72        -2.4120    1.7320    1.2020 h1        1 ALD      0.090700
     37 H4          0.5000    0.8630    3.4250 ha        1 ALD      0.141000
     38 H5          0.2360   -0.0510    5.7280 ha        1 ALD      0.173500
     39 H6         -2.0180   -0.7560    6.5460 ha        1 ALD      0.178000
     40 H1         -4.0140   -0.5500    5.0570 ha        1 ALD      0.173500
     41 H2         -3.7650    0.3620    2.7520 ha        1 ALD      0.141000
     42 HNA        -0.2290   -1.7400   -0.6990 hn        1 ALD      0.495800
     43 H11         1.0200   -0.3860   -2.2670 hx        1 ALD      0.145700
     44 H301        0.8730   -2.8830   -2.6080 hc        1 ALD      0.110700
     45 H302       -0.6320   -2.6770   -3.6140 hc        1 ALD      0.110700
     46 H31         0.6760   -1.2270   -5.2190 hc        1 ALD      0.011700
     47 H321        3.2150   -1.3810   -5.0960 hc        1 ALD      0.064700
     48 H322        3.0770   -2.0590   -3.4300 hc        1 ALD      0.064700
     49 H323        2.4950   -0.3720   -3.7750 hc        1 ALD      0.064700
     50 H331        0.3440   -3.6870   -5.5570 hc        1 ALD      0.064700
     51 H332        1.8780   -4.0280   -4.6470 hc        1 ALD      0.064700
     52 H333        1.9380   -3.1230   -6.2140 hc        1 ALD      0.064700
     53 HND         0.1460    1.8720   -3.1650 hn        1 ALD      0.503800
     54 H14        -1.9120    2.0600   -4.7080 hx        1 ALD      0.162700
     55 H241        0.7570    3.6750   -4.8810 hc        1 ALD      0.112200
     56 H242       -0.7210    4.1700   -5.7870 hc        1 ALD      0.112200
     57 H25        -0.8000    3.6280   -2.7370 hc        1 ALD      0.032700
     58 H261       -0.5640    6.1020   -2.4960 hc        1 ALD      0.063533
     59 H262        0.9270    5.3590   -3.2100 hc        1 ALD      0.063533
     60 H263       -0.2370    6.2630   -4.2690 hc        1 ALD      0.063533
     61 H271       -2.5720    5.2960   -4.6600 hc        1 ALD      0.063533
     62 H272       -3.0010    3.6740   -3.9590 hc        1 ALD      0.063533
     63 H273       -2.7870    5.1080   -2.8770 hc        1 ALD      0.063533
     64 HNG        -2.0360    2.9700   -7.1280 hn        1 ALD      0.491300
     65 H17        -0.1660    1.6280   -9.0290 hx        1 ALD      0.135700
     66 H221        0.8720    3.6000   -8.0330 h1        1 ALD      0.095200
     67 H222        0.2310    4.1430   -9.6600 h1        1 ALD      0.095200
     68 H181       -2.5420    3.5390   -9.7010 hc        1 ALD      0.102200
     69 H182       -1.3330    2.8090  -10.8380 hc        1 ALD      0.102200
     70 H19        -3.5400    1.3330   -9.2420 hc        1 ALD      0.021700
     71 H201       -2.9870    1.6790  -12.2630 hc        1 ALD      0.058033
     72 H202       -4.3770    0.8140  -11.4880 hc        1 ALD      0.058033
     73 H203       -4.2070    2.6090  -11.2910 hc        1 ALD      0.058033
     74 H211       -1.2500    0.2130  -11.0150 hc        1 ALD      0.058033
     75 H212       -2.7220   -0.7070  -10.5130 hc        1 ALD      0.058033
     76 H213       -1.5450   -0.1420   -9.2580 hc        1 ALD      0.058033
     77 HOX        -0.9840    5.5060   -8.4830 ho        1 ALD      0.472000
     78 H102       -1.6640   -1.4870   -1.5070 hn        1 ALD      0.495800
     79 H132        0.8600    0.9930   -4.4200 hn        1 ALD      0.503800
     80 H162       -2.2410    1.3820   -7.6630 hn        1 ALD      0.491300
@<TRIPOS>BOND
     1    1    2 2   
     2    1    3 1   
     3    1   11 1   
     4    3    4 1   
     5    4    5 1   
     6    4   35 1   
     7    4   36 1   
     8    5    6 ar  
     9    5   10 ar  
    10    6    7 ar  
    11    6   37 1   
    12    7    8 ar  
    13    7   38 1   
    14    8    9 ar  
    15    8   39 1   
    16    9   10 ar  
    17    9   40 1   
    18   10   41 1   
    19   11   12 1   
    20   11   42 1   
    21   11   78 1   
    22   12   13 1   
    23   12   15 1   
    24   12   43 1   
    25   13   14 2   
    26   13   19 1   
    27   15   16 1   
    28   15   44 1   
    29   15   45 1   
    30   16   17 1   
    31   16   18 1   
    32   16   46 1   
    33   17   47 1   
    34   17   48 1   
    35   17   49 1   
    36   18   50 1   
    37   18   51 1   
    38   18   52 1   
    39   19   20 1   
    40   19   53 1   
    41   19   79 1   
    42   20   21 1   
    43   20   23 1   
    44   20   54 1   
    45   21   22 2   
    46   21   27 1   
    47   23   24 1   
    48   23   55 1   
    49   23   56 1   
    50   24   25 1   
    51   24   26 1   
    52   24   57 1   
    53   25   58 1   
    54   25   59 1   
    55   25   60 1   
    56   26   61 1   
    57   26   62 1   
    58   26   63 1   
    59   27   28 1   
    60   27   64 1   
    61   27   80 1   
    62   28   29 1   
    63   28   30 1   
    64   28   65 1   
    65   29   34 1   
    66   29   66 1   
    67   29   67 1   
    68   30   31 1   
    69   30   68 1   
    70   30   69 1   
    71   31   32 1   
    72   31   33 1   
    73   31   70 1   
    74   32   71 1   
    75   32   72 1   
    76   32   73 1   
    77   33   74 1   
    78   33   75 1   
    79   33   76 1   
    80   34   77 1   
@<TRIPOS>SUBSTRUCTURE
     1 ALD         1 TEMP              0 ****  ****    0 ROOT
