@<TRIPOS>MOLECULE
ALD
   80    80     1     0     0
SMALL
bcc


@<TRIPOS>ATOM
      1 C9         -0.9220    0.2290   -0.5520 c         1 ALD      0.662100
      2 O31        -0.8070    1.2760   -1.1970 o         1 ALD     -0.569000
      3 O8         -1.2130    0.0170    0.6950 os        1 ALD     -0.392900
      4 C7         -1.5060    1.2410    1.6230 c3        1 ALD      0.270700
      5 C3         -1.6430    0.6220    2.9330 ca        1 ALD     -0.199300
      6 C4         -0.5270    0.5110    3.7850 ca        1 ALD     -0.060000
      7 C5         -0.6780   -0.0090    5.0660 ca        1 ALD     -0.132000
      8 C6         -1.9360   -0.4340    5.5070 ca        1 ALD     -0.027000
      9 C1         -3.0460   -0.3400    4.6610 ca        1 ALD     -0.132000
     10 C2         -2.9040    0.1790    3.3790 ca        1 ALD     -0.060000
     11 N10        -0.6810   -1.0820   -1.3110 n4        1 ALD     -0.675800
     12 C11         0.0960   -0.8430   -2.5710 c3        1 ALD      0.083500
     13 C12        -0.7220    0.0530   -3.5180 c         1 ALD      0.543100
     14 O32        -1.8550   -0.1790   -3.9030 o         1 ALD     -0.389100
     15 C30         0.4330   -2.1490   -3.3110 c3        1 ALD     -0.121400
     16 C31         1.3020   -1.8910   -4.5370 c3        1 ALD     -0.063700
     17 C32         2.6490   -1.3040   -4.1740 c3        1 ALD     -0.110100
     18 C33         1.4880   -3.2020   -5.2830 c3        1 ALD     -0.110100
     19 N13        -0.0400    1.3060   -3.9950 n4        1 ALD     -0.673800
     20 C14        -0.8270    2.1430   -4.9780 c3        1 ALD      0.058500
     21 C15        -0.6080    1.6440   -6.4160 c         1 ALD      0.522100
     22 O34         0.2950    0.8750   -6.7280 o         1 ALD     -0.409100
     23 C24        -0.4230    3.6240   -4.8640 c3        1 ALD     -0.132400
     24 C25        -1.0100    4.2940   -3.6240 c3        1 ALD     -0.069700
     25 C26        -0.2690    5.5950   -3.3740 c3        1 ALD     -0.109100
     26 C27        -2.4910    4.5630   -3.7910 c3        1 ALD     -0.109100
     27 N16        -1.5560    2.1160   -7.4520 n4        1 ALD     -0.657800
     28 C17        -0.8880    2.4950   -8.7730 c3        1 ALD      0.110500
     29 C22        -0.1130    3.8240   -8.6210 c3        1 ALD      0.106400
     30 C18        -1.9330    2.6150   -9.8820 c3        1 ALD     -0.122400
     31 C19        -2.8030    1.3860  -10.1020 c3        1 ALD     -0.077700
     32 C20        -3.6320    1.5950  -11.3590 c3        1 ALD     -0.105600
     33 C21        -1.9870    0.1170  -10.2240 c3        1 ALD     -0.105600
     34 O33        -0.9080    4.7460   -7.9060 oh        1 ALD     -0.650800
     35 H71        -0.6170    1.9020    1.4920 h1        1 ALD      0.090700
     36 H72        -2.4430    1.6710    1.1940 h1        1 ALD      0.090700
     37 H4          0.4620    0.8560    3.4460 ha        1 ALD      0.141000
     38 H5          0.1930   -0.0790    5.7400 ha        1 ALD      0.173500
     39 H6         -2.0530   -0.8410    6.5270 ha        1 ALD      0.178000
     40 H1         -4.0360   -0.6710    5.0160 ha        1 ALD      0.173500
     41 H2         -3.7820    0.2620    2.7200 ha        1 ALD      0.141000
     42 HNA        -0.1530   -1.7320   -0.7040 hn        1 ALD      0.495800
     43 H11         1.0630   -0.3350   -2.2600 hx        1 ALD      0.145700
     44 H301        0.9920   -2.8340   -2.6130 hc        1 ALD      0.110700
     45 H302       -0.5130   -2.6690   -3.6250 hc        1 ALD      0.110700
     46 H31         0.7590   -1.1730   -5.2180 hc        1 ALD      0.011700
     47 H321        2.5450   -0.2700   -3.7610 hc        1 ALD      0.064700
     48 H322        3.3010   -1.2520   -5.0830 hc        1 ALD      0.064700
     49 H323        3.1750   -1.9410   -3.4200 hc        1 ALD      0.064700
     50 H331        0.5020   -3.6400   -5.5680 hc        1 ALD      0.064700
     51 H332        2.0410   -3.9400   -4.6520 hc        1 ALD      0.064700
     52 H333        2.0820   -3.0260   -6.2140 hc        1 ALD      0.064700
     53 HND         0.1280    1.9000   -3.1540 hn        1 ALD      0.503800
     54 H14        -1.9270    2.0370   -4.7030 hx        1 ALD      0.162700
     55 H241       -0.7910    4.1810   -5.7740 hc        1 ALD      0.112200
     56 H242        0.6970    3.7250   -4.8630 hc        1 ALD      0.112200
     57 H25        -0.8660    3.6290   -2.7250 hc        1 ALD      0.032700
     58 H261       -0.6990    6.1070   -2.4770 hc        1 ALD      0.063533
     59 H262       -0.3700    6.2830   -4.2480 hc        1 ALD      0.063533
     60 H263        0.8160    5.4070   -3.1880 hc        1 ALD      0.063533
     61 H271       -2.6760    5.2540   -4.6500 hc        1 ALD      0.063533
     62 H272       -3.0630    3.6190   -3.9550 hc        1 ALD      0.063533
     63 H273       -2.8920    5.0550   -2.8680 hc        1 ALD      0.063533
     64 HNG        -2.2300    1.3570   -7.6600 hn        1 ALD      0.491300
     65 H17        -0.1600    1.6630   -9.0210 hx        1 ALD      0.135700
     66 H221        0.1700    4.1890   -9.6450 h1        1 ALD      0.095200
     67 H222        0.8230    3.6600   -8.0180 h1        1 ALD      0.095200
     68 H181       -1.3550    2.8170  -10.8290 hc        1 ALD      0.102200
     69 H182       -2.5850    3.5110   -9.6940 hc        1 ALD      0.102200
     70 H19        -3.5240    1.2780   -9.2410 hc        1 ALD      0.021700
     71 H201       -4.2210    2.5410  -11.2890 hc        1 ALD      0.058200
     72 H202       -4.3430    0.7430  -11.4910 hc        1 ALD      0.058200
     73 H203       -2.9740    1.6460  -12.2610 hc        1 ALD      0.058200
     74 H211       -2.6500   -0.7360  -10.5170 hc        1 ALD      0.058200
     75 H212       -1.4910   -0.1430   -9.2580 hc        1 ALD      0.058200
     76 H213       -1.2010    0.2240  -11.0120 hc        1 ALD      0.058200
     77 HOX        -1.0830    5.5160   -8.4670 ho        1 ALD      0.472000
     78 H102       -1.5910   -1.5200   -1.5190 hn        1 ALD      0.495800
     79 H132        0.8730    1.0480   -4.4100 hn        1 ALD      0.503800
     80 H162       -2.0700    2.9490   -7.1210 hn        1 ALD      0.491300
@<TRIPOS>BOND
     1    1    2 2   
     2    1    3 1   
     3    1   11 1   
     4    3    4 1   
     5    4    5 1   
     6    4   35 1   
     7    4   36 1   
     8    5    6 ar  
     9    5   10 ar  
    10    6    7 ar  
    11    6   37 1   
    12    7    8 ar  
    13    7   38 1   
    14    8    9 ar  
    15    8   39 1   
    16    9   10 ar  
    17    9   40 1   
    18   10   41 1   
    19   11   12 1   
    20   11   42 1   
    21   11   78 1   
    22   12   13 1   
    23   12   15 1   
    24   12   43 1   
    25   13   14 2   
    26   13   19 1   
    27   15   16 1   
    28   15   44 1   
    29   15   45 1   
    30   16   17 1   
    31   16   18 1   
    32   16   46 1   
    33   17   47 1   
    34   17   48 1   
    35   17   49 1   
    36   18   50 1   
    37   18   51 1   
    38   18   52 1   
    39   19   20 1   
    40   19   53 1   
    41   19   79 1   
    42   20   21 1   
    43   20   23 1   
    44   20   54 1   
    45   21   22 2   
    46   21   27 1   
    47   23   24 1   
    48   23   55 1   
    49   23   56 1   
    50   24   25 1   
    51   24   26 1   
    52   24   57 1   
    53   25   58 1   
    54   25   59 1   
    55   25   60 1   
    56   26   61 1   
    57   26   62 1   
    58   26   63 1   
    59   27   28 1   
    60   27   64 1   
    61   27   80 1   
    62   28   29 1   
    63   28   30 1   
    64   28   65 1   
    65   29   34 1   
    66   29   66 1   
    67   29   67 1   
    68   30   31 1   
    69   30   68 1   
    70   30   69 1   
    71   31   32 1   
    72   31   33 1   
    73   31   70 1   
    74   32   71 1   
    75   32   72 1   
    76   32   73 1   
    77   33   74 1   
    78   33   75 1   
    79   33   76 1   
    80   34   77 1   
@<TRIPOS>SUBSTRUCTURE
     1 ALD         1 TEMP              0 ****  ****    0 ROOT
