@<TRIPOS>MOLECULE
ALD
   77    73     1     0     0
SMALL
bcc


@<TRIPOS>ATOM
      1 C9          0.6620   -0.9730    3.9040 c1        1 ALD      0.617500
      2 O31         1.7920   -0.6130    4.0390 o         1 ALD     -0.634500
      3 O8         -0.1380   -1.2490    5.0450 o         1 ALD     -0.435500
      4 C7          0.5780   -1.2960    6.2430 c3        1 ALD      0.252200
      5 C3         -0.3810   -1.7660    7.4110 c1        1 ALD     -0.062100
      6 C4         -0.8160   -3.0940    7.4680 c1        1 ALD     -0.044500
      7 C5         -1.6370   -3.5110    8.5100 c1        1 ALD     -0.069500
      8 C6         -2.0280   -2.6080    9.4970 c1        1 ALD     -0.069500
      9 C1         -1.5980   -1.2880    9.4430 c1        1 ALD     -0.069500
     10 C2         -0.7720   -0.8650    8.3960 c1        1 ALD     -0.069500
     11 N10         0.0950   -1.0530    2.6110 n3        1 ALD     -0.347400
     12 C11         0.9180   -1.2830    1.5000 c3        1 ALD     -0.020000
     13 C12         0.2270   -0.7280    0.2190 c         1 ALD      0.631100
     14 O32        -0.4510   -1.4600   -0.4680 o         1 ALD     -0.617100
     15 C30         1.1590   -2.7700    1.3450 c3        1 ALD     -0.080400
     16 C31         2.6470   -3.0150    0.8900 c3        1 ALD     -0.065700
     17 C32         3.5480   -3.1680    2.1430 c3        1 ALD     -0.094600
     18 C33         2.7190   -4.2840    0.0490 c3        1 ALD     -0.094600
     19 N13         0.5090    0.6260   -0.2230 n         1 ALD     -0.544900
     20 C14        -0.3350    1.2530   -1.1690 c3        1 ALD      0.034700
     21 C15         0.1890    0.9630   -2.5890 c         1 ALD      0.635100
     22 O34         1.2900    0.4200   -2.7400 o         1 ALD     -0.621100
     23 C24        -0.3390    2.7590   -0.9240 c3        1 ALD     -0.082400
     24 C25        -1.3220    3.0970    0.1960 c3        1 ALD     -0.064700
     25 C26        -0.7380    4.2200    1.0700 c3        1 ALD     -0.096600
     26 C27        -2.6230    3.5630   -0.4120 c3        1 ALD     -0.096600
     27 N16        -0.5400    1.4600   -3.7480 n         1 ALD     -0.560900
     28 C17         0.0220    1.3300   -5.0520 c3        1 ALD      0.064700
     29 C22         1.3340    2.1350   -5.1310 c3        1 ALD      0.112400
     30 C18        -0.9500    1.8540   -6.0740 c3        1 ALD     -0.090400
     31 C19        -1.2380    0.7540   -7.1290 c3        1 ALD     -0.068700
     32 C20        -2.7210    0.8140   -7.5360 c3        1 ALD     -0.092100
     33 C21        -0.3650    0.9790   -8.3450 c3        1 ALD     -0.092100
     34 O33         2.0130    1.8260   -6.3660 oh        1 ALD     -0.595800
     35 H71         1.3380   -1.9440    6.1540 h1        1 ALD      0.064700
     36 H72         0.9330   -0.3980    6.4510 h1        1 ALD      0.064700
     37 H4         -0.5390   -3.7360    6.7680 ha        1 ALD      0.087500
     38 H5         -1.9450   -4.4490    8.5510 ha        1 ALD      0.075250
     39 H6         -2.6200   -2.9110   10.2470 ha        1 ALD      0.075250
     40 H1         -1.8690   -0.6640   10.1270 ha        1 ALD      0.075250
     41 H2         -0.4640    0.0790    8.3570 ha        1 ALD      0.075250
     42 HNA        -0.7540   -0.8590    2.4940 hn        1 ALD      0.299700
     43 H11         1.7820   -0.8230    1.6320 h1        1 ALD      0.105700
     44 H301        1.0040   -3.2150    2.2000 hc        1 ALD      0.060200
     45 H302        0.5310   -3.1420    0.6560 hc        1 ALD      0.060200
     46 H31         2.9570   -2.2510    0.3560 hc        1 ALD      0.046700
     47 H321        3.5810   -2.3120    2.6290 hc        1 ALD      0.039200
     48 H322        4.4410   -3.4190    1.8720 hc        1 ALD      0.039200
     49 H323        3.1880   -3.8390    2.7100 hc        1 ALD      0.039200
     50 H331        2.4500   -5.0740    0.6120 hc        1 ALD      0.039200
     51 H332        3.6270   -4.4090   -0.2710 hc        1 ALD      0.039200
     52 H333        2.1020   -4.2040   -0.7270 hc        1 ALD      0.039200
     53 HND         1.2590    1.0220    0.0270 hn        1 ALD      0.331500
     54 H14        -1.2820    0.8910   -1.0750 h1        1 ALD      0.101700
     55 H241       -0.6050    3.2080   -1.7220 hc        1 ALD      0.054200
     56 H242        0.5370    3.0430   -0.6750 hc        1 ALD      0.054200
     57 H25        -1.4780    2.3180    0.7350 hc        1 ALD      0.057700
     58 H261       -0.0240    3.8570    1.6350 hc        1 ALD      0.038033
     59 H262       -1.4520    4.5980    1.6410 hc        1 ALD      0.038033
     60 H263       -0.3710    4.9280    0.4910 hc        1 ALD      0.038033
     61 H271       -3.0090    2.8300   -0.9770 hc        1 ALD      0.038033
     62 H272       -2.4530    4.3690   -0.9820 hc        1 ALD      0.038033
     63 H273       -3.2640    3.7980    0.3120 hc        1 ALD      0.038033
     64 HNG        -1.3920    1.8150   -3.6440 hn        1 ALD      0.316500
     65 H17         0.2030    0.4110   -5.2290 h1        1 ALD      0.079700
     66 H221        1.1320    3.0900   -5.1020 h1        1 ALD      0.052700
     67 H222        1.9280    1.8920   -4.3510 h1        1 ALD      0.052700
     68 H181       -0.5680    2.6340   -6.5150 hc        1 ALD      0.058200
     69 H182       -1.7850    2.1080   -5.6310 hc        1 ALD      0.058200
     70 H19        -1.0430   -0.1230   -6.7470 hc        1 ALD      0.048700
     71 H201       -3.2710    0.6640   -6.7600 hc        1 ALD      0.035867
     72 H202       -2.9070    0.1140   -8.2120 hc        1 ALD      0.035867
     73 H203       -2.9270    1.7170   -7.9220 hc        1 ALD      0.035867
     74 H211       -0.7150    0.4950   -9.0790 hc        1 ALD      0.035867
     75 H212        0.5710    0.6620   -8.1490 hc        1 ALD      0.035867
     76 H213       -0.3470    1.9220   -8.5610 hc        1 ALD      0.035867
     77 HOX         2.8090    2.2790   -6.4000 ho        1 ALD      0.403000
@<TRIPOS>BOND
     1    1    2 2   
     2    1   11 2   
     3    3    4 1   
     4    4    5 1   
     5    4   35 1   
     6    4   36 1   
     7    5    6 3   
     8    6   37 1   
     9    7    8 3   
    10    7   38 1   
    11    8   39 1   
    12    9   10 3   
    13    9   40 1   
    14   10   41 1   
    15   11   12 1   
    16   11   42 1   
    17   12   13 1   
    18   12   15 1   
    19   12   43 1   
    20   13   14 2   
    21   13   19 1   
    22   15   16 1   
    23   15   44 1   
    24   15   45 1   
    25   16   17 1   
    26   16   18 1   
    27   16   46 1   
    28   17   47 1   
    29   17   48 1   
    30   17   49 1   
    31   18   50 1   
    32   18   51 1   
    33   18   52 1   
    34   19   20 1   
    35   19   53 1   
    36   20   21 1   
    37   20   23 1   
    38   20   54 1   
    39   21   22 2   
    40   21   27 1   
    41   23   24 1   
    42   23   55 1   
    43   23   56 1   
    44   24   25 1   
    45   24   26 1   
    46   24   57 1   
    47   25   58 1   
    48   25   59 1   
    49   25   60 1   
    50   26   61 1   
    51   26   62 1   
    52   26   63 1   
    53   27   28 1   
    54   27   64 1   
    55   28   29 1   
    56   28   30 1   
    57   28   65 1   
    58   29   34 1   
    59   29   66 1   
    60   29   67 1   
    61   30   31 1   
    62   30   68 1   
    63   30   69 1   
    64   31   32 1   
    65   31   33 1   
    66   31   70 1   
    67   32   71 1   
    68   32   72 1   
    69   32   73 1   
    70   33   74 1   
    71   33   75 1   
    72   33   76 1   
    73   34   77 1   
@<TRIPOS>SUBSTRUCTURE
     1 ALD         1 TEMP              0 ****  ****    0 ROOT
