@<TRIPOS>MOLECULE
ALD
   77    77     1     0     0
SMALL
bcc


@<TRIPOS>ATOM
      1 C9          3.2800    0.9200    0.3750 c         1 ALD      0.729100
      2 O31         3.2710    1.1150    1.6030 o         1 ALD     -0.587000
      3 O8          4.3800    0.3150   -0.1980 os        1 ALD     -0.436900
      4 C7          5.4600    0.0400    0.7190 c3        1 ALD      0.196700
      5 C3          6.5530   -0.6140   -0.0560 ca        1 ALD     -0.096300
      6 C4          6.7970   -0.2840   -1.3920 ca        1 ALD     -0.111500
      7 C5          7.8500   -0.8870   -2.0790 ca        1 ALD     -0.131500
      8 C6          8.6660   -1.8160   -1.4350 ca        1 ALD     -0.125000
      9 C1          8.4240   -2.1480   -0.1010 ca        1 ALD     -0.131500
     10 C2          7.3680   -1.5530    0.5870 ca        1 ALD     -0.111500
     11 N10         2.3330    1.3040   -0.5610 n         1 ALD     -0.507900
     12 C11         0.9940    1.6190   -0.1100 c3        1 ALD      0.036700
     13 C12         0.0510    0.4000   -0.3010 c         1 ALD      0.627100
     14 O32         0.0620   -0.2480   -1.3680 o         1 ALD     -0.616100
     15 C30         0.3910    2.7930   -0.9030 c3        1 ALD     -0.084400
     16 C31        -0.7550    3.4610   -0.1560 c3        1 ALD     -0.073700
     17 C32        -0.2440    4.3630    0.9490 c3        1 ALD     -0.091600
     18 C33        -1.5970    4.2610   -1.1300 c3        1 ALD     -0.091600
     19 N13        -0.7480    0.0420    0.7640 n         1 ALD     -0.533900
     20 C14        -1.8060   -0.9290    0.6290 c3        1 ALD      0.028700
     21 C15        -3.1970   -0.2600    0.8040 c         1 ALD      0.633100
     22 O34        -3.3320    0.7960    1.4580 o         1 ALD     -0.627100
     23 C24        -1.7270   -2.0670    1.6590 c3        1 ALD     -0.081400
     24 C25        -0.4380   -2.8690    1.5830 c3        1 ALD     -0.064700
     25 C26        -0.4640   -3.9580    2.6380 c3        1 ALD     -0.096600
     26 C27        -0.2250   -3.4710    0.2100 c3        1 ALD     -0.096600
     27 N16        -4.2590   -0.8770    0.1880 n         1 ALD     -0.547900
     28 C17        -5.6240   -0.4340    0.3540 c3        1 ALD      0.101700
     29 C22        -6.4120   -1.3220    1.3470 c3        1 ALD      0.104400
     30 C18        -6.4000   -0.3900   -0.9720 c3        1 ALD     -0.081400
     31 C19        -5.8730    0.6380   -1.9600 c3        1 ALD     -0.067700
     32 C20        -6.5000    0.4010   -3.3210 c3        1 ALD     -0.092600
     33 C21        -6.1540    2.0520   -1.4980 c3        1 ALD     -0.092600
     34 O33        -6.4350   -2.6440    0.8350 oh        1 ALD     -0.608800
     35 H71         5.8060    1.0120    1.1630 h1        1 ALD      0.064700
     36 H72         5.0720   -0.6230    1.5380 h1        1 ALD      0.064700
     37 H4          6.1470    0.4470   -1.8980 ha        1 ALD      0.139000
     38 H5          8.0370   -0.6270   -3.1320 ha        1 ALD      0.132500
     39 H6          9.4980   -2.2890   -1.9770 ha        1 ALD      0.132000
     40 H1          9.0640   -2.8820    0.4080 ha        1 ALD      0.132500
     41 H2          7.1750   -1.8210    1.6370 ha        1 ALD      0.139000
     42 HNA         2.4030    0.8950   -1.4690 hn        1 ALD      0.332500
     43 H11         1.0580    1.9070    0.9830 h1        1 ALD      0.103700
     44 H301        1.1860    3.5590   -1.1060 hc        1 ALD      0.064700
     45 H302        0.0280    2.4130   -1.8950 hc        1 ALD      0.064700
     46 H31        -1.4130    2.6690    0.3050 hc        1 ALD      0.058700
     47 H321       -1.1040    4.8240    1.4940 hc        1 ALD      0.037367
     48 H322        0.3700    3.7880    1.6820 hc        1 ALD      0.037367
     49 H323        0.3870    5.1820    0.5270 hc        1 ALD      0.037367
     50 H331       -2.0370    3.5930   -1.9090 hc        1 ALD      0.037367
     51 H332       -2.4310    4.7700   -0.5880 hc        1 ALD      0.037367
     52 H333       -0.9770    5.0390   -1.6380 hc        1 ALD      0.037367
     53 HND        -0.8300    0.6660    1.5370 hn        1 ALD      0.328500
     54 H14        -1.7350   -1.3770   -0.4110 h1        1 ALD      0.105700
     55 H241       -1.8360   -1.6440    2.6930 hc        1 ALD      0.052200
     56 H242       -2.5970   -2.7520    1.4760 hc        1 ALD      0.052200
     57 H25         0.4290   -2.1840    1.8090 hc        1 ALD      0.059700
     58 H261       -1.2950   -4.6770    2.4410 hc        1 ALD      0.037533
     59 H262        0.5000   -4.5220    2.6320 hc        1 ALD      0.037533
     60 H263       -0.6090   -3.5170    3.6530 hc        1 ALD      0.037533
     61 H271       -1.1230   -4.0510   -0.1110 hc        1 ALD      0.037533
     62 H272       -0.0260   -2.6700   -0.5440 hc        1 ALD      0.037533
     63 H273        0.6530   -4.1620    0.2270 hc        1 ALD      0.037533
     64 HNG        -4.1350   -1.7710   -0.2270 hn        1 ALD      0.321500
     65 H17        -5.5990    0.6070    0.8010 h1        1 ALD      0.092700
     66 H221       -5.9220   -1.3100    2.3570 h1        1 ALD      0.033200
     67 H222       -7.4580   -0.9260    1.4420 h1        1 ALD      0.033200
     68 H181       -6.3840   -1.4090   -1.4400 hc        1 ALD      0.052700
     69 H182       -7.4700   -0.1520   -0.7300 hc        1 ALD      0.052700
     70 H19        -4.7580    0.5130   -2.0620 hc        1 ALD      0.056700
     71 H201       -6.1180    1.1490   -4.0560 hc        1 ALD      0.034700
     72 H202       -6.2520   -0.6220   -3.6930 hc        1 ALD      0.034700
     73 H203       -7.6110    0.4970   -3.2620 hc        1 ALD      0.034700
     74 H211       -5.6250    2.2670   -0.5380 hc        1 ALD      0.034700
     75 H212       -5.8010    2.7840   -2.2640 hc        1 ALD      0.034700
     76 H213       -7.2500    2.2060   -1.3430 hc        1 ALD      0.034700
     77 HOX        -6.9380   -3.1750    1.4630 ho        1 ALD      0.404000
@<TRIPOS>BOND
     1    1    2 2   
     2    1    3 1   
     3    1   11 1   
     4    3    4 1   
     5    4    5 1   
     6    4   35 1   
     7    4   36 1   
     8    5    6 ar  
     9    5   10 ar  
    10    6    7 ar  
    11    6   37 1   
    12    7    8 ar  
    13    7   38 1   
    14    8    9 ar  
    15    8   39 1   
    16    9   10 ar  
    17    9   40 1   
    18   10   41 1   
    19   11   12 1   
    20   11   42 1   
    21   12   13 1   
    22   12   15 1   
    23   12   43 1   
    24   13   14 2   
    25   13   19 1   
    26   15   16 1   
    27   15   44 1   
    28   15   45 1   
    29   16   17 1   
    30   16   18 1   
    31   16   46 1   
    32   17   47 1   
    33   17   48 1   
    34   17   49 1   
    35   18   50 1   
    36   18   51 1   
    37   18   52 1   
    38   19   20 1   
    39   19   53 1   
    40   20   21 1   
    41   20   23 1   
    42   20   54 1   
    43   21   22 2   
    44   21   27 1   
    45   23   24 1   
    46   23   55 1   
    47   23   56 1   
    48   24   25 1   
    49   24   26 1   
    50   24   57 1   
    51   25   58 1   
    52   25   59 1   
    53   25   60 1   
    54   26   61 1   
    55   26   62 1   
    56   26   63 1   
    57   27   28 1   
    58   27   64 1   
    59   28   29 1   
    60   28   30 1   
    61   28   65 1   
    62   29   34 1   
    63   29   66 1   
    64   29   67 1   
    65   30   31 1   
    66   30   68 1   
    67   30   69 1   
    68   31   32 1   
    69   31   33 1   
    70   31   70 1   
    71   32   71 1   
    72   32   72 1   
    73   32   73 1   
    74   33   74 1   
    75   33   75 1   
    76   33   76 1   
    77   34   77 1   
@<TRIPOS>SUBSTRUCTURE
     1 ALD         1 TEMP              0 ****  ****    0 ROOT
