@<TRIPOS>MOLECULE
ALD
   80    80     1     0     0
SMALL
bcc


@<TRIPOS>ATOM
      1 C9         -0.9650    0.2130   -0.5520 c         1 ALD      0.662100
      2 O31        -0.8480    1.2610   -1.1950 o         1 ALD     -0.569000
      3 O8         -1.2590    0.0000    0.6950 os        1 ALD     -0.393900
      4 C7         -1.5560    1.2230    1.6230 c3        1 ALD      0.270700
      5 C3         -1.6760    0.6060    2.9350 ca        1 ALD     -0.199300
      6 C4         -0.5520    0.5100    3.7790 ca        1 ALD     -0.060000
      7 C5         -0.6870   -0.0080    5.0620 ca        1 ALD     -0.132000
      8 C6         -1.9360   -0.4470    5.5140 ca        1 ALD     -0.027000
      9 C1         -3.0540   -0.3670    4.6770 ca        1 ALD     -0.132000
     10 C2         -2.9280    0.1500    3.3930 ca        1 ALD     -0.060000
     11 N10        -0.7220   -1.0970   -1.3110 n4        1 ALD     -0.675800
     12 C11         0.0590   -0.8580   -2.5680 c3        1 ALD      0.082500
     13 C12        -0.7550    0.0400   -3.5180 c         1 ALD      0.543100
     14 O32        -1.8870   -0.1920   -3.9080 o         1 ALD     -0.389100
     15 C30         0.3990   -2.1620   -3.3070 c3        1 ALD     -0.121400
     16 C31         1.2730   -1.9040   -4.5300 c3        1 ALD     -0.063700
     17 C32         2.6190   -1.3180   -4.1610 c3        1 ALD     -0.110100
     18 C33         1.4610   -3.2140   -5.2760 c3        1 ALD     -0.110100
     19 N13        -0.0720    1.2930   -3.9900 n4        1 ALD     -0.673800
     20 C14        -0.8550    2.1310   -4.9760 c3        1 ALD      0.058500
     21 C15        -0.6230    1.6370   -6.4140 c         1 ALD      0.522100
     22 O34         0.2840    0.8700   -6.7220 o         1 ALD     -0.409100
     23 C24        -0.4560    3.6130   -4.8560 c3        1 ALD     -0.132400
     24 C25        -1.0530    4.2770   -3.6170 c3        1 ALD     -0.069700
     25 C26        -0.3170    5.5800   -3.3590 c3        1 ALD     -0.109100
     26 C27        -2.5330    4.5420   -3.7920 c3        1 ALD     -0.109100
     27 N16        -1.5650    2.1090   -7.4560 n4        1 ALD     -0.657800
     28 C17        -0.8870    2.4960   -8.7700 c3        1 ALD      0.110500
     29 C22        -0.1190    3.8270   -8.6070 c3        1 ALD      0.106400
     30 C18        -1.9230    2.6140   -9.8870 c3        1 ALD     -0.122400
     31 C19        -2.7850    1.3810  -10.1190 c3        1 ALD     -0.077700
     32 C20        -3.6040    1.5900  -11.3820 c3        1 ALD     -0.105600
     33 C21        -1.9610    0.1170  -10.2390 c3        1 ALD     -0.105600
     34 O33        -0.9260    4.7430   -7.8960 oh        1 ALD     -0.650800
     35 H71        -2.5010    1.6430    1.2010 h1        1 ALD      0.091200
     36 H72        -0.6740    1.8930    1.4830 h1        1 ALD      0.091200
     37 H4          0.4310    0.8650    3.4320 ha        1 ALD      0.140500
     38 H5          0.1900   -0.0670    5.7300 ha        1 ALD      0.173500
     39 H6         -2.0410   -0.8520    6.5360 ha        1 ALD      0.178000
     40 H1         -4.0380   -0.7090    5.0400 ha        1 ALD      0.173500
     41 H2         -3.8120    0.2210    2.7400 ha        1 ALD      0.140500
     42 HNA        -1.6320   -1.5330   -1.5230 hn        1 ALD      0.495800
     43 H11         1.0250   -0.3490   -2.2530 hx        1 ALD      0.145700
     44 H301       -0.5460   -2.6820   -3.6260 hc        1 ALD      0.110700
     45 H302        0.9550   -2.8480   -2.6080 hc        1 ALD      0.110700
     46 H31         0.7320   -1.1850   -5.2120 hc        1 ALD      0.011700
     47 H321        2.5130   -0.2840   -3.7470 hc        1 ALD      0.064700
     48 H322        3.2740   -1.2650   -5.0670 hc        1 ALD      0.064700
     49 H323        3.1420   -1.9560   -3.4060 hc        1 ALD      0.064700
     50 H331        2.0590   -3.0380   -6.2050 hc        1 ALD      0.064700
     51 H332        2.0110   -3.9530   -4.6440 hc        1 ALD      0.064700
     52 H333        0.4760   -3.6520   -5.5650 hc        1 ALD      0.064700
     53 HND         0.0920    1.8870   -3.1480 hn        1 ALD      0.503800
     54 H14        -1.9560    2.0200   -4.7100 hx        1 ALD      0.162700
     55 H241       -0.8200    4.1710   -5.7650 hc        1 ALD      0.112200
     56 H242        0.6640    3.7170   -4.8470 hc        1 ALD      0.112200
     57 H25        -0.9110    3.6100   -2.7190 hc        1 ALD      0.032700
     58 H261       -0.4160    6.2700   -4.2320 hc        1 ALD      0.063533
     59 H262       -0.7540    6.0880   -2.4630 hc        1 ALD      0.063533
     60 H263        0.7670    5.3950   -3.1670 hc        1 ALD      0.063533
     61 H271       -2.9410    5.0300   -2.8700 hc        1 ALD      0.063533
     62 H272       -3.1010    3.5950   -3.9620 hc        1 ALD      0.063533
     63 H273       -2.7160    5.2330   -4.6500 hc        1 ALD      0.063533
     64 HNG        -2.0840    2.9390   -7.1260 hn        1 ALD      0.491300
     65 H17        -0.1530    1.6680   -9.0140 hx        1 ALD      0.135700
     66 H221        0.8110    3.6660   -7.9960 h1        1 ALD      0.095200
     67 H222        0.1700    4.1970   -9.6270 h1        1 ALD      0.095200
     68 H181       -2.5820    3.5060   -9.7020 hc        1 ALD      0.102200
     69 H182       -1.3380    2.8220  -10.8290 hc        1 ALD      0.102200
     70 H19        -3.5130    1.2670   -9.2650 hc        1 ALD      0.021700
     71 H201       -4.3090    0.7350  -11.5240 hc        1 ALD      0.058033
     72 H202       -4.1980    2.5330  -11.3140 hc        1 ALD      0.058033
     73 H203       -2.9390    1.6480  -12.2780 hc        1 ALD      0.058033
     74 H211       -1.1700    0.2310  -11.0190 hc        1 ALD      0.058033
     75 H212       -1.4720   -0.1430   -9.2680 hc        1 ALD      0.058033
     76 H213       -2.6170   -0.7380  -10.5390 hc        1 ALD      0.058033
     77 HOX        -1.1000    5.5140   -8.4570 ho        1 ALD      0.472000
     78 H102       -0.1970   -1.7480   -0.7030 hn        1 ALD      0.495800
     79 H132        0.8440    1.0360   -4.4000 hn        1 ALD      0.503800
     80 H162       -2.2340    1.3480   -7.6720 hn        1 ALD      0.491300
@<TRIPOS>BOND
     1    1    2 2   
     2    1    3 1   
     3    1   11 1   
     4    3    4 1   
     5    4    5 1   
     6    4   35 1   
     7    4   36 1   
     8    5    6 ar  
     9    5   10 ar  
    10    6    7 ar  
    11    6   37 1   
    12    7    8 ar  
    13    7   38 1   
    14    8    9 ar  
    15    8   39 1   
    16    9   10 ar  
    17    9   40 1   
    18   10   41 1   
    19   11   12 1   
    20   11   42 1   
    21   11   78 1   
    22   12   13 1   
    23   12   15 1   
    24   12   43 1   
    25   13   14 2   
    26   13   19 1   
    27   15   16 1   
    28   15   44 1   
    29   15   45 1   
    30   16   17 1   
    31   16   18 1   
    32   16   46 1   
    33   17   47 1   
    34   17   48 1   
    35   17   49 1   
    36   18   50 1   
    37   18   51 1   
    38   18   52 1   
    39   19   20 1   
    40   19   53 1   
    41   19   79 1   
    42   20   21 1   
    43   20   23 1   
    44   20   54 1   
    45   21   22 2   
    46   21   27 1   
    47   23   24 1   
    48   23   55 1   
    49   23   56 1   
    50   24   25 1   
    51   24   26 1   
    52   24   57 1   
    53   25   58 1   
    54   25   59 1   
    55   25   60 1   
    56   26   61 1   
    57   26   62 1   
    58   26   63 1   
    59   27   28 1   
    60   27   64 1   
    61   27   80 1   
    62   28   29 1   
    63   28   30 1   
    64   28   65 1   
    65   29   34 1   
    66   29   66 1   
    67   29   67 1   
    68   30   31 1   
    69   30   68 1   
    70   30   69 1   
    71   31   32 1   
    72   31   33 1   
    73   31   70 1   
    74   32   71 1   
    75   32   72 1   
    76   32   73 1   
    77   33   74 1   
    78   33   75 1   
    79   33   76 1   
    80   34   77 1   
@<TRIPOS>SUBSTRUCTURE
     1 ALD         1 TEMP              0 ****  ****    0 ROOT
