@<TRIPOS>MOLECULE
ALE
   26    23     1     0     0
SMALL
bcc


@<TRIPOS>ATOM
      1 C1          0.0760    0.6000    0.4310 c1        1 ALE     -0.056100
      2 C2          1.4620    0.5830    0.4210 c1        1 ALE     -0.079000
      3 C3          2.1650    0.6480    1.6140 c1        1 ALE      0.057600
      4 C4          1.4820    0.7300    2.8170 c1        1 ALE      0.057600
      5 C5          0.0960    0.7470    2.8270 c1        1 ALE     -0.079000
      6 C6         -0.6070    0.6820    1.6340 c1        1 ALE     -0.068500
      7 O1          3.5720    0.6560    1.6020 oh        1 ALE     -0.490600
      8 O2          2.1950    0.8470    4.0240 oh        1 ALE     -0.490600
      9 O3         -0.0160    1.4300   -1.8030 oh        1 ALE     -0.604800
     10 C9         -1.8860   -2.1680   -2.9330 c3        1 ALE      0.153100
     11 N1         -1.6940   -0.8220   -2.5090 n3        1 ALE     -0.837200
     12 C8         -0.7820   -0.7950   -1.4150 c3        1 ALE      0.120800
     13 C7         -0.6880    0.6130   -0.8730 c3        1 ALE      0.163200
     14 H2          1.9430    0.5260   -0.4270 ha        1 ALE      0.098000
     15 H6         -1.5830    0.6940    1.6420 ha        1 ALE      0.075500
     16 H7         -1.5870    0.9640   -0.7200 h1        1 ALE      0.041700
     17 H1          3.8620    1.4490    1.3250 ho        1 ALE      0.434000
     18 H5         -0.3850    0.8050    3.6750 ha        1 ALE      0.098000
     19 HA          2.1910    0.0660    4.4480 ho        1 ALE      0.434000
     20 H3         -0.5300    2.1260   -2.0110 ho        1 ALE      0.421000
     21 H91C       -2.6950   -2.2240   -3.4860 h1        1 ALE      0.032700
     22 H92C       -1.9860   -2.7480   -2.1470 h1        1 ALE      0.032700
     23 H93C       -1.1100   -2.4600   -3.4580 h1        1 ALE      0.032700
     24 HB         -2.4950   -0.4670   -2.2470 hn        1 ALE      0.357800
     25 H81C        0.1020   -1.0870   -1.7190 h1        1 ALE      0.047200
     26 H82C       -1.1000   -1.3950   -0.7100 h1        1 ALE      0.047200
@<TRIPOS>BOND
     1    1    6 3   
     2    1   13 1   
     3    2    3 3   
     4    2   14 1   
     5    3    7 1   
     6    4    5 3   
     7    4    8 1   
     8    5   18 1   
     9    6   15 1   
    10    7   17 1   
    11    8   19 1   
    12    9   13 1   
    13    9   20 1   
    14   10   11 1   
    15   10   21 1   
    16   10   22 1   
    17   10   23 1   
    18   11   12 1   
    19   11   24 1   
    20   12   13 1   
    21   12   25 1   
    22   12   26 1   
    23   13   16 1   
@<TRIPOS>SUBSTRUCTURE
     1 ALE         1 TEMP              0 ****  ****    0 ROOT
