@<TRIPOS>MOLECULE
ALE
   27    25     1     0     0
SMALL
bcc


@<TRIPOS>ATOM
      1 C1          0.5580    0.0570   -1.3860 c1        1 ALE     -0.289000
      2 C2          1.6980   -0.1190   -0.7710 c2        1 ALE      0.087000
      3 C3          1.9230   -0.0210    0.6530 c2        1 ALE     -0.061000
      4 C4          0.9490    0.1210    1.5950 c2        1 ALE     -0.021000
      5 C5         -0.9190    0.0660    4.6860 c1        1 ALE      0.096000
      6 C6         -1.6970   -0.0170    5.7190 c2        1 ALE     -0.490000
      7 O1          3.2720   -0.0750    0.9610 oh        1 ALE     -0.256000
      8 O2          1.3320    0.2120    2.8970 oh        1 ALE     -0.287000
      9 O3         -1.4790   -0.7390   -2.3730 oh        1 ALE     -0.298000
     10 C9         -1.7890    2.8340   -4.5170 c3        1 ALE     -0.198000
     11 C8         -1.0260    1.5810   -2.5260 c3        1 ALE     -0.067000
     12 C7         -0.5580    0.2420   -2.0370 c2        1 ALE      0.010000
     13 H2          2.6080   -0.3640   -1.3640 ha        1 ALE      0.182000
     14 H6         -2.0100    0.8520    6.3270 ha        1 ALE      0.214000
     15 H7         -2.1180   -0.9640    6.1020 ha        1 ALE      0.214000
     16 H1          3.3540   -0.1340    1.9270 ho        1 ALE      0.244000
     17 H5         -0.1220    0.1560    1.3560 h4        1 ALE      0.140000
     18 HA          0.5250    0.1740    3.4700 ho        1 ALE      0.284000
     19 H3         -1.2430   -1.5560   -1.9090 ho        1 ALE      0.257000
     20 H91C       -1.9070    0.7860   -4.2170 hn        1 ALE      0.257500
     21 H92C       -1.0710    3.6650   -4.2830 hx        1 ALE      0.147667
     22 H93C       -2.7780    3.0470   -4.0280 hx        1 ALE      0.147667
     23 HB         -1.9300    2.7610   -5.6300 hx        1 ALE      0.147667
     24 H81C       -0.3620    1.3390   -4.4760 hn        1 ALE      0.257500
     25 H82C       -2.0090    1.8420   -2.0360 hx        1 ALE      0.156000
     26 H12        -0.2620    2.3750   -2.2910 hx        1 ALE      0.156000
     27 N1         -1.2520    1.5550   -4.0100 ny        1 ALE     -0.033000
@<TRIPOS>BOND
     1    1    2 1   
     2    1   12 1   
     3    2    3 1   
     4    2   13 1   
     5    3    4 1   
     6    3    7 1   
     7    4    8 1   
     8    4   17 1   
     9    5    6 1   
    10    6   14 1   
    11    6   15 1   
    12    7   16 1   
    13    8   18 1   
    14    9   12 1   
    15    9   19 1   
    16   10   21 1   
    17   10   22 1   
    18   10   23 1   
    19   10   27 1   
    20   11   12 1   
    21   11   25 1   
    22   11   26 1   
    23   11   27 1   
    24   20   27 1   
    25   24   27 1   
@<TRIPOS>SUBSTRUCTURE
     1 ALE         1 TEMP              0 ****  ****    0 ROOT
