@<TRIPOS>MOLECULE
ALE
   27    26     1     0     0
SMALL
bcc


@<TRIPOS>ATOM
      1 C1         -0.0710    0.4880   -0.4060 ce        1 ALE     -0.039000
      2 C2          0.8270   -0.5490    0.0030 ce        1 ALE     -0.321000
      3 C3          1.4440   -0.5850    1.2130 c2        1 ALE      0.164900
      4 C4          1.3080    0.4350    2.3330 c3        1 ALE      0.281400
      5 C5          0.1750    0.1050    3.1680 c1        1 ALE     -0.226100
      6 C6         -0.7520   -0.1450    3.8810 c1        1 ALE     -0.059500
      7 O1          2.3080   -1.5730    1.5750 oh        1 ALE     -0.472100
      8 O2          2.5170    0.5450    3.0530 oh        1 ALE     -0.560800
      9 O3         -0.7530   -0.5440   -2.5020 oh        1 ALE     -0.536100
     10 C9         -2.3570    3.0940   -3.7690 c3        1 ALE      0.078100
     11 C8         -1.7530    1.5310   -1.9450 c3        1 ALE      0.178000
     12 C7         -0.7990    0.4540   -1.5440 c2        1 ALE     -0.086100
     13 H2          1.0350   -1.3520   -0.7260 ha        1 ALE      0.138000
     14 H6         -0.1870    1.3550    0.2710 ha        1 ALE      0.144000
     15 H7         -1.5730   -0.3680    4.5180 ha        1 ALE      0.180500
     16 H1          2.4190   -2.2040    0.8440 ho        1 ALE      0.444000
     17 H5          1.1740    1.4660    1.8800 h1        1 ALE      0.099700
     18 HA          2.6800   -0.2930    3.5090 ho        1 ALE      0.432000
     19 H3         -0.6240   -1.3930   -2.0500 ho        1 ALE      0.450000
     20 H91C       -1.3690    1.2820   -3.9610 hn        1 ALE      0.462300
     21 H92C       -2.0400    3.4660   -4.7810 hx        1 ALE      0.107700
     22 H93C       -3.3820    2.6400   -3.8420 hx        1 ALE      0.107700
     23 HB         -2.3810    3.9520   -3.0440 hx        1 ALE      0.107700
     24 H81C       -0.4510    2.4740   -3.2600 hn        1 ALE      0.462300
     25 H82C       -2.7990    1.1120   -2.0180 hx        1 ALE      0.110200
     26 H12        -1.7390    2.3800   -1.2060 hx        1 ALE      0.110200
     27 N1         -1.3960    2.0750   -3.3010 n4        1 ALE     -0.760000
@<TRIPOS>BOND
     1    1    2 1   
     2    1   12 2   
     3    1   14 1   
     4    2    3 2   
     5    2   13 1   
     6    3    4 1   
     7    3    7 1   
     8    4    5 1   
     9    4    8 1   
    10    4   17 1   
    11    5    6 3   
    12    6   15 1   
    13    7   16 1   
    14    8   18 1   
    15    9   12 1   
    16    9   19 1   
    17   10   21 1   
    18   10   22 1   
    19   10   23 1   
    20   10   27 1   
    21   11   12 1   
    22   11   25 1   
    23   11   26 1   
    24   11   27 1   
    25   20   27 1   
    26   24   27 1   
@<TRIPOS>SUBSTRUCTURE
     1 ALE         1 TEMP              0 ****  ****    0 ROOT
