@<TRIPOS>MOLECULE
ALE
   26    26     1     0     0
SMALL
bcc


@<TRIPOS>ATOM
      1 C1         -0.0760    0.3460    0.2510 ca        1 ALE     -0.112300
      2 C2          0.5600   -0.9000    0.2730 ca        1 ALE     -0.129000
      3 C3          1.9130   -0.9980   -0.0690 ca        1 ALE      0.113100
      4 C4          2.6320    0.1650   -0.4260 ca        1 ALE      0.042100
      5 C5          1.9960    1.4070   -0.4320 ca        1 ALE     -0.168000
      6 C6          0.6470    1.4920   -0.0910 ca        1 ALE     -0.122000
      7 O1          2.4840   -2.2470   -0.0390 oh        1 ALE     -0.493100
      8 O2          3.9600   -0.0170   -0.7560 oh        1 ALE     -0.516100
      9 O3         -2.0180    1.7510    0.6880 oh        1 ALE     -0.593800
     10 C9         -4.6490   -1.0030   -0.9290 c3        1 ALE      0.154100
     11 C8         -2.3810   -0.4220   -0.3340 c3        1 ALE      0.134800
     12 C7         -1.5250    0.4220    0.6360 c3        1 ALE      0.177400
     13 H2          0.0160   -1.8120    0.5620 ha        1 ALE      0.158000
     14 H6          0.1590    2.4790   -0.0750 ha        1 ALE      0.142000
     15 H7         -1.6470    0.0520    1.6970 h1        1 ALE      0.101700
     16 H1          3.4210   -2.1540   -0.2730 ho        1 ALE      0.438000
     17 H5          2.5590    2.3130   -0.6990 ha        1 ALE      0.137000
     18 HA          4.3430    0.8540   -0.9300 ho        1 ALE      0.430000
     19 H3         -1.9880    2.1080   -0.2080 ho        1 ALE      0.397000
     20 H91C       -4.3220   -2.0230   -1.2630 h1        1 ALE      0.029700
     21 H92C       -5.6810   -1.0800   -0.4960 h1        1 ALE      0.029700
     22 H93C       -4.6910   -0.3370   -1.8350 h1        1 ALE      0.029700
     23 HB         -4.0750    0.3350    0.4840 hn        1 ALE      0.369800
     24 H81C       -1.9540   -1.4630   -0.3850 h1        1 ALE      0.038200
     25 H82C       -2.2900    0.0330   -1.3650 h1        1 ALE      0.038200
     26 N1         -3.7580   -0.5360    0.0980 n3        1 ALE     -0.827200
@<TRIPOS>BOND
     1    1    2 ar  
     2    1    6 ar  
     3    1   12 1   
     4    2    3 ar  
     5    2   13 1   
     6    3    4 ar  
     7    3    7 1   
     8    4    5 ar  
     9    4    8 1   
    10    5    6 ar  
    11    5   17 1   
    12    6   14 1   
    13    7   16 1   
    14    8   18 1   
    15    9   12 1   
    16    9   19 1   
    17   10   20 1   
    18   10   21 1   
    19   10   22 1   
    20   10   26 1   
    21   11   12 1   
    22   11   24 1   
    23   11   25 1   
    24   11   26 1   
    25   12   15 1   
    26   23   26 1   
@<TRIPOS>SUBSTRUCTURE
     1 ALE         1 TEMP              0 ****  ****    0 ROOT
