@<TRIPOS>MOLECULE
ALE
   27    25     1     0     0
SMALL
bcc


@<TRIPOS>ATOM
      1 C1          0.5640    0.3580   -1.5150 c1        1 ALE     -0.289000
      2 C2          1.7340    0.1960   -0.9550 c2        1 ALE      0.087000
      3 C3          1.9870    0.0350    0.4590 c2        1 ALE     -0.061000
      4 C4          1.0310   -0.1270    1.4150 c2        1 ALE     -0.021000
      5 C5         -0.7270   -1.0160    4.4430 c1        1 ALE      0.096000
      6 C6         -1.4600   -1.3950    5.4420 c2        1 ALE     -0.490000
      7 O1          3.3420    0.0780    0.7420 oh        1 ALE     -0.256000
      8 O2          1.4390   -0.2530    2.7070 oh        1 ALE     -0.287000
      9 O3         -1.3990   -0.4550   -2.6310 oh        1 ALE     -0.298000
     10 C9         -2.1680    3.4120   -4.0120 c3        1 ALE     -0.198000
     11 C8         -1.2130    1.8850   -2.3170 c3        1 ALE     -0.067000
     12 C7         -0.5840    0.5380   -2.1090 c2        1 ALE      0.010000
     13 H2          2.6480    0.1810   -1.5900 ha        1 ALE      0.182000
     14 H6         -1.7540   -2.4430    5.6310 ha        1 ALE      0.214000
     15 H7         -1.8550   -0.7080    6.2120 ha        1 ALE      0.214000
     16 H1          3.4580   -0.1620    1.6750 ho        1 ALE      0.244000
     17 H5         -0.0440   -0.1700    1.1940 h4        1 ALE      0.140000
     18 HA          0.6580   -0.4980    3.2660 ho        1 ALE      0.284000
     19 H3         -1.0590   -1.3160   -2.3410 ho        1 ALE      0.257000
     20 H91C       -0.5830    2.1130   -4.2800 hn        1 ALE      0.257500
     21 H92C       -3.1600    3.4080   -3.4850 hx        1 ALE      0.147667
     22 H93C       -2.3320    3.5460   -5.1160 hx        1 ALE      0.147667
     23 HB         -1.5410    4.2570   -3.6200 hx        1 ALE      0.147667
     24 H81C       -2.0480    1.3450   -4.1280 hn        1 ALE      0.257500
     25 H82C       -2.2040    1.9280   -1.7790 hx        1 ALE      0.156000
     26 H12        -0.5360    2.6990   -1.9320 hx        1 ALE      0.156000
     27 N1         -1.4770    2.1280   -3.7750 n4        1 ALE     -0.033000
@<TRIPOS>BOND
     1    1    2 1   
     2    1   12 1   
     3    2    3 1   
     4    2   13 1   
     5    3    4 1   
     6    3    7 1   
     7    4    8 1   
     8    4   17 1   
     9    5    6 1   
    10    6   14 1   
    11    6   15 1   
    12    7   16 1   
    13    8   18 1   
    14    9   12 1   
    15    9   19 1   
    16   10   21 1   
    17   10   22 1   
    18   10   23 1   
    19   10   27 1   
    20   11   12 1   
    21   11   25 1   
    22   11   26 1   
    23   11   27 1   
    24   20   27 1   
    25   24   27 1   
@<TRIPOS>SUBSTRUCTURE
     1 ALE         1 TEMP              0 ****  ****    0 ROOT
