@<TRIPOS>MOLECULE
ALG
   20    17     1     0     0
SMALL
bcc


@<TRIPOS>ATOM
      1 C           1.6520    1.6500   -2.7130 c1        1 ALG      0.330000
      2 O           2.9110    1.6500   -2.7130 o         1 ALG     -0.582500
      3 CA          0.8960    1.6500   -1.4030 c2        1 ALG     -0.227000
      4 CB          0.6930    0.2250   -0.9380 c3        1 ALG     -0.152000
      5 CD         -0.1310    0.2210    0.3310 c3        1 ALG     -0.065000
      6 NE         -0.2680   -1.1130    0.8020 n3        1 ALG     -0.327000
      7 CZ         -1.0720   -1.3840    1.9390 c2        1 ALG      0.154000
      8 NH1        -0.5610   -1.2910    3.1380 n1        1 ALG     -0.376000
      9 NH2        -2.4310   -1.7550    1.7740 n3        1 ALG     -0.322000
     10 OXT         1.0230    1.6570   -3.8030 o         1 ALG     -0.582500
     11 HA1         0.0280    2.0780   -1.5280 ha        1 ALG      0.063000
     12 HA2         1.4070    2.1410   -0.7320 ha        1 ALG      0.063000
     13 HB1         0.2260   -0.2800   -1.6310 hc        1 ALG      0.094000
     14 HB2         1.5600   -0.1880   -0.7640 hc        1 ALG      0.094000
     15 HD1        -1.0140    0.5940    0.1460 h1        1 ALG      0.070000
     16 HD2         0.3150    0.7620    1.0100 h1        1 ALG      0.070000
     17 HNE         0.1830   -1.7910    0.3910 hn        1 ALG      0.198000
     18 HH1         0.3130   -1.0520    3.2440 DU        1 ALG      0.149000
     19 HH21       -2.7190   -2.0900    0.9760 hn        1 ALG      0.175500
     20 HH22       -3.0120   -1.6820    2.4730 hn        1 ALG      0.175500
@<TRIPOS>BOND
     1    1    2 1   
     2    1   10 1   
     3    3    4 1   
     4    3   11 1   
     5    3   12 1   
     6    4    5 1   
     7    4   13 1   
     8    4   14 1   
     9    5    6 1   
    10    5   15 1   
    11    5   16 1   
    12    6    7 1   
    13    6   17 1   
    14    7    8 1   
    15    7    9 1   
    16    9   19 1   
    17    9   20 1   
@<TRIPOS>SUBSTRUCTURE
     1 ALG         1 TEMP              0 ****  ****    0 ROOT
