@<TRIPOS>MOLECULE
ALG
   20    19     1     0     0
SMALL
bcc


@<TRIPOS>ATOM
      1 C          -3.1120   -0.0670    0.1470 c         1 ALG      0.909600
      2 O          -3.1220   -1.1180    0.8520 o         1 ALG     -0.850800
      3 CA         -1.7800    0.6890   -0.0250 c3        1 ALG     -0.195400
      4 CB         -0.6290   -0.2730   -0.1790 c3        1 ALG     -0.077400
      5 CD          0.7090    0.4630   -0.0970 c3        1 ALG      0.179800
      6 NE          1.8390   -0.4410   -0.2180 nh        1 ALG     -0.798200
      7 CZ          3.1460    0.0610    0.0640 c2        1 ALG      0.741100
      8 NH1         3.3700    1.3500    0.1820 n2        1 ALG     -0.873100
      9 NH2         4.1810   -0.9430    0.1850 nh        1 ALG     -0.934800
     10 OXT        -4.1360    0.4160   -0.4150 o         1 ALG     -0.850800
     11 HA1        -1.8500    1.3650   -0.9120 hc        1 ALG      0.024200
     12 HA2        -1.6340    1.3270    0.8840 hc        1 ALG      0.024200
     13 HB1        -0.7060   -1.0500    0.6300 hc        1 ALG      0.050200
     14 HB2        -0.7160   -0.8050   -1.1610 hc        1 ALG      0.050200
     15 HD1         0.7820    1.2090   -0.9380 h1        1 ALG      0.045200
     16 HD2         0.7450    1.0420    0.8710 h1        1 ALG      0.045200
     17 HNE         1.6590   -1.3190    0.2320 hn        1 ALG      0.391800
     18 HH1         4.3310    1.6010    0.2740 hn        1 ALG      0.371400
     19 HH21        3.9080   -1.8570   -0.1080 hn        1 ALG      0.374300
     20 HH22        5.0300   -0.6670   -0.2610 hn        1 ALG      0.374300
@<TRIPOS>BOND
     1    1    2 1   
     2    1    3 1   
     3    1   10 1   
     4    3    4 1   
     5    3   11 1   
     6    3   12 1   
     7    4    5 1   
     8    4   13 1   
     9    4   14 1   
    10    5    6 1   
    11    5   15 1   
    12    5   16 1   
    13    6    7 1   
    14    6   17 1   
    15    7    8 2   
    16    7    9 1   
    17    8   18 1   
    18    9   19 1   
    19    9   20 1   
@<TRIPOS>SUBSTRUCTURE
     1 ALG         1 TEMP              0 ****  ****    0 ROOT
