@<TRIPOS>MOLECULE
ALH
   37    39     1     0     0
SMALL
bcc


@<TRIPOS>ATOM
      1 OAO        -1.6290   -0.0460   -5.5140 oh        1 ALH     -0.493100
      2 CAN        -1.3900   -0.0190   -4.1610 ca        1 ALH      0.136100
      3 CAU        -2.3900   -0.5640   -3.3370 ca        1 ALH     -0.187000
      4 CAT        -2.2070   -0.5630   -1.9600 ca        1 ALH     -0.074500
      5 CAM        -1.0390   -0.0280   -1.3930 ca        1 ALH     -0.087800
      6 CAE        -0.0510    0.5120   -2.2270 ca        1 ALH     -0.074500
      7 CAF        -0.2190    0.5180   -3.6080 ca        1 ALH     -0.187000
      8 CAL        -0.8490   -0.0340    0.0500 cc        1 ALH      0.015700
      9 NAS        -1.8990    0.3170    0.9200 na        1 ALH     -0.274100
     10 CAR        -1.4350    0.2210    2.2310 ca        1 ALH      0.317500
     11 NAQ        -2.0960    0.4680    3.4040 nb        1 ALH     -0.637000
     12 CAJ        -0.0330   -0.2230    2.1840 ca        1 ALH      0.300800
     13 NAI         0.6800   -0.4180    3.3190 nb        1 ALH     -0.588000
     14 CAH         0.0170   -0.1730    4.4550 ca        1 ALH      0.254900
     15 CAP        -1.3490    0.2640    4.4950 ca        1 ALH      0.297900
     16 CAK         0.3000   -0.3720    0.7800 cd        1 ALH     -0.213000
     17 CAG         1.5950   -0.8370    0.2620 c3        1 ALH     -0.012200
     18 CAD         2.6820    0.2140    0.4000 c3        1 ALH     -0.077400
     19 CAC         4.0020   -0.3010   -0.1350 c3        1 ALH     -0.080400
     20 CAB         5.0890    0.7350   -0.0080 c3        1 ALH     -0.092100
     21 HAO        -0.8670    0.3500   -5.9620 ho        1 ALH      0.423000
     22 HAU        -3.2990   -0.9840   -3.7920 ha        1 ALH      0.147000
     23 HAT        -2.9830   -1.0030   -1.3140 ha        1 ALH      0.144000
     24 HAE         0.8650    0.9350   -1.7830 ha        1 ALH      0.144000
     25 HAF         0.5590    0.9420   -4.2590 ha        1 ALH      0.147000
     26 HAS        -2.7940    0.6230    0.6420 hn        1 ALH      0.312700
     27 HAH         0.5760   -0.3240    5.3940 h4        1 ALH      0.031100
     28 HAP        -1.8440    0.4520    5.4630 h4        1 ALH      0.031100
     29 HAG1        1.4890   -1.1270   -0.8190 hc        1 ALH      0.054200
     30 HAG2        1.9030   -1.7590    0.8300 hc        1 ALH      0.054200
     31 HAD1        2.7950    0.4940    1.4800 hc        1 ALH      0.046700
     32 HAD2        2.3870    1.1420   -0.1560 hc        1 ALH      0.046700
     33 HAC1        3.8830   -0.5930   -1.2120 hc        1 ALH      0.038200
     34 HAC2        4.2970   -1.2260    0.4280 hc        1 ALH      0.038200
     35 HAB1        6.0540    0.3370   -0.4040 hc        1 ALH      0.032367
     36 HAB2        4.8250    1.6570   -0.5810 hc        1 ALH      0.032367
     37 HAB3        5.2380    1.0210    1.0620 hc        1 ALH      0.032367
@<TRIPOS>BOND
     1    1    2 1   
     2    1   21 1   
     3    2    3 ar  
     4    2    7 ar  
     5    3    4 ar  
     6    3   22 1   
     7    4    5 ar  
     8    4   23 1   
     9    5    6 ar  
    10    5    8 1   
    11    6    7 ar  
    12    6   24 1   
    13    7   25 1   
    14    8    9 1   
    15    8   16 2   
    16    9   10 1   
    17    9   26 1   
    18   10   11 ar  
    19   10   12 ar  
    20   11   15 ar  
    21   12   13 ar  
    22   12   16 1   
    23   13   14 ar  
    24   14   15 ar  
    25   14   27 1   
    26   15   28 1   
    27   16   17 1   
    28   17   18 1   
    29   17   29 1   
    30   17   30 1   
    31   18   19 1   
    32   18   31 1   
    33   18   32 1   
    34   19   20 1   
    35   19   33 1   
    36   19   34 1   
    37   20   35 1   
    38   20   36 1   
    39   20   37 1   
@<TRIPOS>SUBSTRUCTURE
     1 ALH         1 TEMP              0 ****  ****    0 ROOT
