@<TRIPOS>MOLECULE
ALH
   37    30     1     0     0
SMALL
bcc


@<TRIPOS>ATOM
      1 OAO        -5.7450    1.2360   -0.2860 oh        1 ALH     -0.247000
      2 CAN        -4.3380    1.2400   -0.2390 c2        1 ALH      0.091000
      3 CAU        -3.6780    0.5800    0.7860 c2        1 ALH     -0.216000
      4 CAT        -2.2920    0.5300    0.7980 c1        1 ALH     -0.064000
      5 CAM        -1.5680    1.1390   -0.2150 c1        1 ALH     -0.076000
      6 CAE        -2.2290    1.7990   -1.2390 c1        1 ALH     -0.085000
      7 CAF        -3.6140    1.8500   -1.2510 c1        1 ALH     -0.158000
      8 CAL        -0.1820    1.0950   -0.1990 c1        1 ALH      0.011000
      9 NAS         0.2920    2.3070    0.2190 n2        1 ALH     -0.188000
     10 CAR         1.6770    2.2570    0.1950 c1        1 ALH      0.011000
     11 NAQ         2.6280    3.1740    0.5290 n1        1 ALH     -0.086500
     12 CAJ         2.0480    1.0110   -0.2380 c1        1 ALH     -0.085500
     13 NAI         3.3680    0.6900   -0.3360 n1        1 ALH     -0.086500
     14 CAH         4.3050    1.5930   -0.0070 c1        1 ALH     -0.123500
     15 CAP         3.9290    2.8560    0.4330 c1        1 ALH     -0.123500
     16 CAK         0.9000    0.2870   -0.4840 c1        1 ALH     -0.085500
     17 CAG         1.0340   -1.1420   -0.9620 c2        1 ALH     -0.095000
     18 CAD         1.2510   -2.0530    0.2270 c3        1 ALH     -0.156000
     19 CAC         0.9740   -3.4840   -0.1780 c3        1 ALH     -0.159000
     20 CAB         0.7140   -4.3160    1.0590 c3        1 ALH     -0.210000
     21 HAO        -6.0590    1.9200    0.1880 ho        1 ALH      0.222000
     22 HAU        -4.1880    0.1510    1.4990 ha        1 ALH      0.139000
     23 HAT        -1.8270    0.0660    1.5190 ha        1 ALH      0.149000
     24 HAE        -1.7180    2.2280   -1.9520 ha        1 ALH      0.139000
     25 HAF        -4.0790    2.3140   -1.9730 ha        1 ALH      0.155000
     26 HAS        -0.2140    3.0240    0.4690 DU        1 ALH      0.263000
     27 HAH         5.2510    1.3630   -0.0760 ha        1 ALH      0.168000
     28 HAP         4.6110    3.5130    0.6720 ha        1 ALH      0.168000
     29 HAG1        0.2180   -1.4070   -1.4310 ha        1 ALH      0.093500
     30 HAG2        1.7970   -1.2120   -1.5700 ha        1 ALH      0.093500
     31 HAD1        2.1770   -1.9740    0.5330 hc        1 ALH      0.086000
     32 HAD2        0.6450   -1.7950    0.9500 hc        1 ALH      0.086000
     33 HAC1        0.1900   -3.5120   -0.7610 hc        1 ALH      0.077500
     34 HAC2        1.7490   -3.8440   -0.6550 hc        1 ALH      0.077500
     35 HAB1        0.0130   -3.8910    1.5970 hc        1 ALH      0.071667
     36 HAB2        0.4220   -5.2130    0.7930 hc        1 ALH      0.071667
     37 HAB3        1.5370   -4.3830    1.5870 hc        1 ALH      0.071667
@<TRIPOS>BOND
     1    1    2 1   
     2    1   21 1   
     3    2    3 1   
     4    2    7 1   
     5    3    4 1   
     6    3   22 1   
     7    4   23 1   
     8    5    6 1   
     9    6   24 1   
    10    7   25 1   
    11    8    9 1   
    12    8   16 1   
    13    9   10 1   
    14   10   12 1   
    15   11   15 1   
    16   13   14 1   
    17   14   27 1   
    18   15   28 1   
    19   17   18 1   
    20   17   29 1   
    21   17   30 1   
    22   18   19 1   
    23   18   31 1   
    24   18   32 1   
    25   19   20 1   
    26   19   33 1   
    27   19   34 1   
    28   20   35 1   
    29   20   36 1   
    30   20   37 1   
@<TRIPOS>SUBSTRUCTURE
     1 ALH         1 TEMP              0 ****  ****    0 ROOT
