@<TRIPOS>MOLECULE
ALH
   37    39     1     0     0
SMALL
bcc


@<TRIPOS>ATOM
      1 OAO        -0.0950    0.3400    0.5660 oh        1 ALH     -0.493100
      2 CAN         1.2630    0.2390    0.3840 ca        1 ALH      0.136100
      3 CAU         2.0630    0.4100    1.5270 ca        1 ALH     -0.187000
      4 CAT         3.4440    0.3220    1.4050 ca        1 ALH     -0.074500
      5 CAM         4.0390    0.0650    0.1600 ca        1 ALH     -0.087800
      6 CAE         3.2290   -0.1020   -0.9710 ca        1 ALH     -0.074500
      7 CAF         1.8440   -0.0180   -0.8670 ca        1 ALH     -0.187000
      8 CAL         5.4870   -0.0310    0.0380 cc        1 ALH      0.015700
      9 NAS         6.3300    0.8890    0.6890 na        1 ALH     -0.274100
     10 CAR         7.6520    0.5560    0.3980 ca        1 ALH      0.317500
     11 NAQ         8.8090    1.1650    0.8040 nb        1 ALH     -0.637000
     12 CAJ         7.6390   -0.6360   -0.4650 ca        1 ALH      0.300800
     13 NAI         8.7920   -1.2000   -0.9000 nb        1 ALH     -0.588000
     14 CAH         9.9110   -0.5910   -0.4910 ca        1 ALH      0.254900
     15 CAP         9.9170    0.5740    0.3460 ca        1 ALH      0.297900
     16 CAK         6.2440   -0.9750   -0.6700 cd        1 ALH     -0.213000
     17 CAG         5.7580   -2.1280   -1.4420 c3        1 ALH     -0.012200
     18 CAD         5.9210   -1.9290   -2.9390 c3        1 ALH     -0.077400
     19 CAC         5.4190   -3.1360   -3.7030 c3        1 ALH     -0.080400
     20 CAB         5.5710   -2.9490   -5.1900 c3        1 ALH     -0.092100
     21 HAO        -0.5250    0.1970   -0.2900 ho        1 ALH      0.423000
     22 HAU         1.5870    0.6060    2.4980 ha        1 ALH      0.147000
     23 HAT         4.0710    0.4400    2.3030 ha        1 ALH      0.144000
     24 HAE         3.6940   -0.3000   -1.9510 ha        1 ALH      0.144000
     25 HAF         1.2120   -0.1500   -1.7560 ha        1 ALH      0.147000
     26 HAS         6.0300    1.6640    1.2200 hn        1 ALH      0.312700
     27 HAH        10.8630   -1.0300   -0.8330 h4        1 ALH      0.031100
     28 HAP        10.8730    1.0340    0.6500 h4        1 ALH      0.031100
     29 HAG1        6.3340   -3.0430   -1.1300 hc        1 ALH      0.054200
     30 HAG2        4.6750   -2.3140   -1.2050 hc        1 ALH      0.054200
     31 HAD1        7.0040   -1.7540   -3.1760 hc        1 ALH      0.046700
     32 HAD2        5.3570   -1.0160   -3.2650 hc        1 ALH      0.046700
     33 HAC1        4.3400   -3.3160   -3.4540 hc        1 ALH      0.038200
     34 HAC2        5.9890   -4.0460   -3.3770 hc        1 ALH      0.038200
     35 HAB1        5.1990   -3.8490   -5.7350 hc        1 ALH      0.032367
     36 HAB2        6.6440   -2.7920   -5.4590 hc        1 ALH      0.032367
     37 HAB3        4.9900   -2.0600   -5.5380 hc        1 ALH      0.032367
@<TRIPOS>BOND
     1    1    2 1   
     2    1   21 1   
     3    2    3 ar  
     4    2    7 ar  
     5    3    4 ar  
     6    3   22 1   
     7    4    5 ar  
     8    4   23 1   
     9    5    6 ar  
    10    5    8 1   
    11    6    7 ar  
    12    6   24 1   
    13    7   25 1   
    14    8    9 1   
    15    8   16 2   
    16    9   10 1   
    17    9   26 1   
    18   10   11 ar  
    19   10   12 ar  
    20   11   15 ar  
    21   12   13 ar  
    22   12   16 1   
    23   13   14 ar  
    24   14   15 ar  
    25   14   27 1   
    26   15   28 1   
    27   16   17 1   
    28   17   18 1   
    29   17   29 1   
    30   17   30 1   
    31   18   19 1   
    32   18   31 1   
    33   18   32 1   
    34   19   20 1   
    35   19   33 1   
    36   19   34 1   
    37   20   35 1   
    38   20   36 1   
    39   20   37 1   
@<TRIPOS>SUBSTRUCTURE
     1 ALH         1 TEMP              0 ****  ****    0 ROOT
