@<TRIPOS>MOLECULE
ALH
   37    39     1     0     0
SMALL
bcc


@<TRIPOS>ATOM
      1 OAO        -0.0910    0.3520    0.5710 oh        1 ALH     -0.493100
      2 CAN         1.2670    0.2480    0.3870 ca        1 ALH      0.136100
      3 CAU         2.0670    0.4120    1.5310 ca        1 ALH     -0.187000
      4 CAT         3.4480    0.3190    1.4090 ca        1 ALH     -0.074500
      5 CAM         4.0420    0.0650    0.1630 ca        1 ALH     -0.087800
      6 CAE         3.2310   -0.0950   -0.9690 ca        1 ALH     -0.074500
      7 CAF         1.8470   -0.0070   -0.8640 ca        1 ALH     -0.187000
      8 CAL         5.4890   -0.0360    0.0410 cc        1 ALH      0.015700
      9 NAS         6.3360    0.8790    0.6950 na        1 ALH     -0.274100
     10 CAR         7.6570    0.5430    0.4030 ca        1 ALH      0.317500
     11 NAQ         8.8160    1.1460    0.8110 nb        1 ALH     -0.637000
     12 CAJ         7.6400   -0.6460   -0.4640 ca        1 ALH      0.300800
     13 NAI         8.7900   -1.2120   -0.9010 nb        1 ALH     -0.588000
     14 CAH         9.9120   -0.6090   -0.4900 ca        1 ALH      0.254900
     15 CAP         9.9220    0.5520    0.3510 ca        1 ALH      0.297900
     16 CAK         6.2440   -0.9800   -0.6700 cd        1 ALH     -0.213000
     17 CAG         5.7540   -2.1280   -1.4470 c3        1 ALH     -0.012200
     18 CAD         5.9170   -1.9240   -2.9430 c3        1 ALH     -0.077400
     19 CAC         5.4110   -3.1270   -3.7110 c3        1 ALH     -0.080400
     20 CAB         5.5640   -2.9350   -5.1980 c3        1 ALH     -0.092100
     21 HAO        -0.5210    0.2140   -0.2860 ho        1 ALH      0.423000
     22 HAU         1.5920    0.6060    2.5030 ha        1 ALH      0.147000
     23 HAT         4.0750    0.4320    2.3070 ha        1 ALH      0.144000
     24 HAE         3.6960   -0.2920   -1.9490 ha        1 ALH      0.144000
     25 HAF         1.2140   -0.1340   -1.7530 ha        1 ALH      0.147000
     26 HAS         6.0390    1.6540    1.2290 hn        1 ALH      0.312700
     27 HAH        10.8620   -1.0510   -0.8330 h4        1 ALH      0.031100
     28 HAP        10.8790    1.0080    0.6570 h4        1 ALH      0.031100
     29 HAG1        6.3260   -3.0460   -1.1380 hc        1 ALH      0.054200
     30 HAG2        4.6700   -2.3120   -1.2100 hc        1 ALH      0.054200
     31 HAD1        7.0000   -1.7530   -3.1790 hc        1 ALH      0.046700
     32 HAD2        5.3570   -1.0080   -3.2650 hc        1 ALH      0.046700
     33 HAC1        4.3320   -3.3040   -3.4630 hc        1 ALH      0.038200
     34 HAC2        5.9780   -4.0400   -3.3890 hc        1 ALH      0.038200
     35 HAB1        5.1880   -3.8320   -5.7460 hc        1 ALH      0.032367
     36 HAB2        6.6370   -2.7810   -5.4660 hc        1 ALH      0.032367
     37 HAB3        4.9870   -2.0430   -5.5420 hc        1 ALH      0.032367
@<TRIPOS>BOND
     1    1    2 1   
     2    1   21 1   
     3    2    3 ar  
     4    2    7 ar  
     5    3    4 ar  
     6    3   22 1   
     7    4    5 ar  
     8    4   23 1   
     9    5    6 ar  
    10    5    8 1   
    11    6    7 ar  
    12    6   24 1   
    13    7   25 1   
    14    8    9 1   
    15    8   16 2   
    16    9   10 1   
    17    9   26 1   
    18   10   11 ar  
    19   10   12 ar  
    20   11   15 ar  
    21   12   13 ar  
    22   12   16 1   
    23   13   14 ar  
    24   14   15 ar  
    25   14   27 1   
    26   15   28 1   
    27   16   17 1   
    28   17   18 1   
    29   17   29 1   
    30   17   30 1   
    31   18   19 1   
    32   18   31 1   
    33   18   32 1   
    34   19   20 1   
    35   19   33 1   
    36   19   34 1   
    37   20   35 1   
    38   20   36 1   
    39   20   37 1   
@<TRIPOS>SUBSTRUCTURE
     1 ALH         1 TEMP              0 ****  ****    0 ROOT
