@<TRIPOS>MOLECULE
ALI
   26    27     1     0     0
SMALL
bcc


@<TRIPOS>ATOM
      1 C1         -0.4140    0.9820   -0.0020 c3        1 ALI      0.107100
      2 C2          1.0910    0.7770   -0.4100 c3        1 ALI      0.095500
      3 C3          1.7040   -0.1850    0.6330 c3        1 ALI      0.151100
      4 C4          0.6620   -0.3010    1.7690 c3        1 ALI      0.110100
      5 C5         -0.7060    0.0330    1.1530 c3        1 ALI     -0.154700
      6 C6         -1.6530    0.6320    2.1810 c3        1 ALI      0.130400
      7 C7         -0.2130    0.1910   -2.1500 ce        1 ALI      0.766600
      8 C8         -0.1940   -0.9340   -4.2070 c2        1 ALI      0.490100
      9 N2          1.0490    0.2610   -1.7730 n2        1 ALI     -0.639900
     10 N7         -0.8020   -0.1530   -3.3920 ne        1 ALI     -0.625000
     11 O3          2.8920    0.4230    1.1050 oh        1 ALI     -0.593800
     12 O4          0.7050   -1.6230    2.2680 oh        1 ALI     -0.601800
     13 O6         -1.9140   -0.2990    3.2160 oh        1 ALI     -0.604800
     14 O7         -1.1650    0.5980   -1.1770 os        1 ALI     -0.420400
     15 H1         -0.6810    2.0440    0.2140 h1        1 ALI      0.088700
     16 H2          1.6650    1.7440   -0.4040 h1        1 ALI      0.109700
     17 H3          1.9280   -1.2010    0.2090 h1        1 ALI      0.078700
     18 HA          0.9110    0.4240    2.5940 h1        1 ALI      0.059700
     19 H5         -1.1620   -0.9140    0.7500 hc        1 ALI      0.086700
     20 H6C1       -2.6060    0.9550    1.6850 h1        1 ALI      0.057200
     21 H6C2       -1.1870    1.5110    2.7030 h1        1 ALI      0.057200
     22 H8C1       -0.7110   -1.1390   -5.1650 h4        1 ALI      0.007300
     23 H8C2        0.7860   -1.4280   -4.0650 h4        1 ALI      0.007300
     24 HB          3.3150   -0.2190    1.6890 ho        1 ALI      0.414000
     25 H4          0.0440   -1.6660    2.9750 ho        1 ALI      0.420000
     26 H6         -2.4540   -1.0040    2.8370 ho        1 ALI      0.403000
@<TRIPOS>BOND
     1    1    2 1   
     2    1    5 1   
     3    1   14 1   
     4    1   15 1   
     5    2    3 1   
     6    2    9 1   
     7    2   16 1   
     8    3    4 1   
     9    3   11 1   
    10    3   17 1   
    11    4    5 1   
    12    4   12 1   
    13    4   18 1   
    14    5    6 1   
    15    5   19 1   
    16    6   13 1   
    17    6   20 1   
    18    6   21 1   
    19    7    9 2   
    20    7   10 1   
    21    7   14 1   
    22    8   10 2   
    23    8   22 1   
    24    8   23 1   
    25   11   24 1   
    26   12   25 1   
    27   13   26 1   
@<TRIPOS>SUBSTRUCTURE
     1 ALI         1 TEMP              0 ****  ****    0 ROOT
