@<TRIPOS>MOLECULE
ALI
   26    27     1     0     0
SMALL
bcc


@<TRIPOS>ATOM
      1 C1         -0.0340   -0.2970    0.1040 c3        1 ALI      0.110100
      2 C2          1.5120   -0.0270    0.0820 c3        1 ALI      0.059500
      3 C3          2.0070   -0.1200    1.5460 c3        1 ALI      0.148100
      4 C4          0.7480   -0.2430    2.4310 c3        1 ALI      0.154100
      5 C5         -0.4110   -0.6950    1.5240 c3        1 ALI     -0.122700
      6 C6         -1.7310   -0.0730    1.9540 c3        1 ALI      0.136400
      7 C7          1.0680   -1.7570   -1.2880 ce        1 ALI      0.772600
      8 C8          1.9970   -3.6340   -2.3390 c2        1 ALI      0.491100
      9 N2          2.0640   -1.0300   -0.8210 n2        1 ALI     -0.651900
     10 N7          1.0440   -2.7800   -2.2680 ne        1 ALI     -0.623000
     11 O3          2.6570    1.0850    1.9100 oh        1 ALI     -0.593800
     12 O4          1.0220   -1.2110    3.4270 oh        1 ALI     -0.596800
     13 O6         -1.9560   -0.4850    3.2950 oh        1 ALI     -0.614800
     14 O7         -0.2200   -1.4100   -0.8040 os        1 ALI     -0.420400
     15 H1         -0.6420    0.5470   -0.3020 h1        1 ALI      0.085700
     16 H2          1.7440    0.9960   -0.3230 h1        1 ALI      0.095700
     17 H3          2.6850   -1.0000    1.7160 h1        1 ALI      0.080700
     18 HA          0.5170    0.7470    2.9140 h1        1 ALI      0.066700
     19 H5         -0.5070   -1.8150    1.5910 hc        1 ALI      0.099700
     20 H6C1       -2.5620   -0.4340    1.2910 h1        1 ALI      0.033200
     21 H6C2       -1.6810    1.0490    1.9070 h1        1 ALI      0.033200
     22 H8C1        2.8870   -3.7060   -1.6860 h4        1 ALI      0.006800
     23 H8C2        1.9180   -4.3880   -3.1470 h4        1 ALI      0.006800
     24 HB          3.5410    1.0500    1.5250 ho        1 ALI      0.410000
     25 H4          0.2190   -1.2790    3.9620 ho        1 ALI      0.423000
     26 H6         -2.8250   -0.1520    3.5450 ho        1 ALI      0.410000
@<TRIPOS>BOND
     1    1    2 1   
     2    1    5 1   
     3    1   14 1   
     4    1   15 1   
     5    2    3 1   
     6    2    9 1   
     7    2   16 1   
     8    3    4 1   
     9    3   11 1   
    10    3   17 1   
    11    4    5 1   
    12    4   12 1   
    13    4   18 1   
    14    5    6 1   
    15    5   19 1   
    16    6   13 1   
    17    6   20 1   
    18    6   21 1   
    19    7    9 2   
    20    7   10 1   
    21    7   14 1   
    22    8   10 2   
    23    8   22 1   
    24    8   23 1   
    25   11   24 1   
    26   12   25 1   
    27   13   26 1   
@<TRIPOS>SUBSTRUCTURE
     1 ALI         1 TEMP              0 ****  ****    0 ROOT
