@<TRIPOS>MOLECULE
ALI
   26    27     1     0     0
SMALL
bcc


@<TRIPOS>ATOM
      1 C1         -0.0420   -0.3060    0.1040 c3        1 ALI      0.110100
      2 C2          1.5020   -0.0240    0.0740 c3        1 ALI      0.059500
      3 C3          2.0040   -0.1040    1.5360 c3        1 ALI      0.148100
      4 C4          0.7500   -0.2320    2.4270 c3        1 ALI      0.154100
      5 C5         -0.4090   -0.6990    1.5280 c3        1 ALI     -0.122700
      6 C6         -1.7320   -0.0850    1.9600 c3        1 ALI      0.136400
      7 C7          1.0670   -1.7650   -1.2840 ce        1 ALI      0.772600
      8 C8          2.0060   -3.6400   -2.3290 c2        1 ALI      0.491100
      9 N2          2.0590   -1.0270   -0.8260 n2        1 ALI     -0.651900
     10 N7          1.0470   -2.7940   -2.2580 ne        1 ALI     -0.623000
     11 O3          2.6460    1.1080    1.8900 oh        1 ALI     -0.593800
     12 O4          1.0360   -1.1920    3.4270 oh        1 ALI     -0.596800
     13 O6         -1.9480   -0.4910    3.3040 oh        1 ALI     -0.614800
     14 O7         -0.2220   -1.4260   -0.7960 os        1 ALI     -0.420400
     15 H1         -0.6580    0.5300   -0.3040 h1        1 ALI      0.085700
     16 H2          1.7240    0.9990   -0.3390 h1        1 ALI      0.095700
     17 H3          2.6900   -0.9770    1.7080 h1        1 ALI      0.080700
     18 HA          0.5130    0.7580    2.9050 h1        1 ALI      0.066700
     19 H5         -0.4950   -1.8190    1.6020 hc        1 ALI      0.099700
     20 H6C1       -2.5630   -0.4570    1.3030 h1        1 ALI      0.033200
     21 H6C2       -1.6920    1.0370    1.9060 h1        1 ALI      0.033200
     22 H8C1        2.9000   -3.7010   -1.6790 h4        1 ALI      0.006800
     23 H8C2        1.9310   -4.4000   -3.1310 h4        1 ALI      0.006800
     24 HB          3.5280    1.0780    1.5020 ho        1 ALI      0.410000
     25 H4          0.2360   -1.2640    3.9670 ho        1 ALI      0.423000
     26 H6         -2.8190   -0.1640    3.5560 ho        1 ALI      0.410000
@<TRIPOS>BOND
     1    1    2 1   
     2    1    5 1   
     3    1   14 1   
     4    1   15 1   
     5    2    3 1   
     6    2    9 1   
     7    2   16 1   
     8    3    4 1   
     9    3   11 1   
    10    3   17 1   
    11    4    5 1   
    12    4   12 1   
    13    4   18 1   
    14    5    6 1   
    15    5   19 1   
    16    6   13 1   
    17    6   20 1   
    18    6   21 1   
    19    7    9 2   
    20    7   10 1   
    21    7   14 1   
    22    8   10 2   
    23    8   22 1   
    24    8   23 1   
    25   11   24 1   
    26   12   25 1   
    27   13   26 1   
@<TRIPOS>SUBSTRUCTURE
     1 ALI         1 TEMP              0 ****  ****    0 ROOT
