@<TRIPOS>MOLECULE
ALI
   26    27     1     0     0
SMALL
bcc


@<TRIPOS>ATOM
      1 C1         -0.0350   -0.2960    0.1050 c3        1 ALI      0.110100
      2 C2          1.5110   -0.0250    0.0820 c3        1 ALI      0.059500
      3 C3          2.0070   -0.1200    1.5450 c3        1 ALI      0.148100
      4 C4          0.7490   -0.2450    2.4310 c3        1 ALI      0.154100
      5 C5         -0.4100   -0.6960    1.5250 c3        1 ALI     -0.122700
      6 C6         -1.7300   -0.0750    1.9560 c3        1 ALI      0.136400
      7 C7          1.0670   -1.7540   -1.2890 ce        1 ALI      0.772600
      8 C8          1.9960   -3.6300   -2.3430 c2        1 ALI      0.491100
      9 N2          2.0630   -1.0270   -0.8230 n2        1 ALI     -0.651900
     10 N7          1.0430   -2.7770   -2.2700 ne        1 ALI     -0.623000
     11 O3          2.6560    1.0850    1.9100 oh        1 ALI     -0.593800
     12 O4          1.0240   -1.2130    3.4260 oh        1 ALI     -0.596800
     13 O6         -1.9540   -0.4890    3.2980 oh        1 ALI     -0.614800
     14 O7         -0.2210   -1.4090   -0.8030 os        1 ALI     -0.420400
     15 H1         -0.6440    0.5480   -0.3000 h1        1 ALI      0.085700
     16 H2          1.7420    0.9980   -0.3230 h1        1 ALI      0.095700
     17 H3          2.6860   -0.9990    1.7130 h1        1 ALI      0.080700
     18 HA          0.5180    0.7440    2.9160 h1        1 ALI      0.066700
     19 H5         -0.5050   -1.8160    1.5910 hc        1 ALI      0.099700
     20 H6C1       -1.6810    1.0460    1.9110 h1        1 ALI      0.033200
     21 H6C2       -2.5620   -0.4360    1.2940 h1        1 ALI      0.033200
     22 H8C1        2.8860   -3.7030   -1.6900 h4        1 ALI      0.006800
     23 H8C2        1.9170   -4.3840   -3.1510 h4        1 ALI      0.006800
     24 HB          3.5400    1.0510    1.5240 ho        1 ALI      0.410000
     25 H4          0.2220   -1.2820    3.9620 ho        1 ALI      0.423000
     26 H6         -2.8230   -0.1570    3.5490 ho        1 ALI      0.410000
@<TRIPOS>BOND
     1    1    2 1   
     2    1    5 1   
     3    1   14 1   
     4    1   15 1   
     5    2    3 1   
     6    2    9 1   
     7    2   16 1   
     8    3    4 1   
     9    3   11 1   
    10    3   17 1   
    11    4    5 1   
    12    4   12 1   
    13    4   18 1   
    14    5    6 1   
    15    5   19 1   
    16    6   13 1   
    17    6   20 1   
    18    6   21 1   
    19    7    9 2   
    20    7   10 1   
    21    7   14 1   
    22    8   10 2   
    23    8   22 1   
    24    8   23 1   
    25   11   24 1   
    26   12   25 1   
    27   13   26 1   
@<TRIPOS>SUBSTRUCTURE
     1 ALI         1 TEMP              0 ****  ****    0 ROOT
