@<TRIPOS>MOLECULE
ALI
   26    25     1     0     0
SMALL
bcc


@<TRIPOS>ATOM
      1 C1         -0.4450    0.6020   -0.9000 c3        1 ALI      0.120100
      2 C2          1.0630    0.6020   -0.9000 c3        1 ALI      0.115800
      3 C3          1.4350    0.6020    0.4290 c3        1 ALI      0.149100
      4 C4          0.2520   -0.0780    1.2030 c3        1 ALI      0.140100
      5 C5         -0.8860    0.6020    0.5890 c3        1 ALI     -0.117700
      6 C6         -1.4640    1.9990    0.9820 c3        1 ALI      0.136400
      7 C7          0.2910   -1.4360   -1.4870 c1        1 ALI      0.488400
      8 C8          0.2810   -3.7910   -1.8050 c1        1 ALI      0.325300
      9 N2          1.3800   -0.6870   -1.2710 n1        1 ALI     -0.754300
     10 N7          0.2280   -2.7660   -0.9780 n1        1 ALI     -0.437800
     11 O3          1.6180    1.9440    0.8890 oh        1 ALI     -0.598800
     12 O4          0.3850   -1.5110    1.1510 oh        1 ALI     -0.589800
     13 O6         -2.8780    1.9440    0.9710 oh        1 ALI     -0.591800
     14 O7         -0.8200   -0.5270   -1.8470 os        1 ALI     -0.305400
     15 H1         -0.7490    1.4400   -1.3000 h1        1 ALI      0.090700
     16 H2          1.4770    1.2990   -1.4440 h1        1 ALI      0.092700
     17 H3          2.2560    0.0890    0.5490 h1        1 ALI      0.086700
     18 HA          0.3000    0.1950    2.1380 h1        1 ALI      0.062700
     19 H5         -1.6350   -0.0190    0.6580 hc        1 ALI      0.106700
     20 H6C1       -1.1590    2.6690    0.3420 h1        1 ALI      0.025200
     21 H6C2       -1.1550    2.2380    1.8770 h1        1 ALI      0.025200
     22 H8C1        0.3640   -3.6390   -2.7650 DU        1 ALI      0.119000
     23 H8C2        0.2380   -4.7020   -1.4560 ha        1 ALI      0.091500
     24 HB          2.4690    2.0670    1.1100 ho        1 ALI      0.412000
     25 H4          0.3580   -1.8410    1.9750 ho        1 ALI      0.405000
     26 H6         -3.2070    2.7030    1.2920 ho        1 ALI      0.402000
@<TRIPOS>BOND
     1    1    2 1   
     2    1    5 1   
     3    1   14 1   
     4    1   15 1   
     5    2    3 1   
     6    2    9 1   
     7    2   16 1   
     8    3    4 1   
     9    3   11 1   
    10    3   17 1   
    11    4    5 1   
    12    4   12 1   
    13    4   18 1   
    14    5    6 1   
    15    5   19 1   
    16    6   13 1   
    17    6   20 1   
    18    6   21 1   
    19    7    9 3   
    20    7   14 1   
    21    8   10 3   
    22    8   23 1   
    23   11   24 1   
    24   12   25 1   
    25   13   26 1   
@<TRIPOS>SUBSTRUCTURE
     1 ALI         1 TEMP              0 ****  ****    0 ROOT
