@<TRIPOS>MOLECULE
ALJ
   39    40     1     0     0
SMALL
bcc


@<TRIPOS>ATOM
      1 O           0.1710   -0.1180   -0.1220 o         1 ALJ     -0.629500
      2 C           1.4030   -0.0090    0.0260 c         1 ALJ      0.680500
      3 NP          1.9890    0.3780    1.2080 n         1 ALJ     -0.425800
      4 CDP         1.2720    0.2930    2.4780 c3        1 ALJ      0.076000
      5 CGP         2.2770   -0.1520    3.5510 c3        1 ALJ     -0.099400
      6 CBP         3.6450   -0.2030    2.8790 c3        1 ALJ     -0.082400
      7 CAP         3.4290    0.2610    1.4210 c3        1 ALJ      0.023700
      8 CP          4.1490   -0.6500    0.4270 c         1 ALJ      0.689500
      9 OP          5.2100   -1.2350    0.6870 o         1 ALJ     -0.589500
     10 N           3.6090   -0.7720   -0.8480 ns        1 ALJ     -0.598900
     11 CA          2.3370   -0.2070   -1.2000 c3        1 ALJ      0.046700
     12 CB          1.5620   -1.0410   -2.2360 c3        1 ALJ     -0.110400
     13 CG          2.2440   -1.0230   -3.5880 c3        1 ALJ     -0.062400
     14 CD          1.2550   -1.6150   -4.6170 c3        1 ALJ      0.075800
     15 NE          1.7620   -1.6070   -5.9450 n2        1 ALJ     -0.408900
     16 CZ          1.8880   -2.5460   -6.8090 c2        1 ALJ      0.515100
     17 NH1         2.4400   -2.1760   -8.1550 nz        1 ALJ     -0.821100
     18 NH2         1.5450   -4.0030   -6.6660 nz        1 ALJ     -0.821100
     19 HDP1        0.4090   -0.4230    2.3910 h1        1 ALJ      0.076200
     20 HDP2        0.8600    1.3130    2.7110 h1        1 ALJ      0.076200
     21 HGP1        2.2760    0.5740    4.4020 hc        1 ALJ      0.072200
     22 HGP2        1.9960   -1.1550    3.9570 hc        1 ALJ      0.072200
     23 HBP1        4.3720    0.4810    3.3830 hc        1 ALJ      0.081700
     24 HBP2        4.0770   -1.2340    2.9040 hc        1 ALJ      0.081700
     25 HAP         3.8820    1.2900    1.2810 h1        1 ALJ      0.100700
     26 H           4.0580   -1.3720   -1.4970 hn        1 ALJ      0.309500
     27 HA          2.5030    0.8290   -1.6350 h1        1 ALJ      0.074700
     28 HBC1        1.4430   -2.0930   -1.8690 hc        1 ALJ      0.088200
     29 HBC2        0.5310   -0.5920   -2.3110 hc        1 ALJ      0.088200
     30 HGC1        2.5150    0.0280   -3.8740 hc        1 ALJ      0.080200
     31 HGC2        3.1820   -1.6360   -3.5690 hc        1 ALJ      0.080200
     32 HDC1        0.3530   -0.9120   -4.6570 h1        1 ALJ      0.121200
     33 HDC2        0.9060   -2.6230   -4.2530 h1        1 ALJ      0.121200
     34 HH11        1.7550   -2.3750   -8.8990 hn        1 ALJ      0.502967
     35 HH12        3.3220   -2.6770   -8.3380 hn        1 ALJ      0.502967
     36 HH21        1.2240   -4.1790   -5.6970 hn        1 ALJ      0.502967
     37 HH22        0.7810   -4.2700   -7.3060 hn        1 ALJ      0.502967
     38 HH13        2.6420   -1.1530   -8.1690 hn        1 ALJ      0.502967
     39 HH23        2.3650   -4.6030   -6.8380 hn        1 ALJ      0.502967
@<TRIPOS>BOND
     1    1    2 2   
     2    2    3 1   
     3    2   11 1   
     4    3    4 1   
     5    3    7 1   
     6    4    5 1   
     7    4   19 1   
     8    4   20 1   
     9    5    6 1   
    10    5   21 1   
    11    5   22 1   
    12    6    7 1   
    13    6   23 1   
    14    6   24 1   
    15    7    8 1   
    16    7   25 1   
    17    8    9 2   
    18    8   10 1   
    19   10   11 1   
    20   10   26 1   
    21   11   12 1   
    22   11   27 1   
    23   12   13 1   
    24   12   28 1   
    25   12   29 1   
    26   13   14 1   
    27   13   30 1   
    28   13   31 1   
    29   14   15 1   
    30   14   32 1   
    31   14   33 1   
    32   15   16 2   
    33   16   17 1   
    34   16   18 1   
    35   17   34 1   
    36   17   35 1   
    37   17   38 1   
    38   18   36 1   
    39   18   37 1   
    40   18   39 1   
@<TRIPOS>SUBSTRUCTURE
     1 ALJ         1 TEMP              0 ****  ****    0 ROOT
