@<TRIPOS>MOLECULE
ALJ
   37    38     1     0     0
SMALL
bcc


@<TRIPOS>ATOM
      1 O          -2.4080    0.0220    1.6090 o         1 ALJ     -0.615500
      2 C          -1.1970    0.2850    1.7150 c         1 ALJ      0.673500
      3 NP         -0.6020    0.4530    2.9590 n         1 ALJ     -0.442800
      4 CDP        -1.2120   -0.1110    4.1560 c3        1 ALJ      0.076000
      5 CGP        -0.0890   -0.6760    5.0400 c3        1 ALJ     -0.098400
      6 CBP         1.2260   -0.2990    4.3670 c3        1 ALJ     -0.082400
      7 CAP         0.8500    0.4960    3.0960 c3        1 ALJ      0.021700
      8 CP          1.6310   -0.0040    1.8750 c         1 ALJ      0.685500
      9 OP          2.7900   -0.4480    1.9780 o         1 ALJ     -0.632500
     10 N           1.0330    0.0990    0.6400 n         1 ALJ     -0.571900
     11 CA         -0.3230    0.5590    0.4700 c3        1 ALJ      0.044700
     12 CB         -1.0160   -0.0400   -0.7620 c3        1 ALJ     -0.092400
     13 CG         -0.3740    0.4190   -2.0520 c3        1 ALJ     -0.096400
     14 CD         -1.2600    0.0260   -3.2400 c3        1 ALJ      0.129800
     15 NE         -0.7980    0.4480   -4.5260 n2        1 ALJ     -0.717900
     16 CZ          0.1800   -0.1650   -5.1620 c2        1 ALJ      0.748100
     17 NH1         0.6620    0.4050   -6.3890 nh        1 ALJ     -0.905300
     18 NH2         0.8090   -1.3840   -4.7670 nh        1 ALJ     -0.905300
     19 HDP1       -1.9620   -0.9020    3.8800 h1        1 ALJ      0.065200
     20 HDP2       -1.7590    0.7160    4.6890 h1        1 ALJ      0.065200
     21 HGP1       -0.1850   -1.7860    5.1270 hc        1 ALJ      0.057200
     22 HGP2       -0.1520   -0.2440    6.0680 hc        1 ALJ      0.057200
     23 HBP1        1.8250   -1.2040    4.0980 hc        1 ALJ      0.071200
     24 HBP2        1.8550    0.3400    5.0330 hc        1 ALJ      0.071200
     25 HAP         1.1480    1.5800    3.2270 h1        1 ALJ      0.086700
     26 H           1.5100   -0.2440   -0.1610 hn        1 ALJ      0.329500
     27 HA         -0.3060    1.6890    0.3480 h1        1 ALJ      0.073700
     28 HBC1       -2.0910    0.2870   -0.7330 hc        1 ALJ      0.073200
     29 HBC2       -1.0110   -1.1590   -0.7010 hc        1 ALJ      0.073200
     30 HGC1        0.6440   -0.0370   -2.1650 hc        1 ALJ      0.041700
     31 HGC2       -0.2390    1.5320   -2.0370 hc        1 ALJ      0.041700
     32 HDC1       -2.2590    0.5380   -3.1130 h1        1 ALJ      0.047700
     33 HDC2       -1.4520   -1.0860   -3.1850 h1        1 ALJ      0.047700
     34 HH11        0.7230   -0.2700   -7.1240 hn        1 ALJ      0.395050
     35 HH12        0.1310    1.2030   -6.6750 hn        1 ALJ      0.395050
     36 HH21        1.7000   -1.5600   -5.1760 hn        1 ALJ      0.395050
     37 HH22        0.8040   -1.5380   -3.7830 hn        1 ALJ      0.395050
@<TRIPOS>BOND
     1    1    2 2   
     2    2    3 1   
     3    2   11 1   
     4    3    4 1   
     5    3    7 1   
     6    4    5 1   
     7    4   19 1   
     8    4   20 1   
     9    5    6 1   
    10    5   21 1   
    11    5   22 1   
    12    6    7 1   
    13    6   23 1   
    14    6   24 1   
    15    7    8 1   
    16    7   25 1   
    17    8    9 2   
    18    8   10 1   
    19   10   11 1   
    20   10   26 1   
    21   11   12 1   
    22   11   27 1   
    23   12   13 1   
    24   12   28 1   
    25   12   29 1   
    26   13   14 1   
    27   13   30 1   
    28   13   31 1   
    29   14   15 1   
    30   14   32 1   
    31   14   33 1   
    32   15   16 2   
    33   16   17 1   
    34   16   18 1   
    35   17   34 1   
    36   17   35 1   
    37   18   36 1   
    38   18   37 1   
@<TRIPOS>SUBSTRUCTURE
     1 ALJ         1 TEMP              0 ****  ****    0 ROOT
