@<TRIPOS>MOLECULE
ALJ
   39    40     1     0     0
SMALL
bcc


@<TRIPOS>ATOM
      1 O           0.1630   -0.1440   -0.1190 o         1 ALJ     -0.629500
      2 C           1.3940   -0.0210    0.0280 c         1 ALJ      0.680500
      3 NP          1.9760    0.3700    1.2110 n         1 ALJ     -0.425800
      4 CDP         1.2610    0.2740    2.4810 c3        1 ALJ      0.076000
      5 CGP         2.2730   -0.1610    3.5520 c3        1 ALJ     -0.099400
      6 CBP         3.6410   -0.1950    2.8790 c3        1 ALJ     -0.082400
      7 CAP         3.4180    0.2700    1.4220 c3        1 ALJ      0.023700
      8 CP          4.1470   -0.6310    0.4250 c         1 ALJ      0.689500
      9 OP          5.2160   -1.2030    0.6830 o         1 ALJ     -0.589500
     10 N           3.6070   -0.7570   -0.8500 n         1 ALJ     -0.598900
     11 CA          2.3280   -0.2060   -1.1990 c3        1 ALJ      0.046700
     12 CB          1.5610   -1.0470   -2.2360 c3        1 ALJ     -0.110400
     13 CG          2.2420   -1.0200   -3.5880 c3        1 ALJ     -0.062400
     14 CD          1.2580   -1.6200   -4.6170 c3        1 ALJ      0.075800
     15 NE          1.7640   -1.6070   -5.9450 n2        1 ALJ     -0.408900
     16 CZ          1.8990   -2.5440   -6.8100 c2        1 ALJ      0.515100
     17 NH1         2.4470   -2.1680   -8.1550 n4        1 ALJ     -0.821100
     18 NH2         1.5680   -4.0030   -6.6680 n4        1 ALJ     -0.821100
     19 HDP1        0.8380    1.2900    2.7170 h1        1 ALJ      0.076200
     20 HDP2        0.4060   -0.4510    2.3940 h1        1 ALJ      0.076200
     21 HGP1        2.2640    0.5620    4.4050 hc        1 ALJ      0.072200
     22 HGP2        2.0040   -1.1680    3.9560 hc        1 ALJ      0.072200
     23 HBP1        4.3600    0.4970    3.3840 hc        1 ALJ      0.081700
     24 HBP2        4.0840   -1.2220    2.9000 hc        1 ALJ      0.081700
     25 HAP         3.8580    1.3050    1.2840 h1        1 ALJ      0.100700
     26 H           4.0630   -1.3490   -1.5010 hn        1 ALJ      0.309500
     27 HA          2.4820    0.8330   -1.6330 h1        1 ALJ      0.074700
     28 HBC1        0.5260   -0.6100   -2.3090 hc        1 ALJ      0.088200
     29 HBC2        1.4540   -2.1010   -1.8700 hc        1 ALJ      0.088200
     30 HGC1        2.5030    0.0340   -3.8720 hc        1 ALJ      0.080200
     31 HGC2        3.1860   -1.6240   -3.5700 hc        1 ALJ      0.080200
     32 HDC1        0.9180   -2.6320   -4.2540 h1        1 ALJ      0.120700
     33 HDC2        0.3490   -0.9260   -4.6570 h1        1 ALJ      0.120700
     34 HH11        1.7640   -2.3720   -8.9000 hn        1 ALJ      0.502967
     35 HH12        2.6410   -1.1430   -8.1690 hn        1 ALJ      0.502967
     36 HH21        1.2490   -4.1840   -5.6990 hn        1 ALJ      0.502967
     37 HH22        2.3940   -4.5960   -6.8410 hn        1 ALJ      0.502967
     38 HH13        3.3330   -2.6620   -8.3390 hn        1 ALJ      0.502967
     39 HH23        0.8070   -4.2780   -7.3080 hn        1 ALJ      0.502967
@<TRIPOS>BOND
     1    1    2 2   
     2    2    3 1   
     3    2   11 1   
     4    3    4 1   
     5    3    7 1   
     6    4    5 1   
     7    4   19 1   
     8    4   20 1   
     9    5    6 1   
    10    5   21 1   
    11    5   22 1   
    12    6    7 1   
    13    6   23 1   
    14    6   24 1   
    15    7    8 1   
    16    7   25 1   
    17    8    9 2   
    18    8   10 1   
    19   10   11 1   
    20   10   26 1   
    21   11   12 1   
    22   11   27 1   
    23   12   13 1   
    24   12   28 1   
    25   12   29 1   
    26   13   14 1   
    27   13   30 1   
    28   13   31 1   
    29   14   15 1   
    30   14   32 1   
    31   14   33 1   
    32   15   16 2   
    33   16   17 1   
    34   16   18 1   
    35   17   34 1   
    36   17   35 1   
    37   17   38 1   
    38   18   36 1   
    39   18   37 1   
    40   18   39 1   
@<TRIPOS>SUBSTRUCTURE
     1 ALJ         1 TEMP              0 ****  ****    0 ROOT
