@<TRIPOS>MOLECULE
ALJ
   39    40     1     0     0
SMALL
bcc


@<TRIPOS>ATOM
      1 O           0.1700   -0.1130   -0.1270 o         1 ALJ     -0.629500
      2 C           1.4030   -0.0060    0.0210 c         1 ALJ      0.680500
      3 NP          1.9880    0.3820    1.2030 n         1 ALJ     -0.425800
      4 CDP         1.2700    0.3000    2.4730 c3        1 ALJ      0.076000
      5 CGP         2.2740   -0.1440    3.5470 c3        1 ALJ     -0.099400
      6 CBP         3.6430   -0.1990    2.8760 c3        1 ALJ     -0.082400
      7 CAP         3.4280    0.2630    1.4170 c3        1 ALJ      0.023700
      8 CP          4.1460   -0.6510    0.4250 c         1 ALJ      0.689500
      9 OP          5.2070   -1.2370    0.6870 o         1 ALJ     -0.589500
     10 N           3.6080   -0.7740   -0.8500 n         1 ALJ     -0.598900
     11 CA          2.3370   -0.2080   -1.2040 c3        1 ALJ      0.046700
     12 CB          1.5600   -1.0410   -2.2390 c3        1 ALJ     -0.110400
     13 CG          2.2430   -1.0260   -3.5910 c3        1 ALJ     -0.062400
     14 CD          1.2540   -1.6180   -4.6190 c3        1 ALJ      0.075800
     15 NE          1.7610   -1.6130   -5.9470 n2        1 ALJ     -0.408900
     16 CZ          1.8870   -2.5520   -6.8100 c2        1 ALJ      0.515100
     17 NH1         2.4390   -2.1840   -8.1560 n4        1 ALJ     -0.821100
     18 NH2         1.5420   -4.0080   -6.6660 n4        1 ALJ     -0.821100
     19 HDP1        0.8590    1.3210    2.7040 h1        1 ALJ      0.076200
     20 HDP2        0.4060   -0.4150    2.3870 h1        1 ALJ      0.076200
     21 HGP1        1.9910   -1.1460    3.9550 hc        1 ALJ      0.072200
     22 HGP2        2.2740    0.5820    4.3970 hc        1 ALJ      0.072200
     23 HBP1        4.0720   -1.2310    2.9030 hc        1 ALJ      0.081700
     24 HBP2        4.3700    0.4850    3.3800 hc        1 ALJ      0.081700
     25 HAP         3.8820    1.2920    1.2760 h1        1 ALJ      0.100700
     26 H           4.0560   -1.3760   -1.4980 hn        1 ALJ      0.309500
     27 HA          2.5050    0.8270   -1.6400 h1        1 ALJ      0.074700
     28 HBC1        0.5300   -0.5910   -2.3150 hc        1 ALJ      0.088200
     29 HBC2        1.4400   -2.0930   -1.8710 hc        1 ALJ      0.088200
     30 HGC1        2.5160    0.0240   -3.8770 hc        1 ALJ      0.080200
     31 HGC2        3.1800   -1.6400   -3.5700 hc        1 ALJ      0.080200
     32 HDC1        0.3520   -0.9150   -4.6600 h1        1 ALJ      0.121200
     33 HDC2        0.9040   -2.6260   -4.2540 h1        1 ALJ      0.121200
     34 HH11        1.7540   -2.3830   -8.9000 hn        1 ALJ      0.502967
     35 HH12        2.6430   -1.1610   -8.1710 hn        1 ALJ      0.502967
     36 HH21        1.2210   -4.1840   -5.6960 hn        1 ALJ      0.502967
     37 HH22        2.3630   -4.6090   -6.8370 hn        1 ALJ      0.502967
     38 HH13        3.3210   -2.6860   -8.3380 hn        1 ALJ      0.502967
     39 HH23        0.7780   -4.2760   -7.3050 hn        1 ALJ      0.502967
@<TRIPOS>BOND
     1    1    2 2   
     2    2    3 1   
     3    2   11 1   
     4    3    4 1   
     5    3    7 1   
     6    4    5 1   
     7    4   19 1   
     8    4   20 1   
     9    5    6 1   
    10    5   21 1   
    11    5   22 1   
    12    6    7 1   
    13    6   23 1   
    14    6   24 1   
    15    7    8 1   
    16    7   25 1   
    17    8    9 2   
    18    8   10 1   
    19   10   11 1   
    20   10   26 1   
    21   11   12 1   
    22   11   27 1   
    23   12   13 1   
    24   12   28 1   
    25   12   29 1   
    26   13   14 1   
    27   13   30 1   
    28   13   31 1   
    29   14   15 1   
    30   14   32 1   
    31   14   33 1   
    32   15   16 2   
    33   16   17 1   
    34   16   18 1   
    35   17   34 1   
    36   17   35 1   
    37   17   38 1   
    38   18   36 1   
    39   18   37 1   
    40   18   39 1   
@<TRIPOS>SUBSTRUCTURE
     1 ALJ         1 TEMP              0 ****  ****    0 ROOT
