@<TRIPOS>MOLECULE
ALJ
   37    36     1     0     0
SMALL
bcc


@<TRIPOS>ATOM
      1 O          -2.4610    2.1110    0.8670 o         1 ALJ     -0.344000
      2 C          -1.2480    2.1000    0.9150 c1        1 ALJ      0.281000
      3 NP         -0.6020    2.0660    2.1420 n2        1 ALJ     -0.302000
      4 CDP        -0.6000    1.0620    3.4080 c3        1 ALJ     -0.039000
      5 CGP         0.6120    1.0370    3.8270 c3        1 ALJ     -0.177000
      6 CBP         1.2360    2.3950    3.4390 c3        1 ALJ     -0.161000
      7 CAP         0.6600    2.7240    2.1600 c3        1 ALJ     -0.006000
      8 CP          1.5310    2.3350    1.1630 c2        1 ALJ      0.292000
      9 OP          2.7350    2.4440    1.3280 o         1 ALJ     -0.357000
     10 N           0.9820    2.3820   -0.1600 n         1 ALJ     -0.380000
     11 CA         -0.3530    1.4990   -0.3950 c3        1 ALJ      0.020000
     12 CB         -0.1740    0.1930   -0.4080 c3        1 ALJ     -0.174000
     13 CG         -0.0500   -0.2970   -1.8690 c3        1 ALJ     -0.151000
     14 CD         -0.4910   -1.7750   -1.9570 c3        1 ALJ     -0.066000
     15 NE          0.0430   -2.3660   -3.1650 n2        1 ALJ     -0.303000
     16 CZ         -0.3650   -3.5630   -3.5510 c1        1 ALJ      0.147000
     17 NH1        -1.3310   -4.2710   -2.7770 n2        1 ALJ     -0.361000
     18 NH2         0.1630   -4.1470   -4.7460 n3        1 ALJ     -0.317000
     19 HDP1       -0.8790    0.1680    3.1300 h1        1 ALJ      0.103500
     20 HDP2       -1.1930    1.4000    4.1080 h1        1 ALJ      0.103500
     21 HGP1        0.6290    0.9270    4.7970 hc        1 ALJ      0.096000
     22 HGP2        1.1010    0.3090    3.3980 hc        1 ALJ      0.096000
     23 HBP1        2.1920    2.2350    3.2870 hc        1 ALJ      0.111000
     24 HBP2        0.9000    3.0560    4.0810 hc        1 ALJ      0.111000
     25 HAP         0.5200    3.6910    2.1070 h1        1 ALJ      0.125000
     26 H           1.5140    2.6030   -0.8680 hn        1 ALJ      0.248000
     27 HA         -0.7770    1.6620   -1.2580 h1        1 ALJ      0.112000
     28 HBC1       -0.9360   -0.2440    0.0180 hc        1 ALJ      0.109500
     29 HBC2        0.6430   -0.0280    0.0800 hc        1 ALJ      0.109500
     30 HGC1        0.8800   -0.2160   -2.1610 hc        1 ALJ      0.091500
     31 HGC2       -0.6180    0.2460   -2.4420 hc        1 ALJ      0.091500
     32 HDC1       -1.4700   -1.8230   -1.9750 h1        1 ALJ      0.067500
     33 HDC2       -0.1550   -2.2620   -1.1800 h1        1 ALJ      0.067500
     34 HH11       -1.1910   -4.4060   -1.8830 hn        1 ALJ      0.190000
     35 HH12       -2.0890   -4.5980   -3.1780 hn        1 ALJ      0.190000
     36 HH21        0.9040   -3.7880   -5.1420 hn        1 ALJ      0.187000
     37 HH22       -0.2660   -4.8640   -5.1370 hn        1 ALJ      0.187000
@<TRIPOS>BOND
     1    1    2 1   
     2    2   11 1   
     3    3    4 1   
     4    3    7 1   
     5    4    5 1   
     6    4   19 1   
     7    4   20 1   
     8    5    6 1   
     9    5   21 1   
    10    5   22 1   
    11    6    7 1   
    12    6   23 1   
    13    6   24 1   
    14    7    8 1   
    15    7   25 1   
    16    8    9 1   
    17    8   10 1   
    18   10   11 1   
    19   10   26 1   
    20   11   12 1   
    21   11   27 1   
    22   12   13 1   
    23   12   28 1   
    24   12   29 1   
    25   13   14 1   
    26   13   30 1   
    27   13   31 1   
    28   14   15 1   
    29   14   32 1   
    30   14   33 1   
    31   15   16 1   
    32   16   18 1   
    33   17   34 1   
    34   17   35 1   
    35   18   36 1   
    36   18   37 1   
@<TRIPOS>SUBSTRUCTURE
     1 ALJ         1 TEMP              0 ****  ****    0 ROOT
