@<TRIPOS>MOLECULE
ALL
   24    24     1     0     0
SMALL
bcc


@<TRIPOS>ATOM
      1 C1'        -0.8290    0.2640   -1.4790 c3        1 ALL      0.296900
      2 C2'         0.6860    0.2790   -1.4700 c3        1 ALL      0.102100
      3 C3'         1.2480    0.3000   -0.0760 c3        1 ALL      0.125100
      4 C4'         0.6790   -0.7760    0.7750 c3        1 ALL      0.078100
      5 C5'        -0.8400   -0.7860    0.7540 c3        1 ALL      0.116100
      6 C6'        -1.3310    0.4180    1.4480 c3        1 ALL      0.103400
      7 O1'        -1.2900    1.4910   -1.0310 oh        1 ALL     -0.624800
      8 O2'         1.1580   -0.8760   -2.1330 oh        1 ALL     -0.590800
      9 O3'         2.6760    0.1300   -0.1480 oh        1 ALL     -0.580800
     10 O4'         1.1580   -2.0460    0.2960 oh        1 ALL     -0.613800
     11 O5'        -1.3900   -0.8030   -0.6220 os        1 ALL     -0.442600
     12 O6'        -1.7970    0.0600    2.7630 oh        1 ALL     -0.606800
     13 H1'        -1.1420    0.1250   -2.4100 h2        1 ALL      0.087700
     14 H2'         0.9980    1.0680   -1.9480 h1        1 ALL      0.107700
     15 H3'         1.0440    1.2030    0.3520 h1        1 ALL      0.096700
     16 H4'         0.9950   -0.6430    1.7300 h1        1 ALL      0.078700
     17 H5'        -1.1470   -1.5530    1.2160 h1        1 ALL      0.087700
     18 H6'1       -2.0870    0.8220    0.9230 h1        1 ALL      0.041700
     19 H6'2       -0.5920    1.0790    1.5280 h1        1 ALL      0.041700
     20 HO'1       -1.6720    1.9310   -1.7080 ho        1 ALL      0.419000
     21 HO'2        1.4640   -0.6530   -2.9370 ho        1 ALL      0.425000
     22 HO'3        3.0620    0.8440    0.1190 ho        1 ALL      0.424000
     23 HO'4        1.2730   -2.5920    0.9760 ho        1 ALL      0.416000
     24 HO'6       -2.3240    0.7150    3.0830 ho        1 ALL      0.409000
@<TRIPOS>BOND
     1    1    2 1   
     2    1    7 1   
     3    1   11 1   
     4    1   13 1   
     5    2    3 1   
     6    2    8 1   
     7    2   14 1   
     8    3    4 1   
     9    3    9 1   
    10    3   15 1   
    11    4    5 1   
    12    4   10 1   
    13    4   16 1   
    14    5    6 1   
    15    5   11 1   
    16    5   17 1   
    17    6   12 1   
    18    6   18 1   
    19    6   19 1   
    20    7   20 1   
    21    8   21 1   
    22    9   22 1   
    23   10   23 1   
    24   12   24 1   
@<TRIPOS>SUBSTRUCTURE
     1 ALL         1 TEMP              0 ****  ****    0 ROOT
