@<TRIPOS>MOLECULE
ALL
   24    24     1     0     0
SMALL
bcc


@<TRIPOS>ATOM
      1 C1'         1.1220    0.3650   -0.8330 c3        1 ALL      0.312900
      2 C2'         0.1020   -0.4940   -1.6100 c3        1 ALL      0.055100
      3 C3'        -1.2820   -0.3930   -0.9540 c3        1 ALL      0.113100
      4 C4'        -1.1740   -0.7120    0.5480 c3        1 ALL      0.125100
      5 C5'        -0.0840    0.1510    1.2060 c3        1 ALL      0.077100
      6 C6'         0.1610   -0.2810    2.6540 c3        1 ALL      0.137400
      7 O1'         2.4320    0.1360   -1.2750 oh        1 ALL     -0.596800
      8 O2'        -0.0420   -0.0120   -2.9350 oh        1 ALL     -0.601800
      9 O3'        -1.8060    0.9220   -1.0560 oh        1 ALL     -0.613800
     10 O4'        -2.4150   -0.5260    1.1920 oh        1 ALL     -0.584800
     11 O5'         1.1670   -0.0180    0.5330 os        1 ALL     -0.458600
     12 O6'         0.9690    0.6510    3.3350 oh        1 ALL     -0.593800
     13 H1'         0.9110    1.4630   -0.9600 h2        1 ALL      0.094700
     14 H2'         0.4400   -1.5660   -1.6290 h1        1 ALL      0.056700
     15 H3'        -1.9900   -1.1130   -1.4500 h1        1 ALL      0.067700
     16 H4'        -0.9380   -1.8050    0.6800 h1        1 ALL      0.087700
     17 H5'        -0.3820    1.2360    1.1630 h1        1 ALL      0.074700
     18 H6'1        0.6310   -1.3000    2.6750 h1        1 ALL      0.063700
     19 H6'2       -0.8180   -0.2920    3.2040 h1        1 ALL      0.063700
     20 HO'1        2.7610   -0.6670   -0.8470 ho        1 ALL      0.427000
     21 HO'2        0.8520    0.0950   -3.2890 ho        1 ALL      0.426000
     22 HO'3       -1.8130    1.1460   -1.9970 ho        1 ALL      0.433000
     23 HO'4       -2.7150    0.3720    0.9900 ho        1 ALL      0.423000
     24 HO'6        1.8050    0.7070    2.8550 ho        1 ALL      0.411000
@<TRIPOS>BOND
     1    1    2 1   
     2    1    7 1   
     3    1   11 1   
     4    1   13 1   
     5    2    3 1   
     6    2    8 1   
     7    2   14 1   
     8    3    4 1   
     9    3    9 1   
    10    3   15 1   
    11    4    5 1   
    12    4   10 1   
    13    4   16 1   
    14    5    6 1   
    15    5   11 1   
    16    5   17 1   
    17    6   12 1   
    18    6   18 1   
    19    6   19 1   
    20    7   20 1   
    21    8   21 1   
    22    9   22 1   
    23   10   23 1   
    24   12   24 1   
@<TRIPOS>SUBSTRUCTURE
     1 ALL         1 TEMP              0 ****  ****    0 ROOT
