@<TRIPOS>MOLECULE
ALM
   15    14     1     0     0
SMALL
bcc


@<TRIPOS>ATOM
      1 N          -0.8430    0.6710    1.5120 n3        1 ALM     -0.898800
      2 CA          0.2920    0.3530    0.6680 c3        1 ALM      0.066500
      3 C          -0.1430   -0.1040   -0.7260 c         1 ALM      0.571100
      4 O          -1.0670   -0.9050   -0.8900 o         1 ALM     -0.530100
      5 CB          1.2490   -0.7100    1.2150 c3        1 ALM     -0.130100
      6 CM          0.6430    0.4750   -1.8540 c3        1 ALM     -0.200100
      7 H          -0.5640    0.6830    2.4730 hn        1 ALM      0.357800
      8 H2         -1.5750   -0.0050    1.3910 hn        1 ALM      0.357800
      9 HA          0.8740    1.3180    0.5550 h1        1 ALM      0.069700
     10 HB1         1.6440   -0.4000    2.2120 hc        1 ALM      0.045700
     11 HB2         0.7290   -1.6920    1.3240 hc        1 ALM      0.045700
     12 HB3         2.1110   -0.8370    0.5170 hc        1 ALM      0.045700
     13 HM1         0.3830   -0.0260   -2.8180 hc        1 ALM      0.066700
     14 HM2         0.4130    1.5660   -1.9410 hc        1 ALM      0.066700
     15 HM3         1.7360    0.3530   -1.6610 hc        1 ALM      0.066700
@<TRIPOS>BOND
     1    1    2 1   
     2    1    7 1   
     3    1    8 1   
     4    2    3 1   
     5    2    5 1   
     6    2    9 1   
     7    3    4 2   
     8    3    6 1   
     9    5   10 1   
    10    5   11 1   
    11    5   12 1   
    12    6   13 1   
    13    6   14 1   
    14    6   15 1   
@<TRIPOS>SUBSTRUCTURE
     1 ALM         1 TEMP              0 ****  ****    0 ROOT
