@<TRIPOS>MOLECULE
ALM
   15    14     1     0     0
SMALL
bcc


@<TRIPOS>ATOM
      1 N          -1.7920    0.1090   -0.4670 n3        1 ALM     -0.898800
      2 CA         -0.3500   -0.0140   -0.4680 c3        1 ALM      0.066500
      3 C           0.1580    0.0080    0.9500 c         1 ALM      0.571100
      4 O          -0.1750    0.8820    1.6910 o         1 ALM     -0.530100
      5 CB          0.2620    1.1520   -1.2480 c3        1 ALM     -0.130100
      6 CM          1.1120   -1.0760    1.4340 c3        1 ALM     -0.200100
      7 H          -2.1590   -0.6130   -0.0330 hn        1 ALM      0.357800
      8 H2         -2.0980    0.1330   -1.3320 hn        1 ALM      0.357800
      9 HA         -0.0950   -0.8600   -0.8930 h1        1 ALM      0.069700
     10 HB1         1.2370    1.1850   -1.0810 hc        1 ALM      0.045700
     11 HB2        -0.1520    2.0010   -0.9520 hc        1 ALM      0.045700
     12 HB3         0.0990    1.0250   -2.2090 hc        1 ALM      0.045700
     13 HM1         1.4610   -0.8350    2.3180 hc        1 ALM      0.066700
     14 HM2         1.8600   -1.1630    0.7980 hc        1 ALM      0.066700
     15 HM3         0.6320   -1.9340    1.4940 hc        1 ALM      0.066700
@<TRIPOS>BOND
     1    1    2 1   
     2    1    7 1   
     3    1    8 1   
     4    2    3 1   
     5    2    5 1   
     6    2    9 1   
     7    3    4 2   
     8    3    6 1   
     9    5   10 1   
    10    5   11 1   
    11    5   12 1   
    12    6   13 1   
    13    6   14 1   
    14    6   15 1   
@<TRIPOS>SUBSTRUCTURE
     1 ALM         1 TEMP              0 ****  ****    0 ROOT
