@<TRIPOS>MOLECULE
ALN
   28    29     1     0     0
SMALL
bcc


@<TRIPOS>ATOM
      1 N           1.4190    1.0260    2.5550 n3        1 ALN     -0.884800
      2 CA          0.2730    0.4100    1.8980 c3        1 ALN      0.020500
      3 C          -0.9030    0.0380    2.8610 c         1 ALN      0.886600
      4 O          -0.7710    0.2830    4.0920 o         1 ALN     -0.841300
      5 CB          0.6510   -0.8390    1.0860 c3        1 ALN     -0.036100
      6 CG1         0.9640   -0.5270   -0.3360 ca        1 ALN     -0.013300
      7 CD1         2.2700   -0.5570   -0.7830 ca        1 ALN     -0.156000
      8 CE1         2.5850   -0.3020   -2.1360 ca        1 ALN     -0.122000
      9 CD2        -0.0880   -0.2210   -1.2590 ca        1 ALN     -0.041000
     10 CE2         0.2340    0.0230   -2.6200 ca        1 ALN     -0.034000
     11 CZ1         1.5910   -0.0230   -3.0400 ca        1 ALN     -0.153000
     12 CG2        -1.4520   -0.1510   -0.8530 ca        1 ALN     -0.097000
     13 CD3        -2.4370    0.1340   -1.7680 ca        1 ALN     -0.158000
     14 CE3        -2.1140    0.3650   -3.1260 ca        1 ALN     -0.129000
     15 CZ2        -0.8080    0.3140   -3.5430 ca        1 ALN     -0.150000
     16 OXT        -1.9360   -0.4720    2.3390 o         1 ALN     -0.841300
     17 H           1.8180    0.3540    3.1880 hn        1 ALN      0.330800
     18 H2          1.0650    1.7730    3.1290 hn        1 ALN      0.330800
     19 HA         -0.1440    1.1830    1.1870 h1        1 ALN      0.051700
     20 HB2         1.5230   -1.3670    1.5570 hc        1 ALN      0.057700
     21 HB3        -0.2220   -1.5500    1.1220 hc        1 ALN      0.057700
     22 HD1         3.0860   -0.7730   -0.0780 ha        1 ALN      0.129000
     23 HE1         3.6380   -0.3300   -2.4520 ha        1 ALN      0.112000
     24 HZ1         1.8240    0.1720   -4.0960 ha        1 ALN      0.113000
     25 HG2        -1.7090   -0.3150    0.2190 ha        1 ALN      0.216000
     26 HD3        -3.4870    0.1890   -1.4490 ha        1 ALN      0.129000
     27 HE3        -2.9210    0.5900   -3.8380 ha        1 ALN      0.111000
     28 HZ2        -0.5420    0.4970   -4.5940 ha        1 ALN      0.112000
@<TRIPOS>BOND
     1    1    2 1   
     2    1   17 1   
     3    1   18 1   
     4    2    3 1   
     5    2    5 1   
     6    2   19 1   
     7    3    4 1   
     8    3   16 1   
     9    5    6 1   
    10    5   20 1   
    11    5   21 1   
    12    6    7 ar  
    13    6    9 ar  
    14    7    8 ar  
    15    7   22 1   
    16    8   11 ar  
    17    8   23 1   
    18    9   10 ar  
    19    9   12 ar  
    20   10   11 ar  
    21   10   15 ar  
    22   11   24 1   
    23   12   13 ar  
    24   12   25 1   
    25   13   14 ar  
    26   13   26 1   
    27   14   15 ar  
    28   14   27 1   
    29   15   28 1   
@<TRIPOS>SUBSTRUCTURE
     1 ALN         1 TEMP              0 ****  ****    0 ROOT
