@<TRIPOS>MOLECULE
ALO
   16    15     1     0     0
SMALL
bcc


@<TRIPOS>ATOM
      1 N           1.9290   -0.3370    0.4320 n3        1 ALO     -0.884800
      2 CA          0.4960   -0.4520    0.1990 c3        1 ALO     -0.014500
      3 CB         -0.3540    0.2040    1.3100 c3        1 ALO      0.173100
      4 CG2         0.1710   -0.0750    2.7080 c3        1 ALO     -0.081100
      5 OG1        -1.6840   -0.2960    1.2810 oh        1 ALO     -0.654800
      6 C           0.0320    0.1080   -1.1850 c         1 ALO      0.884600
      7 O           0.9130    0.5070   -1.9970 o         1 ALO     -0.843300
      8 OXT        -1.2100    0.1170   -1.4270 o         1 ALO     -0.843300
      9 H           2.1440    0.6270    0.6170 hn        1 ALO      0.332300
     10 H2          2.3890   -0.5680   -0.4350 hn        1 ALO      0.332300
     11 HA          0.2550   -1.5550    0.1960 h1        1 ALO      0.053700
     12 HB         -0.3860    1.3170    1.1320 h1        1 ALO      0.018700
     13 HG21       -0.6030    0.1970    3.4650 hc        1 ALO      0.025700
     14 HG22        0.4140   -1.1580    2.8200 hc        1 ALO      0.025700
     15 HG23        1.0920    0.5240    2.8990 hc        1 ALO      0.025700
     16 HG1        -1.9820   -0.2580    0.3560 ho        1 ALO      0.451000
@<TRIPOS>BOND
     1    1    2 1   
     2    1    9 1   
     3    1   10 1   
     4    2    3 1   
     5    2    6 1   
     6    2   11 1   
     7    3    4 1   
     8    3    5 1   
     9    3   12 1   
    10    4   13 1   
    11    4   14 1   
    12    4   15 1   
    13    5   16 1   
    14    6    7 1   
    15    6    8 1   
@<TRIPOS>SUBSTRUCTURE
     1 ALO         1 TEMP              0 ****  ****    0 ROOT
