@<TRIPOS>MOLECULE
ALP
   29    29     1     0     0
SMALL
bcc


@<TRIPOS>ATOM
      1 C1          1.6490   -1.0540   -0.2200 c         1 ALP      0.921600
      2 O1          1.5120   -2.0440    0.5700 o         1 ALP     -0.855300
      3 O2          1.5050   -1.1670   -1.4680 o         1 ALP     -0.855300
      4 C2          1.9660    0.2990    0.4570 c3        1 ALP     -0.212700
      5 C21         0.7550    0.7020    1.3000 c3        1 ALP      0.161400
      6 O22         0.5760   -0.1310    2.4310 oh        1 ALP     -0.669800
      7 C3          2.3780    1.4730   -0.4170 c3        1 ALP      0.375600
      8 S4          4.2020    1.3220   -0.8560 ss        1 ALP     -0.568200
      9 C5          3.9570    2.0320   -2.5030 c3        1 ALP      0.077100
     10 C51         4.8830    3.2050   -2.6940 c3        1 ALP     -0.078100
     11 C52         4.2410    0.9450   -3.5150 c3        1 ALP     -0.078100
     12 C6          2.4560    2.4580   -2.5810 c3        1 ALP      0.058500
     13 C8          2.3090    4.0100   -2.4490 c         1 ALP      0.927600
     14 O81         2.3580    4.5760   -1.3250 o         1 ALP     -0.852300
     15 O82         2.1550    4.6370   -3.5420 o         1 ALP     -0.852300
     16 N7          1.6490    1.7050   -1.6290 n7        1 ALP     -0.776200
     17 H2          2.8260    0.0970    1.1560 hc        1 ALP      0.059700
     18 H211        0.8810    1.7360    1.7200 h1        1 ALP      0.025200
     19 H212       -0.1740    0.6720    0.6690 h1        1 ALP      0.025200
     20 H22         0.7570   -1.0430    2.1470 ho        1 ALP      0.443000
     21 H3          2.3620    2.4310    0.1770 h2        1 ALP      0.087700
     22 H511        4.7530    3.9340   -1.8560 hc        1 ALP      0.032367
     23 H512        4.6350    3.7300   -3.6510 hc        1 ALP      0.032367
     24 H513        5.9470    2.8670   -2.7280 hc        1 ALP      0.032367
     25 H521        4.1100    1.3380   -4.5540 hc        1 ALP      0.032367
     26 H522        3.5410    0.0870   -3.3600 hc        1 ALP      0.032367
     27 H523        5.2890    0.5740   -3.4100 hc        1 ALP      0.032367
     28 H6          2.0800    2.2110   -3.6180 h1        1 ALP      0.046700
     29 HN7         1.3500    0.8300   -2.0350 hn        1 ALP      0.394800
@<TRIPOS>BOND
     1    1    2 1   
     2    1    3 1   
     3    1    4 1   
     4    4    5 1   
     5    4    7 1   
     6    4   17 1   
     7    5    6 1   
     8    5   18 1   
     9    5   19 1   
    10    6   20 1   
    11    7    8 1   
    12    7   16 1   
    13    7   21 1   
    14    8    9 1   
    15    9   10 1   
    16    9   11 1   
    17    9   12 1   
    18   10   22 1   
    19   10   23 1   
    20   10   24 1   
    21   11   25 1   
    22   11   26 1   
    23   11   27 1   
    24   12   13 1   
    25   12   16 1   
    26   12   28 1   
    27   13   14 1   
    28   13   15 1   
    29   16   29 1   
@<TRIPOS>SUBSTRUCTURE
     1 ALP         1 TEMP              0 ****  ****    0 ROOT
