@<TRIPOS>MOLECULE
ALP
   29    29     1     0     0
SMALL
bcc


@<TRIPOS>ATOM
      1 C1          0.0650   -0.0190    0.0310 c         1 ALP      0.912600
      2 O1         -0.6750    0.3960   -0.9020 o         1 ALP     -0.850300
      3 O2         -0.3940   -0.5680    1.0820 o         1 ALP     -0.850300
      4 C2          1.6000    0.0830   -0.1280 c3        1 ALP     -0.245700
      5 C21         2.3070   -0.4930    1.0940 c3        1 ALP      0.163400
      6 O22         2.0320   -1.8680    1.2910 oh        1 ALP     -0.660800
      7 C3          2.0460    1.5270   -0.3410 c3        1 ALP      0.366600
      8 S4          3.8970    1.6020   -0.4090 ss        1 ALP     -0.547200
      9 C5          3.9490    2.3600   -2.0640 c3        1 ALP      0.109100
     10 C51         4.3160    3.8160   -1.9270 c3        1 ALP     -0.076600
     11 C52         4.9450    1.6260   -2.9260 c3        1 ALP     -0.076600
     12 C6          2.5140    2.1740   -2.6110 c3        1 ALP      0.056500
     13 C8          2.2760    3.1970   -3.7720 c         1 ALP      0.926600
     14 O81         1.7540    4.3220   -3.5660 o         1 ALP     -0.846300
     15 O82         2.6850    2.8150   -4.9110 o         1 ALP     -0.846300
     16 N7          1.5600    2.2380   -1.5070 n3        1 ALP     -0.800200
     17 H2          1.8700   -0.5320   -1.0290 hc        1 ALP      0.060700
     18 H211        3.4240   -0.4390    0.9710 h1        1 ALP      0.026200
     19 H212        1.9980    0.0790    2.0110 h1        1 ALP      0.026200
     20 H22         1.0650   -1.9540    1.3180 ho        1 ALP      0.436000
     21 H3          1.7590    2.1300    0.5630 h2        1 ALP      0.060700
     22 H511        5.2770    3.9310   -1.3680 hc        1 ALP      0.036200
     23 H512        3.5040    4.3670   -1.3920 hc        1 ALP      0.036200
     24 H513        4.4260    4.2720   -2.9430 hc        1 ALP      0.036200
     25 H521        4.7700    1.9140   -3.9960 hc        1 ALP      0.036200
     26 H522        4.8160    0.5210   -2.8280 hc        1 ALP      0.036200
     27 H523        5.9910    1.8890   -2.6380 hc        1 ALP      0.036200
     28 H6          2.4780    1.1500   -3.1010 h1        1 ALP      0.021700
     29 HN7         0.6550    1.8950   -1.7890 hn        1 ALP      0.417800
@<TRIPOS>BOND
     1    1    2 1   
     2    1    3 1   
     3    1    4 1   
     4    4    5 1   
     5    4    7 1   
     6    4   17 1   
     7    5    6 1   
     8    5   18 1   
     9    5   19 1   
    10    6   20 1   
    11    7    8 1   
    12    7   16 1   
    13    7   21 1   
    14    8    9 1   
    15    9   10 1   
    16    9   11 1   
    17    9   12 1   
    18   10   22 1   
    19   10   23 1   
    20   10   24 1   
    21   11   25 1   
    22   11   26 1   
    23   11   27 1   
    24   12   13 1   
    25   12   16 1   
    26   12   28 1   
    27   13   14 1   
    28   13   15 1   
    29   16   29 1   
@<TRIPOS>SUBSTRUCTURE
     1 ALP         1 TEMP              0 ****  ****    0 ROOT
