@<TRIPOS>MOLECULE
ALP
   29    28     1     0     0
SMALL
bcc


@<TRIPOS>ATOM
      1 C1         -2.5990   -1.3270    1.4000 c1        1 ALP      0.332000
      2 O1         -3.2280   -0.3200    1.8180 o         1 ALP     -0.613000
      3 O2         -3.2280   -2.3350    0.9830 os        1 ALP     -0.557000
      4 C2         -1.1070   -1.3270    1.4000 c3        1 ALP     -0.235000
      5 C21        -0.6090   -1.3270    2.8070 c3        1 ALP      0.013000
      6 O22        -1.3340   -2.2730    3.5620 oh        1 ALP     -0.388000
      7 C3         -0.5830   -0.0460    0.6590 c3        1 ALP     -0.013000
      8 S4          0.8050   -0.0900    0.5480 ss        1 ALP     -0.183000
      9 C5          1.1940    0.6790   -0.9540 c3        1 ALP     -0.073000
     10 C51         2.5580    0.2270   -1.4260 c3        1 ALP     -0.194500
     11 C52         1.1790    2.1820   -0.7820 c3        1 ALP     -0.194500
     12 C6          0.2060    0.2910   -1.8900 c3        1 ALP     -0.091000
     13 C8          0.0150    1.3080   -2.8130 c2        1 ALP      0.346000
     14 O81         0.8260    1.4560   -3.7650 o         1 ALP     -0.581000
     15 O82        -0.9700    2.0840   -2.7000 o         1 ALP     -0.581000
     16 N7         -1.1450   -0.0150   -0.8830 n3        1 ALP     -0.279000
     17 H2         -0.7820   -2.1250    0.9400 hc        1 ALP      0.100000
     18 H211        0.3390   -1.5610    2.8170 h1        1 ALP      0.065500
     19 H212       -0.7290   -0.4400    3.1950 h1        1 ALP      0.065500
     20 H22        -0.9190   -2.4150    4.3340 ho        1 ALP      0.235000
     21 H3         -0.8600    0.7590    1.1370 h2        1 ALP      0.100000
     22 H511        2.5300   -0.7250   -1.6370 hc        1 ALP      0.075500
     23 H512        2.8090    0.7300   -2.2240 hc        1 ALP      0.075500
     24 H513        3.2150    0.3860   -0.7220 hc        1 ALP      0.075500
     25 H521        0.2580    2.4880   -0.6690 hc        1 ALP      0.075500
     26 H522        1.7020    2.4250    0.0050 hc        1 ALP      0.075500
     27 H523        1.5660    2.6040   -1.5730 hc        1 ALP      0.075500
     28 H6          0.3950   -0.4680   -2.4740 h1        1 ALP      0.061000
     29 HN7        -1.5020   -0.8280   -1.0930 hn        1 ALP      0.213000
@<TRIPOS>BOND
     1    1    2 1   
     2    1    4 1   
     3    4    5 1   
     4    4    7 1   
     5    4   17 1   
     6    5    6 1   
     7    5   18 1   
     8    5   19 1   
     9    6   20 1   
    10    7    8 1   
    11    7   16 1   
    12    7   21 1   
    13    8    9 1   
    14    9   10 1   
    15    9   11 1   
    16    9   12 1   
    17   10   22 1   
    18   10   23 1   
    19   10   24 1   
    20   11   25 1   
    21   11   26 1   
    22   11   27 1   
    23   12   13 1   
    24   12   16 1   
    25   12   28 1   
    26   13   14 1   
    27   13   15 1   
    28   16   29 1   
@<TRIPOS>SUBSTRUCTURE
     1 ALP         1 TEMP              0 ****  ****    0 ROOT
