@<TRIPOS>MOLECULE
ALP
   29    29     1     0     0
SMALL
bcc


@<TRIPOS>ATOM
      1 C1          1.6680   -1.0670   -0.2400 c         1 ALP      0.921600
      2 O1          1.5560   -2.0740    0.5320 o         1 ALP     -0.855300
      3 O2          1.4720   -1.1500   -1.4830 o         1 ALP     -0.855300
      4 C2          2.0250    0.2670    0.4550 c3        1 ALP     -0.212700
      5 C21         0.8540    0.6600    1.3560 c3        1 ALP      0.161400
      6 O22         0.7140   -0.1990    2.4750 oh        1 ALP     -0.669800
      7 C3          2.4110    1.4580   -0.4080 c3        1 ALP      0.375600
      8 S4          4.2130    1.3030   -0.9260 ss        1 ALP     -0.568200
      9 C5          3.9070    2.0530   -2.5450 c3        1 ALP      0.077100
     10 C51         4.8350    3.2220   -2.7480 c3        1 ALP     -0.078100
     11 C52         4.1380    0.9870   -3.5920 c3        1 ALP     -0.078100
     12 C6          2.4080    2.4930   -2.5500 c3        1 ALP      0.058500
     13 C8          2.2800    4.0430   -2.3760 c         1 ALP      0.927600
     14 O81         2.3820    4.5820   -1.2420 o         1 ALP     -0.852300
     15 O82         2.0870    4.6970   -3.4460 o         1 ALP     -0.852300
     16 N7          1.6350    1.7240   -1.5820 n3        1 ALP     -0.776200
     17 H2          2.9120    0.0420    1.1130 hc        1 ALP      0.059700
     18 H211        1.0060    1.6830    1.7960 h1        1 ALP      0.025200
     19 H212       -0.1010    0.6520    0.7640 h1        1 ALP      0.025200
     20 H22         0.8750   -1.1050    2.1620 ho        1 ALP      0.443000
     21 H3          2.4280    2.4020    0.2090 h2        1 ALP      0.087700
     22 H511        4.7470    3.9330   -1.8880 hc        1 ALP      0.032367
     23 H512        5.8940    2.8770   -2.8340 hc        1 ALP      0.032367
     24 H513        4.5520    3.7710   -3.6810 hc        1 ALP      0.032367
     25 H521        3.4370    0.1320   -3.4270 hc        1 ALP      0.032367
     26 H522        5.1860    0.6050   -3.5400 hc        1 ALP      0.032367
     27 H523        3.9670    1.4050   -4.6150 hc        1 ALP      0.032367
     28 H6          1.9870    2.2730   -3.5760 h1        1 ALP      0.046700
     29 HN7         1.3110    0.8620   -1.9960 hn        1 ALP      0.394800
@<TRIPOS>BOND
     1    1    2 1   
     2    1    3 1   
     3    1    4 1   
     4    4    5 1   
     5    4    7 1   
     6    4   17 1   
     7    5    6 1   
     8    5   18 1   
     9    5   19 1   
    10    6   20 1   
    11    7    8 1   
    12    7   16 1   
    13    7   21 1   
    14    8    9 1   
    15    9   10 1   
    16    9   11 1   
    17    9   12 1   
    18   10   22 1   
    19   10   23 1   
    20   10   24 1   
    21   11   25 1   
    22   11   26 1   
    23   11   27 1   
    24   12   13 1   
    25   12   16 1   
    26   12   28 1   
    27   13   14 1   
    28   13   15 1   
    29   16   29 1   
@<TRIPOS>SUBSTRUCTURE
     1 ALP         1 TEMP              0 ****  ****    0 ROOT
