@<TRIPOS>MOLECULE
ALP
   29    29     1     0     0
SMALL
bcc


@<TRIPOS>ATOM
      1 C1         -0.2620    1.0090    3.0530 c         1 ALP      0.911600
      2 O1         -1.0200    2.0160    2.9560 o         1 ALP     -0.859300
      3 O2          0.3910    0.7500    4.1130 o         1 ALP     -0.859300
      4 C2         -0.1690    0.0010    1.8840 c3        1 ALP     -0.202700
      5 C21         1.1650   -0.7310    1.8890 c3        1 ALP      0.167400
      6 O22         1.2930   -1.6130    2.9920 oh        1 ALP     -0.668800
      7 C3         -0.4740    0.6660    0.5400 c3        1 ALP      0.336600
      8 S4          1.0530    1.3570   -0.2650 ss        1 ALP     -0.516200
      9 C5          0.9170    0.3300   -1.7470 c3        1 ALP      0.062100
     10 C51         0.5970    1.2250   -2.9200 c3        1 ALP     -0.073600
     11 C52         2.2100   -0.4120   -1.9800 c3        1 ALP     -0.073600
     12 C6         -0.2330   -0.6760   -1.4590 c3        1 ALP      0.046500
     13 C8         -0.9520   -1.0400   -2.7990 c         1 ALP      0.921600
     14 O81        -2.0080   -0.4270   -3.1220 o         1 ALP     -0.849300
     15 O82        -0.4110   -1.9380   -3.5070 o         1 ALP     -0.849300
     16 N7         -1.1320   -0.1930   -0.4240 n3        1 ALP     -0.794200
     17 H2         -0.9780   -0.7560    2.0940 hc        1 ALP      0.063700
     18 H211        1.2620   -1.3880    0.9830 h1        1 ALP      0.031200
     19 H212        2.0080    0.0110    1.9090 h1        1 ALP      0.031200
     20 H22         1.0910   -1.0930    3.7870 ho        1 ALP      0.436000
     21 H3         -1.1060    1.5750    0.7640 h2        1 ALP      0.100700
     22 H511        1.3420    2.0530   -3.0000 hc        1 ALP      0.033867
     23 H512        0.6110    0.6280   -3.8670 hc        1 ALP      0.033867
     24 H513       -0.4270    1.6580   -2.8040 hc        1 ALP      0.033867
     25 H521        3.0190    0.2910   -2.2950 hc        1 ALP      0.033867
     26 H522        2.5340   -0.9350   -1.0470 hc        1 ALP      0.033867
     27 H523        2.0530   -1.1740   -2.7860 hc        1 ALP      0.033867
     28 H6          0.2330   -1.6270   -1.0650 h1        1 ALP      0.059700
     29 HN7        -1.9020    0.2880   -0.8590 hn        1 ALP      0.375800
@<TRIPOS>BOND
     1    1    2 1   
     2    1    3 1   
     3    1    4 1   
     4    4    5 1   
     5    4    7 1   
     6    4   17 1   
     7    5    6 1   
     8    5   18 1   
     9    5   19 1   
    10    6   20 1   
    11    7    8 1   
    12    7   16 1   
    13    7   21 1   
    14    8    9 1   
    15    9   10 1   
    16    9   11 1   
    17    9   12 1   
    18   10   22 1   
    19   10   23 1   
    20   10   24 1   
    21   11   25 1   
    22   11   26 1   
    23   11   27 1   
    24   12   13 1   
    25   12   16 1   
    26   12   28 1   
    27   13   14 1   
    28   13   15 1   
    29   16   29 1   
@<TRIPOS>SUBSTRUCTURE
     1 ALP         1 TEMP              0 ****  ****    0 ROOT
