@<TRIPOS>MOLECULE
ALQ
   13    12     1     0     0
SMALL
bcc


@<TRIPOS>ATOM
      1 CM         -1.3260    0.3030   -0.2640 c3        1 ALQ     -0.064100
      2 CA          0.1870    0.3030   -0.2640 c3        1 ALQ     -0.193700
      3 CB          0.6910    0.3030    1.1620 c3        1 ALQ     -0.064100
      4 C           0.6910   -0.9320   -0.9770 c         1 ALQ      0.914600
      5 O           1.4150   -0.8170   -2.0010 o         1 ALQ     -0.849800
      6 OXT         0.3870   -2.0760   -0.5470 o         1 ALQ     -0.849800
      7 HM1        -1.6520   -0.3220    0.4120 hc        1 ALQ      0.012700
      8 HM2        -1.6520    0.0300   -1.1430 hc        1 ALQ      0.012700
      9 HM3        -1.6520    1.2000   -0.0610 hc        1 ALQ      0.012700
     10 HA          0.5120    1.1000   -0.7240 hc        1 ALQ      0.029700
     11 HB1         0.6100    1.2010    1.5360 hc        1 ALQ      0.012700
     12 HB2         0.1610   -0.3200    1.6950 hc        1 ALQ      0.012700
     13 HB3         1.6270    0.0270    1.1760 hc        1 ALQ      0.012700
@<TRIPOS>BOND
     1    1    2 1   
     2    1    7 1   
     3    1    8 1   
     4    1    9 1   
     5    2    3 1   
     6    2    4 1   
     7    2   10 1   
     8    3   11 1   
     9    3   12 1   
    10    3   13 1   
    11    4    5 1   
    12    4    6 1   
@<TRIPOS>SUBSTRUCTURE
     1 ALQ         1 TEMP              0 ****  ****    0 ROOT
