@<TRIPOS>MOLECULE
ALQ
   13    12     1     0     0
SMALL
bcc


@<TRIPOS>ATOM
      1 CM          1.2380    1.3330    0.5140 c3        1 ALQ     -0.064100
      2 CA          0.7270    0.2410   -0.3950 c3        1 ALQ     -0.193700
      3 CB          1.5910   -0.9930   -0.2970 c3        1 ALQ     -0.064100
      4 C          -0.7350   -0.1120   -0.0190 c         1 ALQ      0.914600
      5 O          -0.9690   -0.5520    1.1430 o         1 ALQ     -0.849800
      6 OXT        -1.6240    0.0600   -0.9010 o         1 ALQ     -0.849800
      7 HM1         2.3140    1.5550    0.3120 hc        1 ALQ      0.012700
      8 HM2         0.6480    2.2680    0.3600 hc        1 ALQ      0.012700
      9 HM3         1.1270    1.0180    1.5800 hc        1 ALQ      0.012700
     10 HA          0.7310    0.6120   -1.4560 hc        1 ALQ      0.029700
     11 HB1         1.5000   -1.4370    0.7240 hc        1 ALQ      0.012700
     12 HB2         1.2580   -1.7550   -1.0430 hc        1 ALQ      0.012700
     13 HB3         2.6640   -0.7510   -0.4920 hc        1 ALQ      0.012700
@<TRIPOS>BOND
     1    1    2 1   
     2    1    7 1   
     3    1    8 1   
     4    1    9 1   
     5    2    3 1   
     6    2    4 1   
     7    2   10 1   
     8    3   11 1   
     9    3   12 1   
    10    3   13 1   
    11    4    5 1   
    12    4    6 1   
@<TRIPOS>SUBSTRUCTURE
     1 ALQ         1 TEMP              0 ****  ****    0 ROOT
