@<TRIPOS>MOLECULE
ALQ
   13    12     1     0     0
SMALL
bcc


@<TRIPOS>ATOM
      1 CM         -0.0260   -0.0640    0.0820 c3        1 ALQ     -0.064100
      2 CA          1.4790   -0.0060   -0.0100 c3        1 ALQ     -0.193700
      3 CB          2.1030    0.0760    1.3620 c3        1 ALQ     -0.064100
      4 C           2.0070   -1.2620   -0.7510 c         1 ALQ      0.914600
      5 O           1.7790   -2.3990   -0.2460 o         1 ALQ     -0.849800
      6 OXT         2.6420   -1.0820   -1.8280 o         1 ALQ     -0.849800
      7 HM1        -0.4760   -0.0280   -0.9390 hc        1 ALQ      0.012700
      8 HM2        -0.3380   -1.0190    0.5710 hc        1 ALQ      0.012700
      9 HM3        -0.4280    0.7930    0.6770 hc        1 ALQ      0.012700
     10 HA          1.7780    0.8980   -0.6070 hc        1 ALQ      0.029700
     11 HB1         3.2080    0.2140    1.2750 hc        1 ALQ      0.012700
     12 HB2         1.6840    0.9320    1.9460 hc        1 ALQ      0.012700
     13 HB3         1.9100   -0.8710    1.9220 hc        1 ALQ      0.012700
@<TRIPOS>BOND
     1    1    2 1   
     2    1    7 1   
     3    1    8 1   
     4    1    9 1   
     5    2    3 1   
     6    2    4 1   
     7    2   10 1   
     8    3   11 1   
     9    3   12 1   
    10    3   13 1   
    11    4    5 1   
    12    4    6 1   
@<TRIPOS>SUBSTRUCTURE
     1 ALQ         1 TEMP              0 ****  ****    0 ROOT
