@<TRIPOS>MOLECULE
ALR
   27    29     1     0     0
SMALL
bcc


@<TRIPOS>ATOM
      1 C1          0.1550    0.0160    0.0920 c2        1 ALR     -0.157000
      2 C2          0.3030    0.3090    2.5330 c2        1 ALR     -0.224000
      3 C3          1.7910    0.2110    2.4500 c2        1 ALR      0.365000
      4 C4          1.6200    0.2970   -0.0020 c2        1 ALR      0.387000
      5 O5          2.4960    0.1440    3.4710 o         1 ALR     -0.320000
      6 O6          2.1140    0.6530   -1.0860 o         1 ALR     -0.335000
      7 C8         -0.4580    0.1000    1.3980 c2        1 ALR      0.122000
      8 C9         -1.9050   -0.0460    1.4790 c2        1 ALR     -0.209000
      9 C10        -2.5260    0.1210    2.6870 c2        1 ALR      0.038000
     10 C11        -1.7580    0.4990    3.8890 c3        1 ALR     -0.232000
     11 C12        -0.3010    0.6090    3.7720 c1        1 ALR     -0.051000
     12 C16        -0.5510   -0.3330   -1.0040 c2        1 ALR     -0.043000
     13 C17        -2.0030   -0.6230   -0.9400 c3        1 ALR     -0.211000
     14 C18        -2.6790   -0.4040    0.3340 c1        1 ALR     -0.058000
     15 N22         2.3900    0.2320    1.1750 n         1 ALR     -0.287000
     16 C23         3.7750   -1.7470    0.4000 c2        1 ALR      0.327000
     17 O24         2.7210   -2.2260   -0.1050 o         1 ALR     -0.567500
     18 O27         4.8910   -2.3290    0.4450 o         1 ALR     -0.567500
     19 H71         4.2430   -0.3310    2.0110 h1        1 ALR      0.103500
     20 H72         4.2950    0.3720    0.3200 h1        1 ALR      0.103500
     21 H10        -2.1300    1.5000    4.2650 hc        1 ALR      0.161500
     22 H11        -3.6130   -0.0420    2.7810 ha        1 ALR      0.142000
     23 H12        -1.9640   -0.2410    4.7190 hc        1 ALR      0.161500
     24 H16        -2.1750   -1.7110   -1.2070 hc        1 ALR      0.154500
     25 H17        -0.0490   -0.4180   -1.9840 ha        1 ALR      0.167000
     26 H18        -2.5470   -0.0210   -1.7260 hc        1 ALR      0.154500
     27 C7          3.7330   -0.3120    1.0120 c3        1 ALR     -0.124000
@<TRIPOS>BOND
     1    1    4 1   
     2    1    7 1   
     3    1   12 1   
     4    2    3 1   
     5    2    7 1   
     6    2   11 1   
     7    3    5 1   
     8    3   15 1   
     9    4    6 1   
    10    4   15 1   
    11    7    8 1   
    12    8    9 1   
    13    8   14 1   
    14    9   10 1   
    15    9   22 1   
    16   10   11 1   
    17   10   21 1   
    18   10   23 1   
    19   12   13 1   
    20   12   25 1   
    21   13   14 1   
    22   13   24 1   
    23   13   26 1   
    24   15   27 1   
    25   16   17 1   
    26   16   18 1   
    27   16   27 1   
    28   19   27 1   
    29   20   27 1   
@<TRIPOS>SUBSTRUCTURE
     1 ALR         1 TEMP              0 ****  ****    0 ROOT
