@<TRIPOS>MOLECULE
ALR
   27    29     1     0     0
SMALL
bcc


@<TRIPOS>ATOM
      1 C1         -1.2330   -0.2840   -0.8260 ca        1 ALR     -0.120600
      2 C2          1.2330   -0.2850   -0.8260 ca        1 ALR     -0.120600
      3 C3          1.2270   -0.6570    0.6190 c         1 ALR      0.725100
      4 C4         -1.2280   -0.6560    0.6190 c         1 ALR      0.725100
      5 O5          2.3030   -0.9090    1.1960 o         1 ALR     -0.620500
      6 O6         -2.3040   -0.9070    1.1960 o         1 ALR     -0.620500
      7 C8         -0.0000   -0.1040   -1.5090 ca        1 ALR      0.011000
      8 C9          0.0000    0.2620   -2.8780 ca        1 ALR     -0.057000
      9 C10         1.2460    0.4420   -3.5380 ca        1 ALR     -0.104000
     10 C11         2.4270    0.2670   -2.8580 ca        1 ALR     -0.147000
     11 C12         2.4260   -0.0970   -1.4910 ca        1 ALR     -0.063000
     12 C16        -2.4260   -0.0950   -1.4910 ca        1 ALR     -0.063000
     13 C17        -2.4260    0.2690   -2.8590 ca        1 ALR     -0.147000
     14 C18        -1.2450    0.4430   -3.5380 ca        1 ALR     -0.104000
     15 N22        -0.0010   -0.7900    1.2830 n         1 ALR     -0.437400
     16 C23        -0.0000    0.6740    3.3870 c         1 ALR      0.913600
     17 O24         0.0000    1.6970    2.6530 o         1 ALR     -0.829800
     18 O27        -0.0000    0.6760    4.6480 o         1 ALR     -0.829800
     19 H71         0.9150   -1.2890    3.1030 h1        1 ALR      0.063700
     20 H72        -0.9170   -1.2880    3.1030 h1        1 ALR      0.063700
     21 H10         1.2430    0.7290   -4.6000 ha        1 ALR      0.123000
     22 H11         3.3910    0.4130   -3.3660 ha        1 ALR      0.127000
     23 H12         3.3790   -0.2260   -0.9520 ha        1 ALR      0.160000
     24 H16        -3.3790   -0.2230   -0.9520 ha        1 ALR      0.160000
     25 H17        -3.3910    0.4160   -3.3670 ha        1 ALR      0.127000
     26 H18        -1.2420    0.7300   -4.6000 ha        1 ALR      0.123000
     27 C7         -0.0010   -0.7470    2.7410 c3        1 ALR     -0.061000
@<TRIPOS>BOND
     1    1    4 1   
     2    1    7 ar  
     3    1   12 ar  
     4    2    3 1   
     5    2    7 ar  
     6    2   11 ar  
     7    3    5 2   
     8    3   15 1   
     9    4    6 2   
    10    4   15 1   
    11    7    8 ar  
    12    8    9 ar  
    13    8   14 ar  
    14    9   10 ar  
    15    9   21 1   
    16   10   11 ar  
    17   10   22 1   
    18   11   23 1   
    19   12   13 ar  
    20   12   24 1   
    21   13   14 ar  
    22   13   25 1   
    23   14   26 1   
    24   15   27 1   
    25   16   17 1   
    26   16   18 1   
    27   16   27 1   
    28   19   27 1   
    29   20   27 1   
@<TRIPOS>SUBSTRUCTURE
     1 ALR         1 TEMP              0 ****  ****    0 ROOT
