@<TRIPOS>MOLECULE
ALR
   27    28     1     0     0
SMALL
bcc


@<TRIPOS>ATOM
      1 C1          0.0690   -0.4250   -0.0730 cc        1 ALR     -0.153200
      2 C2          0.1580   -0.3240    2.3400 cd        1 ALR     -0.120200
      3 C3          1.6430   -0.1060    2.2960 c         1 ALR      0.713700
      4 C4          1.4830    0.0490   -0.1510 c         1 ALR      0.729700
      5 O5          2.2940   -0.0140    3.3540 o         1 ALR     -0.617500
      6 O6          1.9680    0.4230   -1.2340 o         1 ALR     -0.612500
      7 C8         -0.4390   -0.8110    1.1280 cc        1 ALR     -0.041000
      8 C9         -2.8570    0.3260    1.3000 c1        1 ALR     -0.086900
      9 C10        -2.9860    0.3290    2.6850 ce        1 ALR     -0.103100
     10 C11        -1.9840    0.1650    3.5850 ce        1 ALR     -0.121000
     11 C12        -0.5610    0.0620    3.4220 cf        1 ALR     -0.077000
     12 C16        -0.7630   -0.3390   -1.2490 cf        1 ALR     -0.040000
     13 C17        -2.0800   -0.0010   -1.1470 cf        1 ALR     -0.163100
     14 C18        -2.6420    0.2160    0.1150 c1        1 ALR     -0.030900
     15 N22         2.2360    0.0980    1.0410 n         1 ALR     -0.439400
     16 C23         4.2120   -1.4940    0.6970 c         1 ALR      0.912600
     17 O24         3.3940   -2.4430    0.5660 o         1 ALR     -0.829800
     18 O27         5.4680   -1.5970    0.6530 o         1 ALR     -0.829800
     19 H71         4.1450    0.3460    1.8760 h1        1 ALR      0.064200
     20 H72         4.0210    0.5880    0.0640 h1        1 ALR      0.064200
     21 H10         0.0190    0.3910    4.3110 ha        1 ALR      0.150000
     22 H11        -4.0160    0.4740    3.0670 ha        1 ALR      0.127000
     23 H12        -2.2890    0.1850    4.6520 ha        1 ALR      0.119000
     24 H16        -1.3260   -1.4580    1.2180 ha        1 ALR      0.149000
     25 H17        -0.2700   -0.4510   -2.2290 ha        1 ALR      0.161000
     26 H18        -2.7110    0.1300   -2.0380 ha        1 ALR      0.139000
     27 C7          3.6830   -0.0440    0.9290 c3        1 ALR     -0.063000
@<TRIPOS>BOND
     1    1    4 1   
     2    1    7 1   
     3    1   12 2   
     4    2    3 1   
     5    2    7 2   
     6    2   11 1   
     7    3    5 2   
     8    3   15 1   
     9    4    6 2   
    10    4   15 1   
    11    7   24 1   
    12    8    9 2   
    13    8   14 2   
    14    9   10 1   
    15    9   22 1   
    16   10   11 2   
    17   10   23 1   
    18   11   21 1   
    19   12   13 1   
    20   12   25 1   
    21   13   14 2   
    22   13   26 1   
    23   15   27 1   
    24   16   17 1   
    25   16   18 1   
    26   16   27 1   
    27   19   27 1   
    28   20   27 1   
@<TRIPOS>SUBSTRUCTURE
     1 ALR         1 TEMP              0 ****  ****    0 ROOT
