@<TRIPOS>MOLECULE
ALR
   27    25     1     0     0
SMALL
bcc


@<TRIPOS>ATOM
      1 C1         -0.3180   -0.3770   -1.1600 c1        1 ALR     -0.100000
      2 C2         -0.2730    0.1950    1.2160 c1        1 ALR     -0.100000
      3 C3          1.2530   -0.0230    1.2380 c1        1 ALR      0.362000
      4 C4          1.2210   -0.6000   -1.1360 c1        1 ALR      0.362000
      5 O5          1.8770    0.1380    2.2730 o         1 ALR     -0.345000
      6 O6          1.7840   -1.0270   -2.1190 o         1 ALR     -0.345000
      7 C7          3.3710   -0.6450    0.0770 c3        1 ALR     -0.127000
      8 C8         -0.9920    0.0290    0.0120 c2        1 ALR      0.011000
      9 C9         -2.3750    0.1620    0.0070 c2        1 ALR     -0.057000
     10 C10        -3.0550    0.5300    1.2000 c2        1 ALR     -0.104000
     11 C11        -2.3330    0.7260    2.3880 c1        1 ALR     -0.147000
     12 C12        -0.9510    0.5610    2.3990 c1        1 ALR     -0.063000
     13 C16        -1.0300   -0.5480   -2.3580 c2        1 ALR     -0.063000
     14 C17        -2.4120   -0.3660   -2.3810 c1        1 ALR     -0.147000
     15 C18        -3.0950   -0.0100   -1.2010 c1        1 ALR     -0.104000
     16 N22         1.9340   -0.4150    0.0490 n3        1 ALR     -0.266000
     17 C23         4.0920    0.6430   -0.2280 c2        1 ALR      0.333000
     18 O24         4.1080    1.5630    0.6150 o         1 ALR     -0.564500
     19 O27         4.7510    0.7580   -1.3020 o         1 ALR     -0.564500
     20 H71         3.6310   -0.9580    0.9580 h1        1 ALR      0.103000
     21 H72         3.6120   -1.3280   -0.6010 h1        1 ALR      0.103000
     22 H10        -4.0080    0.5700    1.2100 ha        1 ALR      0.123000
     23 H11        -2.8140    0.9380    3.2330 ha        1 ALR      0.127000
     24 H12        -0.4570    0.6950    3.2130 ha        1 ALR      0.160000
     25 H16        -0.5430   -0.8020   -3.1970 ha        1 ALR      0.160000
     26 H17        -2.9030   -0.5260   -3.1900 ha        1 ALR      0.127000
     27 H18        -4.0740    0.1190   -1.2150 ha        1 ALR      0.123000
@<TRIPOS>BOND
     1    1    8 1   
     2    1   13 1   
     3    2    8 1   
     4    2   12 1   
     5    3    5 1   
     6    3   16 1   
     7    4    6 1   
     8    4   16 1   
     9    7   16 1   
    10    7   17 1   
    11    7   20 1   
    12    7   21 1   
    13    8    9 1   
    14    9   10 1   
    15    9   15 1   
    16   10   11 1   
    17   10   22 1   
    18   11   23 1   
    19   12   24 1   
    20   13   14 1   
    21   13   25 1   
    22   14   26 1   
    23   15   27 1   
    24   17   18 1   
    25   17   19 1   
@<TRIPOS>SUBSTRUCTURE
     1 ALR         1 TEMP              0 ****  ****    0 ROOT
