@<TRIPOS>MOLECULE
ALS
   15    12     1     0     0
SMALL
bcc


@<TRIPOS>ATOM
      1 C1         -1.8360    0.9400    0.6780 c1        1 ALS      0.326000
      2 O1         -2.4650    1.8560    0.0870 o         1 ALS     -0.606000
      3 O2         -2.4650    0.0230    1.2690 os        1 ALS     -0.813000
      4 C2         -0.3250    0.9400    0.6780 c3        1 ALS     -0.125000
      5 N2          0.1500    0.9400    2.0190 n3        1 ALS     -0.328000
      6 C3          0.1790   -0.2940   -0.0350 c2        1 ALS      0.413000
      7 O3          0.1820   -1.3670    0.5360 o         1 ALS     -0.437000
      8 OS1         0.6450   -0.2010   -1.3570 os        1 ALS     -0.730000
      9 S           1.1260   -1.4870   -1.9800 s4        1 ALS      2.111800
     10 OS2         2.3480   -2.0170   -1.2670 o         1 ALS     -0.685900
     11 OS3         1.6750   -1.2520   -3.3670 o         1 ALS     -0.685900
     12 OS4         0.0140   -2.5080   -1.9960 os        1 ALS     -0.813000
     13 H2          0.0010    1.7370    0.2180 h1        1 ALS      0.111000
     14 HN21        1.0480    1.0970    2.0240 hn        1 ALS      0.130500
     15 HN22       -0.2760    1.5930    2.4920 hn        1 ALS      0.130500
@<TRIPOS>BOND
     1    1    2 1   
     2    1    4 1   
     3    4    5 1   
     4    4    6 1   
     5    4   13 1   
     6    5   14 1   
     7    5   15 1   
     8    6    7 1   
     9    6    8 1   
    10    8    9 1   
    11    9   10 1   
    12    9   11 1   
@<TRIPOS>SUBSTRUCTURE
     1 ALS         1 TEMP              0 ****  ****    0 ROOT
