@<TRIPOS>MOLECULE
ALS
   15    14     1     0     0
SMALL
bcc


@<TRIPOS>ATOM
      1 C1         -0.5330   -0.0910    2.7790 c         1 ALS      0.906600
      2 O1         -0.0030   -0.5580    3.8330 o         1 ALS     -0.846300
      3 O2         -1.7750   -0.0640    2.5790 o         1 ALS     -0.846300
      4 C2          0.4120    0.5780    1.7200 c3        1 ALS     -0.027500
      5 N2          1.7780    0.7770    2.2010 n3        1 ALS     -0.895800
      6 C3          0.4180   -0.1870    0.4050 c         1 ALS      0.742100
      7 O3          0.9230   -1.3020    0.2090 o         1 ALS     -0.626000
      8 OS1        -0.1100    0.4570   -0.6350 os        1 ALS     -0.610800
      9 S          -0.1050    0.1930   -2.3580 s6        1 ALS      1.717300
     10 OS2        -0.7510    1.3610   -2.7690 o         1 ALS     -0.752200
     11 OS3         1.2490    0.1450   -2.6830 o         1 ALS     -0.752200
     12 OS4        -0.8270   -0.9750   -2.5780 o         1 ALS     -0.752200
     13 H2         -0.0180    1.6030    1.5190 h1        1 ALS      0.071700
     14 HN21        1.7550    0.7150    3.2070 hn        1 ALS      0.335300
     15 HN22        2.3510    0.0150    1.8830 hn        1 ALS      0.335300
@<TRIPOS>BOND
     1    1    2 1   
     2    1    3 1   
     3    1    4 1   
     4    4    5 1   
     5    4    6 1   
     6    4   13 1   
     7    5   14 1   
     8    5   15 1   
     9    6    7 2   
    10    6    8 1   
    11    8    9 1   
    12    9   10 1   
    13    9   11 1   
    14    9   12 1   
@<TRIPOS>SUBSTRUCTURE
     1 ALS         1 TEMP              0 ****  ****    0 ROOT
