@<TRIPOS>MOLECULE
ALT
   13    12     1     0     0
SMALL
bcc


@<TRIPOS>ATOM
      1 N          -1.5160    0.4220   -0.0560 n3        1 ALT     -0.905800
      2 CA         -0.0930    0.4220   -0.0560 c3        1 ALT      0.125500
      3 CB          0.4100    0.4220    1.3690 c3        1 ALT     -0.132100
      4 C           0.4100   -0.8120   -0.7680 c         1 ALT      0.430500
      5 S          -0.2250   -2.3140   -0.3920 s         1 ALT     -0.403400
      6 OXT         1.4140   -0.6980   -1.7480 oh        1 ALT     -0.535100
      7 H          -1.8200    0.3030   -0.9070 hn        1 ALT      0.365300
      8 H2         -1.8200    1.2190    0.2670 hn        1 ALT      0.365300
      9 HA          0.2320    1.2190   -0.5160 h1        1 ALT      0.091700
     10 HB1        -0.0630   -0.2610    1.8820 hc        1 ALT      0.050700
     11 HB2         1.3670    0.2290    1.3760 hc        1 ALT      0.050700
     12 HB3         0.2520    1.2980    1.7700 hc        1 ALT      0.050700
     13 HXT         1.4510   -1.4480   -2.2220 ho        1 ALT      0.445000
@<TRIPOS>BOND
     1    1    2 1   
     2    1    7 1   
     3    1    8 1   
     4    2    3 1   
     5    2    4 1   
     6    2    9 1   
     7    3   10 1   
     8    3   11 1   
     9    3   12 1   
    10    4    5 2   
    11    4    6 1   
    12    6   13 1   
@<TRIPOS>SUBSTRUCTURE
     1 ALT         1 TEMP              0 ****  ****    0 ROOT
