@<TRIPOS>MOLECULE
ALT
   13    12     1     0     0
SMALL
bcc


@<TRIPOS>ATOM
      1 N          -1.4260    0.4820    1.2070 n3        1 ALT     -0.905800
      2 CA          0.0100    0.3470    1.0670 c3        1 ALT      0.125500
      3 CB          0.6790   -0.6870    1.9780 c3        1 ALT     -0.132100
      4 C           0.4020    0.0140   -0.3710 c         1 ALT      0.430500
      5 S          -0.3760   -0.9170   -1.3530 s         1 ALT     -0.403400
      6 OXT         1.5670    0.6600   -0.6560 oh        1 ALT     -0.535100
      7 H          -1.6790    0.4210    2.1740 hn        1 ALT      0.365300
      8 H2         -1.9100   -0.2290    0.6880 hn        1 ALT      0.365300
      9 HA          0.4490    1.3630    1.3180 h1        1 ALT      0.091700
     10 HB1         0.5010   -0.4220    3.0480 hc        1 ALT      0.050700
     11 HB2         0.2760   -1.7110    1.7910 hc        1 ALT      0.050700
     12 HB3         1.7800   -0.6920    1.7920 hc        1 ALT      0.050700
     13 HXT         1.8310    0.4490   -1.5690 ho        1 ALT      0.445000
@<TRIPOS>BOND
     1    1    2 1   
     2    1    7 1   
     3    1    8 1   
     4    2    3 1   
     5    2    4 1   
     6    2    9 1   
     7    3   10 1   
     8    3   11 1   
     9    3   12 1   
    10    4    5 2   
    11    4    6 1   
    12    6   13 1   
@<TRIPOS>SUBSTRUCTURE
     1 ALT         1 TEMP              0 ****  ****    0 ROOT
