@<TRIPOS>MOLECULE
ALU
   14    13     1     0     0
SMALL
bcc


@<TRIPOS>ATOM
      1 O3         -1.1870   -0.9610    0.1280 os        1 ALU     -0.568200
      2 C5         -2.5240   -0.5720    0.1410 c3        1 ALU      0.160700
      3 C3          2.4480    0.4570    0.1140 c3        1 ALU     -0.223100
      4 C2          1.3340   -0.4460   -0.2910 c         1 ALU      0.423100
      5 O5          1.5410   -1.6260   -0.6040 o         1 ALU     -0.528100
      6 O2         -0.5450    0.6760   -1.6960 o         1 ALU     -0.839000
      7 O1         -0.2760    1.2690    0.8140 o         1 ALU     -0.839000
      8 P1         -0.2040    0.3020   -0.3070 p5        1 ALU      1.219400
      9 H5C1       -2.6640    0.2580    0.8840 h1        1 ALU      0.012033
     10 H5C2       -2.8190   -0.2130   -0.8800 h1        1 ALU      0.012033
     11 H5C3       -3.1420   -1.4580    0.4320 h1        1 ALU      0.012033
     12 H3C1        3.1180    0.6830   -0.7540 hc        1 ALU      0.053033
     13 H3C2        2.0220    1.4110    0.5160 hc        1 ALU      0.053033
     14 H3C3        3.0790   -0.0180    0.9070 hc        1 ALU      0.053033
@<TRIPOS>BOND
     1    1    2 1   
     2    1    8 1   
     3    2    9 1   
     4    2   10 1   
     5    2   11 1   
     6    3    4 1   
     7    3   12 1   
     8    3   13 1   
     9    3   14 1   
    10    4    5 2   
    11    4    8 1   
    12    6    8 1   
    13    7    8 1   
@<TRIPOS>SUBSTRUCTURE
     1 ALU         1 TEMP              0 ****  ****    0 ROOT
