@<TRIPOS>MOLECULE
ALU
   14    13     1     0     0
SMALL
bcc


@<TRIPOS>ATOM
      1 O3         -0.1010   -0.0420   -0.1060 os        1 ALU     -0.567200
      2 C5          1.2700    0.0340    0.1260 c3        1 ALU      0.159700
      3 C3         -3.4610   -0.1510    2.0020 c3        1 ALU     -0.238100
      4 C2         -2.5660   -0.1400    0.8120 c         1 ALU      0.425100
      5 O5         -2.9930   -0.1940   -0.3470 o         1 ALU     -0.528100
      6 O2         -0.6050   -1.3090    2.0110 o         1 ALU     -0.841500
      7 O1         -0.7360    1.2860    1.9370 o         1 ALU     -0.841500
      8 P1         -0.9460   -0.0440    1.3200 p5        1 ALU      1.220400
      9 H5C1        1.7910    0.0320   -0.8640 h1        1 ALU      0.012033
     10 H5C2        1.5030    0.9790    0.6830 h1        1 ALU      0.012033
     11 H5C3        1.5950   -0.8500    0.7350 h1        1 ALU      0.012033
     12 H3C1       -4.5440   -0.2130    1.7500 hc        1 ALU      0.058700
     13 H3C2       -3.2600    0.7850    2.5830 hc        1 ALU      0.058700
     14 H3C3       -3.1690   -1.0270    2.6340 hc        1 ALU      0.058700
@<TRIPOS>BOND
     1    1    2 1   
     2    1    8 1   
     3    2    9 1   
     4    2   10 1   
     5    2   11 1   
     6    3    4 1   
     7    3   12 1   
     8    3   13 1   
     9    3   14 1   
    10    4    5 2   
    11    4    8 1   
    12    6    8 1   
    13    7    8 1   
@<TRIPOS>SUBSTRUCTURE
     1 ALU         1 TEMP              0 ****  ****    0 ROOT
