@<TRIPOS>MOLECULE
ALU
   14    13     1     0     0
SMALL
bcc


@<TRIPOS>ATOM
      1 O3         -0.1030   -0.0170   -0.1060 os        1 ALU     -0.567200
      2 C5          1.2680    0.0610    0.1250 c3        1 ALU      0.159700
      3 C3         -3.4590   -0.1770    2.0030 c3        1 ALU     -0.238100
      4 C2         -2.5660   -0.1410    0.8120 c         1 ALU      0.425100
      5 O5         -2.9940   -0.1760   -0.3470 o         1 ALU     -0.528100
      6 O2         -0.5990   -1.3210    1.9900 o         1 ALU     -0.841500
      7 O1         -0.7410    1.2740    1.9590 o         1 ALU     -0.841500
      8 P1         -0.9460   -0.0460    1.3200 p5        1 ALU      1.220400
      9 H5C1        1.7880    0.0770   -0.8660 h1        1 ALU      0.012033
     10 H5C2        1.4980    0.9980    0.6980 h1        1 ALU      0.012033
     11 H5C3        1.5980   -0.8320    0.7190 h1        1 ALU      0.012033
     12 H3C1       -4.5420   -0.2400    1.7500 hc        1 ALU      0.058700
     13 H3C2       -3.2630    0.7490    2.6000 hc        1 ALU      0.058700
     14 H3C3       -3.1620   -1.0640    2.6190 hc        1 ALU      0.058700
@<TRIPOS>BOND
     1    1    2 1   
     2    1    8 1   
     3    2    9 1   
     4    2   10 1   
     5    2   11 1   
     6    3    4 1   
     7    3   12 1   
     8    3   13 1   
     9    3   14 1   
    10    4    5 2   
    11    4    8 1   
    12    6    8 1   
    13    7    8 1   
@<TRIPOS>SUBSTRUCTURE
     1 ALU         1 TEMP              0 ****  ****    0 ROOT
