@<TRIPOS>MOLECULE
ALU
   14    13     1     0     0
SMALL
bcc


@<TRIPOS>ATOM
      1 O3          1.0710    0.0730   -1.1850 os        1 ALU     -0.568200
      2 C5          2.4810    0.0730   -1.1850 c3        1 ALU      0.160700
      3 C3         -2.4370   -0.0290    1.0620 c3        1 ALU     -0.223100
      4 C2         -1.4500   -0.2400   -0.0650 c         1 ALU      0.423100
      5 O5         -1.8410   -0.6200   -1.1510 o         1 ALU     -0.528100
      6 O2          0.8910   -1.0100    1.0880 o         1 ALU     -0.839000
      7 O1          0.4950    1.4150    0.8730 o         1 ALU     -0.839000
      8 P1          0.3180    0.0730    0.2040 p5        1 ALU      1.219400
      9 H5C1        2.8060    0.7370   -0.5480 h1        1 ALU      0.012033
     10 H5C2        2.8060    0.2920   -2.0790 h1        1 ALU      0.012033
     11 H5C3        2.8060   -0.8110   -0.9280 h1        1 ALU      0.012033
     12 H3C1       -3.2730   -0.4870    0.8530 hc        1 ALU      0.053033
     13 H3C2       -2.0660   -0.3900    1.8900 hc        1 ALU      0.053033
     14 H3C3       -2.6070    0.9260    1.1720 hc        1 ALU      0.053033
@<TRIPOS>BOND
     1    1    2 1   
     2    1    8 1   
     3    2    9 1   
     4    2   10 1   
     5    2   11 1   
     6    3    4 1   
     7    3   12 1   
     8    3   13 1   
     9    3   14 1   
    10    4    5 2   
    11    4    8 1   
    12    6    8 1   
    13    7    8 1   
@<TRIPOS>SUBSTRUCTURE
     1 ALU         1 TEMP              0 ****  ****    0 ROOT
