@<TRIPOS>MOLECULE
ALV
   15    14     1     0     0
SMALL
bcc


@<TRIPOS>ATOM
      1 C          -0.6470    0.0040    0.3450 c3        1 ALV      0.325900
      2 N           1.5020    1.1880    0.1240 n3        1 ALV     -0.917800
      3 O          -1.3580   -1.0780   -0.2150 oh        1 ALV     -0.632800
      4 CA          0.7660    0.0100   -0.2990 c3        1 ALV      0.153500
      5 CB          1.4820   -1.2850    0.0750 c3        1 ALV     -0.089100
      6 OXT        -1.4080    1.1430    0.0180 oh        1 ALV     -0.632800
      7 H           2.3540    1.2660   -0.3930 hn        1 ALV      0.359300
      8 H2          0.9460    2.0100   -0.0010 hn        1 ALV      0.359300
      9 HO         -2.2120   -1.1210    0.2320 ho        1 ALV      0.414000
     10 HA          0.6040   -0.0020   -1.4230 h1        1 ALV      0.019700
     11 HB1         0.8500   -2.1490   -0.2430 hc        1 ALV      0.046033
     12 HB2         2.4700   -1.3490   -0.4390 hc        1 ALV      0.046033
     13 HB3         1.6490   -1.3450    1.1770 hc        1 ALV      0.046033
     14 HXT        -1.4810    1.1880   -0.9440 ho        1 ALV      0.414000
     15 H1         -0.6050   -0.0290    1.4680 h2        1 ALV      0.087700
@<TRIPOS>BOND
     1    1    3 1   
     2    1    4 1   
     3    1    6 1   
     4    1   15 1   
     5    2    4 1   
     6    2    7 1   
     7    2    8 1   
     8    3    9 1   
     9    4    5 1   
    10    4   10 1   
    11    5   11 1   
    12    5   12 1   
    13    5   13 1   
    14    6   14 1   
@<TRIPOS>SUBSTRUCTURE
     1 ALV         1 TEMP              0 ****  ****    0 ROOT
