@<TRIPOS>MOLECULE
ALV
   15    14     1     0     0
SMALL
bcc


@<TRIPOS>ATOM
      1 C          -1.0180   -0.1360   -0.0830 c3        1 ALV      0.336900
      2 N           1.0030    0.9310   -0.8910 n3        1 ALV     -0.922800
      3 O          -1.3940    1.2290    0.0290 oh        1 ALV     -0.637800
      4 CA          0.4990   -0.2360   -0.2070 c3        1 ALV      0.147500
      5 CB          1.0960   -0.3150    1.1320 c3        1 ALV     -0.095100
      6 OXT        -1.6220   -0.6990   -1.2340 oh        1 ALV     -0.637800
      7 H           1.8840    1.0960   -0.6200 hn        1 ALV      0.362300
      8 H2          0.9820    0.7830   -1.8210 hn        1 ALV      0.362300
      9 HO         -2.2320    1.2840    0.3640 ho        1 ALV      0.425500
     10 HA          0.7370   -1.0530   -0.7250 h1        1 ALV      0.029700
     11 HB1         0.9770    0.5470    1.5960 hc        1 ALV      0.045367
     12 HB2         0.6510   -1.0340    1.6500 hc        1 ALV      0.045367
     13 HB3         2.0540   -0.5130    1.0520 hc        1 ALV      0.045367
     14 HXT        -2.2920   -1.2430   -0.9860 ho        1 ALV      0.425500
     15 H1         -1.3250   -0.6410    0.7430 h2        1 ALV      0.067700
@<TRIPOS>BOND
     1    1    3 1   
     2    1    4 1   
     3    1    6 1   
     4    1   15 1   
     5    2    4 1   
     6    2    7 1   
     7    2    8 1   
     8    3    9 1   
     9    4    5 1   
    10    4   10 1   
    11    5   11 1   
    12    5   12 1   
    13    5   13 1   
    14    6   14 1   
@<TRIPOS>SUBSTRUCTURE
     1 ALV         1 TEMP              0 ****  ****    0 ROOT
