@<TRIPOS>MOLECULE
ALW
   34    30     1     0     0
SMALL
bcc


@<TRIPOS>ATOM
      1 S1          2.3490    0.2720    2.2440 ss        1 ALW      1.444000
      2 C11         1.5020    0.7160    3.7540 c2        1 ALW     -0.599000
      3 CX5         2.5340    1.0750    4.8340 c3        1 ALW     -0.137000
      4 C           1.8480    1.2230    6.1540 c3        1 ALW     -0.207000
      5 N          -0.2000    0.3350   -2.3660 n2        1 ALW     -0.165000
      6 C7         -0.7020   -0.6610   -3.1520 c1        1 ALW      0.146000
      7 N1         -0.4260   -1.8550   -2.5510 n2        1 ALW     -0.235000
      8 C3A         0.2430   -1.5990   -1.4020 c1        1 ALW      0.011000
      9 C7A         0.3830   -0.2360   -1.2870 c1        1 ALW     -0.080000
     10 C1          0.7020   -2.4490   -0.3640 c1        1 ALW     -0.144000
     11 C2          1.2970   -1.9020    0.7740 c1        1 ALW     -0.046000
     12 C3          1.4400   -0.5170    0.8900 c2        1 ALW     -0.575000
     13 C4          0.9880    0.3190   -0.1290 c2        1 ALW     -0.008000
     14 N2         -1.3070   -0.0660   -4.2940 n2        1 ALW     -0.285000
     15 C5         -2.7430    0.1160   -4.3390 c2        1 ALW      0.405000
     16 O          -3.3250    1.0440   -5.2760 os        1 ALW     -0.268000
     17 C6         -4.7680    0.9690   -5.3560 c3        1 ALW     -0.053000
     18 O1         -3.4720   -0.5500   -3.5950 o         1 ALW     -0.396000
     19 O2          3.7460    0.5520    2.0990 o         1 ALW     -0.783000
     20 H111        0.9180    1.4940    3.5860 ha        1 ALW      0.126500
     21 H112        0.9610   -0.0380    4.0580 ha        1 ALW      0.126500
     22 H3'1        3.2080    0.3610    4.8940 hc        1 ALW      0.084000
     23 H3'2        2.9690    1.9130    4.6000 hc        1 ALW      0.084000
     24 HC1         1.2040    1.9570    6.1050 hc        1 ALW      0.075000
     25 HC2         2.5130    1.4170    6.8480 hc        1 ALW      0.075000
     26 HC3         1.3840    0.3980    6.3720 hc        1 ALW      0.075000
     27 H1         -0.6500   -2.6740   -2.8660 DU        1 ALW      0.289000
     28 H2          0.6010   -3.4360   -0.4470 ha        1 ALW      0.145000
     29 HB          1.7110   -2.4890    1.4350 ha        1 ALW      0.168000
     30 H4          1.1780    1.2860   -0.0900 ha        1 ALW      0.145000
     31 HA         -0.8050    0.1600   -4.9990 hn        1 ALW      0.285000
     32 H6C1       -5.1430    0.9880   -4.4580 h1        1 ALW      0.099000
     33 H6C2       -5.1120    1.7430   -5.8750 h1        1 ALW      0.099000
     34 H6C3       -5.0270    0.1350   -5.8020 h1        1 ALW      0.099000
@<TRIPOS>BOND
     1    1   12 1   
     2    1   19 1   
     3    2    3 1   
     4    2   20 1   
     5    2   21 1   
     6    3    4 1   
     7    3   22 1   
     8    3   23 1   
     9    4   24 1   
    10    4   25 1   
    11    4   26 1   
    12    5    6 1   
    13    5    9 1   
    14    6    7 1   
    15    7    8 1   
    16    8   10 1   
    17    9   13 1   
    18   10   28 1   
    19   11   12 1   
    20   11   29 1   
    21   12   13 1   
    22   13   30 1   
    23   14   15 1   
    24   14   31 1   
    25   15   16 1   
    26   15   18 1   
    27   16   17 1   
    28   17   32 1   
    29   17   33 1   
    30   17   34 1   
@<TRIPOS>SUBSTRUCTURE
     1 ALW         1 TEMP              0 ****  ****    0 ROOT
