@<TRIPOS>MOLECULE
ALW
   34    35     1     0     0
SMALL
bcc


@<TRIPOS>ATOM
      1 S1          0.2440    0.6430   -0.9470 s4        1 ALW      1.497000
      2 C11        -0.6590   -0.8180   -1.0750 c3        1 ALW     -0.716000
      3 CX5         3.7390   -0.1500    2.3290 c2        1 ALW     -0.224500
      4 C           4.3480    0.7870    3.0430 c2        1 ALW     -0.224500
      5 N          -1.2290    2.2520   -4.7820 n2        1 ALW     -0.118000
      6 C7         -1.4790    1.6060   -6.1010 c2        1 ALW      0.097000
      7 N1         -0.5520    0.7130   -6.4810 n2        1 ALW     -0.218000
      8 C3A         0.4510    0.6860   -5.4200 c3        1 ALW     -0.097000
      9 C7A        -0.0910    1.7360   -4.3820 c2        1 ALW     -0.125000
     10 C1          0.6340   -0.6400   -4.6650 c3        1 ALW     -0.207000
     11 C2          1.0230   -0.5590   -3.2740 c1        1 ALW     -0.045000
     12 C3          1.1190    0.6960   -2.5540 c3        1 ALW     -0.628000
     13 C4          0.7380    1.9200   -3.2360 c1        1 ALW      0.079000
     14 C5         -2.7520    1.8140   -8.2030 cx        1 ALW      0.216000
     15 O          -3.7830    2.6060   -8.7190 oh        1 ALW     -0.298000
     16 C6         -2.3290    0.6570   -9.0530 cx        1 ALW     -0.047000
     17 O1         -1.6010    1.9080   -9.0550 os        1 ALW     -0.295000
     18 O2          1.2920    0.3960    0.0470 o         1 ALW     -0.744000
     19 H111       -0.0700   -1.7000   -1.4310 h1        1 ALW      0.145000
     20 H112       -1.0650   -1.0920   -0.0700 h1        1 ALW      0.145000
     21 H3'1       -1.5200   -0.6870   -1.7710 h1        1 ALW      0.145000
     22 H3'2        2.9490    0.0740    1.5950 ha        1 ALW      0.112250
     23 HC1         3.9850   -1.2160    2.4250 ha        1 ALW      0.112250
     24 HC2         4.1040    1.8540    2.9490 ha        1 ALW      0.112250
     25 HC3         5.1360    0.5620    3.7740 ha        1 ALW      0.112250
     26 H1          1.4350    1.0120   -5.8560 h1        1 ALW      0.149000
     27 H2          1.4070   -1.2640   -5.2030 hc        1 ALW      0.164500
     28 HB         -0.3170   -1.2540   -4.6910 hc        1 ALW      0.164500
     29 H4          2.2110    0.7930   -2.2340 h1        1 ALW      0.240000
     30 HA         -3.1900    2.6740   -6.3990 hn        1 ALW      0.242000
     31 H6C1       -3.3860    3.4410   -9.0110 ho        1 ALW      0.232000
     32 H6C2       -2.8810    0.4530   -9.9890 h1        1 ALW      0.137500
     33 H6C3       -1.7780   -0.2010   -8.6280 h1        1 ALW      0.137500
     34 N2         -2.6690    1.9040   -6.7750 n3        1 ALW     -0.253000
@<TRIPOS>BOND
     1    1    2 1   
     2    1   12 1   
     3    1   18 1   
     4    2   19 1   
     5    2   20 1   
     6    2   21 1   
     7    3    4 1   
     8    3   22 1   
     9    3   23 1   
    10    4   24 1   
    11    4   25 1   
    12    5    6 1   
    13    5    9 1   
    14    6    7 1   
    15    6   34 1   
    16    7    8 1   
    17    8    9 1   
    18    8   10 1   
    19    8   26 1   
    20    9   13 1   
    21   10   11 1   
    22   10   27 1   
    23   10   28 1   
    24   11   12 1   
    25   12   13 1   
    26   12   29 1   
    27   14   15 1   
    28   14   16 1   
    29   14   17 1   
    30   14   34 1   
    31   15   31 1   
    32   16   17 1   
    33   16   32 1   
    34   16   33 1   
    35   30   34 1   
@<TRIPOS>SUBSTRUCTURE
     1 ALW         1 TEMP              0 ****  ****    0 ROOT
