@<TRIPOS>MOLECULE
ALW
   34    35     1     0     0
SMALL
bcc


@<TRIPOS>ATOM
      1 S1          0.1810    0.7680    3.6670 sx        1 ALW      0.317400
      2 C11         0.3270   -0.8650    4.3110 c3        1 ALW     -0.094100
      3 CX5         0.2050   -0.8070    5.8140 c3        1 ALW     -0.058400
      4 C           0.2980   -2.1800    6.4310 c3        1 ALW     -0.089100
      5 N           1.2620    0.7610   -1.4750 nc        1 ALW     -0.580100
      6 C7          0.4400    0.3650   -2.4950 cd        1 ALW      0.474400
      7 N1         -0.8260   -0.1060   -2.0380 na        1 ALW     -0.276300
      8 C3A        -0.7870   -0.0190   -0.6480 ca        1 ALW     -0.039200
      9 C7A         0.5130    0.5330   -0.3060 ca        1 ALW      0.060400
     10 C1         -1.7240   -0.3420    0.3430 ca        1 ALW     -0.144000
     11 C2         -1.3600   -0.1110    1.6580 ca        1 ALW     -0.060000
     12 C3         -0.1060    0.4270    2.0130 ca        1 ALW     -0.153500
     13 C4          0.8350    0.7460    1.0400 ca        1 ALW      0.016000
     14 C5          0.0380   -0.1560   -4.8550 c         1 ALW      0.751100
     15 O           0.6520   -0.0580   -6.0830 os        1 ALW     -0.428900
     16 C6         -0.0900   -0.6080   -7.1780 c3        1 ALW      0.137700
     17 O1         -1.0670   -0.7190   -4.7700 o         1 ALW     -0.587000
     18 O2          1.5540    1.3450    3.7470 o         1 ALW     -0.509200
     19 H111        1.3030   -1.3370    4.0370 h1        1 ALW      0.086200
     20 H112       -0.4770   -1.5140    3.8850 h1        1 ALW      0.086200
     21 H3'1       -0.7750   -0.3390    6.0980 hc        1 ALW      0.044200
     22 H3'2        1.0230   -0.1570    6.2280 hc        1 ALW      0.044200
     23 HC1         0.2040   -2.1110    7.5420 hc        1 ALW      0.035700
     24 HC2        -0.5160   -2.8410    6.0460 hc        1 ALW      0.035700
     25 HC3         1.2790   -2.6540    6.1870 hc        1 ALW      0.035700
     26 H1         -1.5350   -0.5040   -2.6050 hn        1 ALW      0.337700
     27 H2         -2.7050   -0.7600    0.0840 ha        1 ALW      0.142000
     28 HB         -2.0780   -0.3570    2.4580 ha        1 ALW      0.129000
     29 H4          1.8160    1.1650    1.3290 ha        1 ALW      0.181000
     30 HA          1.6790    0.8230   -4.0800 hn        1 ALW      0.371500
     31 H6C1        0.5810   -0.4190   -8.0530 h1        1 ALW      0.059367
     32 H6C2       -0.2580   -1.6990   -7.0130 h1        1 ALW      0.059367
     33 H6C3       -1.0660   -0.0760   -7.2820 h1        1 ALW      0.059367
     34 N2          0.7820    0.4450   -3.8570 n         1 ALW     -0.443400
@<TRIPOS>BOND
     1    1    2 1   
     2    1   12 1   
     3    1   18 2   
     4    2    3 1   
     5    2   19 1   
     6    2   20 1   
     7    3    4 1   
     8    3   21 1   
     9    3   22 1   
    10    4   23 1   
    11    4   24 1   
    12    4   25 1   
    13    5    6 2   
    14    5    9 1   
    15    6    7 1   
    16    6   34 1   
    17    7    8 1   
    18    7   26 1   
    19    8    9 ar  
    20    8   10 ar  
    21    9   13 ar  
    22   10   11 ar  
    23   10   27 1   
    24   11   12 ar  
    25   11   28 1   
    26   12   13 ar  
    27   13   29 1   
    28   14   15 1   
    29   14   17 2   
    30   14   34 1   
    31   15   16 1   
    32   16   31 1   
    33   16   32 1   
    34   16   33 1   
    35   30   34 1   
@<TRIPOS>SUBSTRUCTURE
     1 ALW         1 TEMP              0 ****  ****    0 ROOT
