@<TRIPOS>MOLECULE
ALW
   34    33     1     0     0
SMALL
bcc


@<TRIPOS>ATOM
      1 S1         -0.8310    0.4030    0.1240 s4        1 ALW      1.566000
      2 C11         0.0100   -1.1170    0.0440 c3        1 ALW     -0.696000
      3 CX5         3.2790    0.3180    0.7210 c2        1 ALW     -0.228000
      4 C           4.2150    0.6960   -0.1390 c2        1 ALW     -0.228000
      5 N          -1.4500    2.5730   -4.5000 n2        1 ALW     -0.106000
      6 C7         -1.1840    2.4400   -5.9580 c2        1 ALW      0.105000
      7 N1         -0.4910    1.3530   -6.3120 n2        1 ALW     -0.164000
      8 C3A        -0.2160    0.6180   -5.0710 c3        1 ALW     -0.096000
      9 C7A        -0.8870    1.5070   -3.9730 c2        1 ALW      0.031000
     10 C1         -0.7390   -0.8270   -5.0470 c3        1 ALW     -0.170000
     11 C2         -0.3760   -1.6040   -3.8730 c1        1 ALW     -0.032000
     12 C3         -0.7890    0.8420   -1.4550 c1        1 ALW     -0.547000
     13 C4         -0.8360    1.1620   -2.6140 c1        1 ALW      0.002000
     14 C5         -1.5830    3.3940   -8.1830 c2        1 ALW      0.410000
     15 O          -2.0670    4.5480   -8.7600 oh        1 ALW     -0.320000
     16 C6         -0.2620   -1.5920   -6.2800 c3        1 ALW     -0.179000
     17 O1         -1.1770    2.5030   -8.9390 o         1 ALW     -0.345000
     18 O2          0.0710    1.3060    0.8740 o         1 ALW     -0.769000
     19 H111       -0.3310   -1.7430    0.9030 h1        1 ALW      0.135000
     20 H112       -0.2050   -1.6790   -0.8930 h1        1 ALW      0.135000
     21 H3'1        1.1180   -1.0100    0.1330 h1        1 ALW      0.135000
     22 H3'2        2.3900    0.9290    0.9460 ha        1 ALW      0.114000
     23 HC1         3.3350   -0.6310    1.2720 ha        1 ALW      0.114000
     24 HC2         4.1660    1.6470   -0.6860 ha        1 ALW      0.114000
     25 HC3         5.1030    0.0890   -0.3590 ha        1 ALW      0.114000
     26 H1          0.9000    0.6150   -4.9080 h1        1 ALW      0.152000
     27 H2         -1.8730   -0.8070   -5.0710 hc        1 ALW      0.155000
     28 HB         -0.5160   -2.6750   -6.1780 hc        1 ALW      0.098000
     29 H4          0.3230   -1.1390   -3.1590 ha        1 ALW      0.041000
     30 HA         -2.0630    4.2610   -6.3800 hn        1 ALW      0.279000
     31 H6C1       -1.9910    4.4460   -9.7240 ho        1 ALW      0.265000
     32 H6C2       -0.7600   -1.1880   -7.1940 hc        1 ALW      0.098000
     33 H6C3        0.8420   -1.4830   -6.4000 hc        1 ALW      0.098000
     34 N2         -1.6590    3.4500   -6.8000 ns        1 ALW     -0.279000
@<TRIPOS>BOND
     1    1    2 1   
     2    1   12 1   
     3    1   18 1   
     4    2   19 1   
     5    2   20 1   
     6    2   21 1   
     7    3    4 1   
     8    3   22 1   
     9    3   23 1   
    10    4   24 1   
    11    4   25 1   
    12    5    6 1   
    13    5    9 1   
    14    6    7 1   
    15    6   34 1   
    16    7    8 1   
    17    8    9 1   
    18    8   10 1   
    19    8   26 1   
    20    9   13 1   
    21   10   11 1   
    22   10   16 1   
    23   10   27 1   
    24   11   29 1   
    25   12   13 1   
    26   14   15 1   
    27   14   17 1   
    28   14   34 1   
    29   15   31 1   
    30   16   28 1   
    31   16   32 1   
    32   16   33 1   
    33   30   34 1   
@<TRIPOS>SUBSTRUCTURE
     1 ALW         1 TEMP              0 ****  ****    0 ROOT
