@<TRIPOS>MOLECULE
ALW
   34    33     1     0     0
SMALL
bcc


@<TRIPOS>ATOM
      1 S1          1.2340   -1.2940   -0.9410 s4        1 ALW      1.442000
      2 C11         2.5520   -0.1660   -1.0830 c3        1 ALW     -0.684000
      3 CX5         2.6650    0.4540    2.5050 c2        1 ALW     -0.228500
      4 C           3.3520   -0.1560    3.4610 c2        1 ALW     -0.228500
      5 N          -0.5850    2.7310   -4.9640 n2        1 ALW     -0.147000
      6 C7         -1.3690    2.2820   -5.9650 c2        1 ALW      0.174000
      7 N1         -1.6660    0.8700   -5.8850 na        1 ALW     -0.261000
      8 C3A        -0.8660    0.3700   -4.8250 c2        1 ALW      0.096000
      9 C7A        -0.2760    1.5780   -4.1640 c2        1 ALW     -0.341000
     10 C1         -0.6470   -0.9290   -4.5140 c2        1 ALW     -0.240000
     11 C2          0.1850   -1.3350   -3.4100 c2        1 ALW      0.013000
     12 C3          0.2160   -0.7510   -2.2020 c2        1 ALW     -0.666000
     13 C4          0.3970    1.5790   -3.0010 c1        1 ALW      0.284000
     14 C5         -2.2120    2.7630   -8.2530 c2        1 ALW      0.403000
     15 O          -2.6520    3.5450   -9.1080 o         1 ALW     -0.362000
     16 C6         -2.3180    1.1210   -9.9600 c3        1 ALW     -0.051000
     17 O1         -1.9830    1.4500   -8.6050 os        1 ALW     -0.289000
     18 O2          0.5390   -0.9210    0.3250 o         1 ALW     -0.781000
     19 H111        3.3770   -0.6270   -1.6720 h1        1 ALW      0.132000
     20 H112        2.2720    0.7940   -1.5790 h1        1 ALW      0.132000
     21 H3'1        2.9400    0.0910   -0.0670 h1        1 ALW      0.132000
     22 H3'2        1.7440    0.0360    2.0670 ha        1 ALW      0.114250
     23 HC1         2.9670    1.4260    2.0910 ha        1 ALW      0.114250
     24 HC2         3.0490   -1.1240    3.8810 ha        1 ALW      0.114250
     25 HC3         4.2670    0.2650    3.8990 ha        1 ALW      0.114250
     26 H1         -1.8250    0.3310   -6.7050 hn        1 ALW      0.253000
     27 H2         -1.0760   -1.7380   -5.1260 ha        1 ALW      0.152000
     28 HB          0.8380   -2.2020   -3.6320 ha        1 ALW      0.126000
     29 H4         -0.5410    0.0070   -1.9180 h4        1 ALW      0.181000
     30 HA         -1.9720    4.0950   -6.7360 hn        1 ALW      0.288000
     31 H6C1       -1.7080    1.7380  -10.6620 h1        1 ALW      0.100333
     32 H6C2       -2.0560    0.0360  -10.0260 h1        1 ALW      0.100333
     33 H6C3       -3.4070    1.2970  -10.1340 h1        1 ALW      0.100333
     34 N2         -1.9390    3.1150   -6.9400 n         1 ALW     -0.288000
@<TRIPOS>BOND
     1    1    2 1   
     2    1   12 1   
     3    1   18 1   
     4    2   19 1   
     5    2   20 1   
     6    2   21 1   
     7    3    4 1   
     8    3   22 1   
     9    3   23 1   
    10    4   24 1   
    11    4   25 1   
    12    5    6 1   
    13    5    9 1   
    14    6    7 1   
    15    6   34 1   
    16    7    8 1   
    17    7   26 1   
    18    8    9 1   
    19    8   10 1   
    20    9   13 1   
    21   10   11 1   
    22   10   27 1   
    23   11   12 1   
    24   11   28 1   
    25   12   29 1   
    26   14   15 1   
    27   14   17 1   
    28   14   34 1   
    29   16   17 1   
    30   16   31 1   
    31   16   32 1   
    32   16   33 1   
    33   30   34 1   
@<TRIPOS>SUBSTRUCTURE
     1 ALW         1 TEMP              0 ****  ****    0 ROOT
