@<TRIPOS>MOLECULE
ALY
   28    27     1     0     0
SMALL
bcc


@<TRIPOS>ATOM
      1 OH          1.2000    0.2500    4.7910 o         1 ALY     -0.621100
      2 CH         -0.0330    0.1520    4.6180 c         1 ALY      0.650100
      3 CH3        -1.0000    0.4790    5.7340 c3        1 ALY     -0.176100
      4 NZ         -0.5720   -0.2930    3.4310 n         1 ALY     -0.563900
      5 CE          0.2120   -0.5150    2.2430 c3        1 ALY      0.081000
      6 CD         -0.3790    0.1250    0.9880 c3        1 ALY     -0.100400
      7 CG          0.4100   -0.2880   -0.2380 c3        1 ALY     -0.073400
      8 CB         -0.1970    0.3030   -1.4920 c3        1 ALY     -0.064400
      9 CA          0.4700   -0.2130   -2.7660 c3        1 ALY      0.018500
     10 N           1.8630    0.1970   -2.8960 n3        1 ALY     -0.891800
     11 C          -0.4370    0.1760   -3.9810 c         1 ALY      0.887600
     12 O           0.1030    0.7610   -4.9640 o         1 ALY     -0.844300
     13 OXT        -1.6590   -0.1350   -3.9200 o         1 ALY     -0.844300
     14 HH31       -0.4170    0.7890    6.6340 hc        1 ALY      0.058367
     15 HH32       -1.6750    1.3150    5.4330 hc        1 ALY      0.058367
     16 HH33       -1.6180   -0.4140    5.9920 hc        1 ALY      0.058367
     17 HZ         -1.5560   -0.2490    3.3130 hn        1 ALY      0.301500
     18 HE3         1.2560   -0.1210    2.4110 h1        1 ALY      0.057700
     19 HE2         0.2900   -1.6300    2.0820 h1        1 ALY      0.057700
     20 HD3        -1.4500   -0.1870    0.8600 hc        1 ALY      0.038200
     21 HD2        -0.3670    1.2420    1.0840 hc        1 ALY      0.038200
     22 HG3         1.4750    0.0460   -0.1320 hc        1 ALY      0.040700
     23 HG2         0.4200   -1.4070   -0.3190 hc        1 ALY      0.040700
     24 HB3        -1.2850    0.0310   -1.5590 hc        1 ALY      0.046700
     25 HB2        -0.1340    1.4220   -1.4490 hc        1 ALY      0.046700
     26 HCA         0.4750   -1.3420   -2.7280 h1        1 ALY      0.040700
     27 H           2.1350    0.0220   -3.8500 hn        1 ALY      0.330800
     28 H2          1.9140    1.1930   -2.7710 hn        1 ALY      0.330800
@<TRIPOS>BOND
     1    1    2 2   
     2    2    3 1   
     3    2    4 1   
     4    3   14 1   
     5    3   15 1   
     6    3   16 1   
     7    4    5 1   
     8    4   17 1   
     9    5    6 1   
    10    5   18 1   
    11    5   19 1   
    12    6    7 1   
    13    6   20 1   
    14    6   21 1   
    15    7    8 1   
    16    7   22 1   
    17    7   23 1   
    18    8    9 1   
    19    8   24 1   
    20    8   25 1   
    21    9   10 1   
    22    9   11 1   
    23    9   26 1   
    24   10   27 1   
    25   10   28 1   
    26   11   12 1   
    27   11   13 1   
@<TRIPOS>SUBSTRUCTURE
     1 ALY         1 TEMP              0 ****  ****    0 ROOT
