@<TRIPOS>MOLECULE
ALZ
   50    51     1     0     0
SMALL
bcc


@<TRIPOS>ATOM
      1 C14        -0.9670    1.0650   -0.7340 c         1 ALZ      0.727100
      2 O14        -0.5070    1.0120   -1.8900 o         1 ALZ     -0.599000
      3 O15        -2.0940    0.3310   -0.4380 os        1 ALZ     -0.429900
      4 C16        -2.5930   -0.4730   -1.5300 c3        1 ALZ      0.195700
      5 C17        -3.8080   -1.1820   -1.0360 ca        1 ALZ     -0.099300
      6 C18        -4.9080   -1.3280   -1.8900 ca        1 ALZ     -0.110000
      7 C19        -6.0340   -2.0280   -1.4610 ca        1 ALZ     -0.132000
      8 C20        -6.0730   -2.5750   -0.1780 ca        1 ALZ     -0.122000
      9 C21        -4.9810   -2.4240    0.6760 ca        1 ALZ     -0.132000
     10 C22        -3.8490   -1.7310    0.2490 ca        1 ALZ     -0.110000
     11 N8         -0.4060    1.7300    0.3490 n         1 ALZ     -0.415800
     12 C9          0.4830    2.8640    0.0810 c3        1 ALZ      0.021700
     13 C8          1.9570    2.4030    0.0480 c         1 ALZ      0.626100
     14 O8          2.7710    2.7430    0.9260 o         1 ALZ     -0.603100
     15 C10         0.2440    3.9100    1.1900 c3        1 ALZ     -0.089400
     16 C11        -0.8400    3.3460    2.1010 c3        1 ALZ     -0.094400
     17 C12        -1.1730    1.9440    1.5720 c3        1 ALZ      0.077000
     18 N1          7.2530   -3.3020    1.2600 n3        1 ALZ     -0.915800
     19 C2          6.9590   -2.1730    0.4100 c3        1 ALZ      0.158800
     20 C3          5.5020   -1.7190    0.4910 c3        1 ALZ     -0.082400
     21 C4          5.2850   -0.5140   -0.3990 c3        1 ALZ     -0.080400
     22 C5          3.8320   -0.0600   -0.3090 c3        1 ALZ      0.107800
     23 N6          3.5460    1.0570   -1.2380 n3        1 ALZ     -0.537200
     24 N7          2.3440    1.6800   -1.0820 n         1 ALZ     -0.422300
     25 H161       -2.8200    0.2030   -2.3970 h1        1 ALZ      0.066200
     26 H162       -1.7920   -1.2020   -1.8290 h1        1 ALZ      0.066200
     27 H18        -4.8830   -0.8920   -2.9000 ha        1 ALZ      0.138000
     28 H19        -6.8950   -2.1450   -2.1360 ha        1 ALZ      0.134000
     29 H20        -6.9640   -3.1250    0.1580 ha        1 ALZ      0.133000
     30 H21        -5.0110   -2.8530    1.6890 ha        1 ALZ      0.134000
     31 H22        -2.9860   -1.6050    0.9200 ha        1 ALZ      0.138000
     32 H9          0.2460    3.3150   -0.9300 h1        1 ALZ      0.085700
     33 H101        1.1880    4.0980    1.7620 hc        1 ALZ      0.076700
     34 H102       -0.0810    4.8740    0.7270 hc        1 ALZ      0.076700
     35 H111       -0.4810    3.2840    3.1570 hc        1 ALZ      0.058200
     36 H112       -1.7510    3.9930    2.0850 hc        1 ALZ      0.058200
     37 H121       -2.2760    1.8320    1.3830 h1        1 ALZ      0.065700
     38 H122       -0.8620    1.1540    2.3090 h1        1 ALZ      0.065700
     39 HN11        6.6060   -4.0500    1.1050 hn        1 ALZ      0.348300
     40 HN12        8.1830   -3.6310    1.0910 hn        1 ALZ      0.348300
     41 H21A        7.6220   -1.3230    0.7420 h1        1 ALZ      0.025200
     42 H22A        7.2010   -2.3750   -0.6760 h1        1 ALZ      0.025200
     43 H31         4.8220   -2.5520    0.1720 hc        1 ALZ      0.048700
     44 H32         5.2420   -1.4610    1.5510 hc        1 ALZ      0.048700
     45 H41         5.9680    0.3170   -0.0810 hc        1 ALZ      0.049700
     46 H42         5.5430   -0.7750   -1.4600 hc        1 ALZ      0.049700
     47 H51         3.1590   -0.9140   -0.6010 h1        1 ALZ      0.049200
     48 H52         3.6040    0.2060    0.7640 h1        1 ALZ      0.049200
     49 HN6         4.2730    1.7560   -1.1000 hn        1 ALZ      0.366800
     50 HN7         1.6210    1.2530   -1.6390 hn        1 ALZ      0.354500
@<TRIPOS>BOND
     1    1    2 2   
     2    1    3 1   
     3    1   11 1   
     4    3    4 1   
     5    4    5 1   
     6    4   25 1   
     7    4   26 1   
     8    5    6 ar  
     9    5   10 ar  
    10    6    7 ar  
    11    6   27 1   
    12    7    8 ar  
    13    7   28 1   
    14    8    9 ar  
    15    8   29 1   
    16    9   10 ar  
    17    9   30 1   
    18   10   31 1   
    19   11   12 1   
    20   11   17 1   
    21   12   13 1   
    22   12   15 1   
    23   12   32 1   
    24   13   14 2   
    25   13   24 1   
    26   15   16 1   
    27   15   33 1   
    28   15   34 1   
    29   16   17 1   
    30   16   35 1   
    31   16   36 1   
    32   17   37 1   
    33   17   38 1   
    34   18   19 1   
    35   18   39 1   
    36   18   40 1   
    37   19   20 1   
    38   19   41 1   
    39   19   42 1   
    40   20   21 1   
    41   20   43 1   
    42   20   44 1   
    43   21   22 1   
    44   21   45 1   
    45   21   46 1   
    46   22   23 1   
    47   22   47 1   
    48   22   48 1   
    49   23   24 1   
    50   23   49 1   
    51   24   50 1   
@<TRIPOS>SUBSTRUCTURE
     1 ALZ         1 TEMP              0 ****  ****    0 ROOT
