@<TRIPOS>MOLECULE
ALZ
   50    47     1     0     0
SMALL
bcc


@<TRIPOS>ATOM
      1 C14        -1.4310   -0.4820    1.9110 c1        1 ALZ      0.381000
      2 O14        -0.3460   -1.0330    2.0270 o         1 ALZ     -0.409000
      3 O15        -1.9690    0.2060    2.9780 os        1 ALZ     -0.268000
      4 C16        -0.9530    0.6760    3.9620 c3        1 ALZ      0.038000
      5 C17        -1.6070    1.6310    4.9380 c2        1 ALZ     -0.092000
      6 C18        -1.5670    1.3670    6.3150 c1        1 ALZ     -0.117000
      7 C19        -2.0660    2.3040    7.2190 c1        1 ALZ     -0.126500
      8 C20        -2.6150    3.5250    6.7440 c1        1 ALZ     -0.126500
      9 C21        -2.6530    3.7840    5.3800 c1        1 ALZ     -0.133000
     10 C22        -2.1510    2.8400    4.4710 c2        1 ALZ     -0.103000
     11 N8         -2.1930   -0.6190    0.6670 n2        1 ALZ     -0.274000
     12 C9         -1.7310   -1.1120   -0.4610 c3        1 ALZ     -0.005000
     13 C8         -0.3840   -0.5530   -0.7350 c1        1 ALZ      0.271000
     14 O8         -0.0560    0.4200   -0.2260 o         1 ALZ     -0.366000
     15 C10        -2.8530   -0.6610   -1.4980 c3        1 ALZ     -0.168000
     16 C11        -4.0440   -0.1770   -0.6610 c3        1 ALZ     -0.173000
     17 C12        -3.8000   -0.5380    0.5230 c3        1 ALZ     -0.039000
     18 N1          5.7680   -1.4140   -6.5920 n3        1 ALZ     -0.349000
     19 C2          5.3550   -0.8320   -5.4050 c3        1 ALZ     -0.078000
     20 C3          4.1240   -1.5890   -4.8530 c3        1 ALZ     -0.161000
     21 C4          3.4700   -0.7390   -3.6910 c3        1 ALZ     -0.159000
     22 C5          2.3460   -1.4950   -3.0860 c3        1 ALZ     -0.129000
     23 N6          1.7650   -0.7120   -1.9630 n3        1 ALZ     -0.144000
     24 N7          0.5730   -1.3180   -1.5330 n2        1 ALZ     -0.299000
     25 H161       -0.2050    1.1570    3.4730 h1        1 ALZ      0.106000
     26 H162       -0.5880   -0.0830    4.4430 h1        1 ALZ      0.106000
     27 H18        -1.2150    0.5830    6.6190 ha        1 ALZ      0.134000
     28 H19        -2.0390    2.1190    8.1970 ha        1 ALZ      0.133500
     29 H20        -2.9680    4.1860    7.3800 ha        1 ALZ      0.133500
     30 H21        -3.0660    4.7050    5.0200 ha        1 ALZ      0.134000
     31 H22        -2.1810    3.0200    3.5200 ha        1 ALZ      0.142000
     32 H9         -1.5650   -2.0520   -0.5130 h1        1 ALZ      0.125000
     33 H101       -3.0900   -1.3370   -2.0000 hc        1 ALZ      0.115500
     34 H102       -2.5240    0.0530   -2.0430 hc        1 ALZ      0.115500
     35 H111       -4.1200    0.7930   -0.7090 hc        1 ALZ      0.097500
     36 H112       -4.8310   -0.5790   -0.9600 hc        1 ALZ      0.097500
     37 H121       -4.2140   -1.4520    0.6990 h1        1 ALZ      0.105000
     38 H122       -4.1990    0.1870    1.2150 h1        1 ALZ      0.105000
     39 HN11        5.9050   -0.7430   -7.2370 hn        1 ALZ      0.143500
     40 HN12        6.5350   -1.8550   -6.4560 hn        1 ALZ      0.143500
     41 H21A        6.1080   -0.8780   -4.7290 h1        1 ALZ      0.064500
     42 H22A        5.1060    0.1480   -5.5720 h1        1 ALZ      0.064500
     43 H31         4.3650   -2.3290   -4.5520 hc        1 ALZ      0.088000
     44 H32         3.4660   -1.7240   -5.5780 hc        1 ALZ      0.088000
     45 H41         3.1580    0.0430   -4.0300 hc        1 ALZ      0.088500
     46 H42         4.1390   -0.5530   -3.0050 hc        1 ALZ      0.088500
     47 H51         2.6570   -2.3030   -2.7680 h1        1 ALZ      0.089000
     48 H52         1.6910   -1.6450   -3.7300 h1        1 ALZ      0.089000
     49 HN6         2.3430   -0.6830   -1.2880 hn        1 ALZ      0.161000
     50 HN7         0.3490   -2.2570   -1.8240 hn        1 ALZ      0.269000
@<TRIPOS>BOND
     1    1    2 1   
     2    1    3 1   
     3    3    4 1   
     4    4    5 1   
     5    4   25 1   
     6    4   26 1   
     7    5    6 1   
     8    5   10 1   
     9    6   27 1   
    10    7    8 1   
    11    7   28 1   
    12    8   29 1   
    13    9   10 1   
    14    9   30 1   
    15   10   31 1   
    16   11   12 1   
    17   11   17 1   
    18   12   13 1   
    19   12   15 1   
    20   12   32 1   
    21   13   14 1   
    22   15   16 1   
    23   15   33 1   
    24   15   34 1   
    25   16   17 1   
    26   16   35 1   
    27   16   36 1   
    28   17   37 1   
    29   17   38 1   
    30   18   19 1   
    31   18   39 1   
    32   18   40 1   
    33   19   20 1   
    34   19   41 1   
    35   19   42 1   
    36   20   21 1   
    37   20   43 1   
    38   20   44 1   
    39   21   22 1   
    40   21   45 1   
    41   21   46 1   
    42   22   23 1   
    43   22   47 1   
    44   22   48 1   
    45   23   24 1   
    46   23   49 1   
    47   24   50 1   
@<TRIPOS>SUBSTRUCTURE
     1 ALZ         1 TEMP              0 ****  ****    0 ROOT
