@<TRIPOS>MOLECULE
AM0
   58    62     1     0     0
SMALL
bcc


@<TRIPOS>ATOM
      1 N3          1.1980   -1.9010    0.4050 nb        1 AM0     -0.775000
      2 C7          0.2330   -2.7400    0.8470 ca        1 AM0      0.701900
      3 N4         -1.1100   -2.5870    0.7540 nb        1 AM0     -0.776000
      4 C8         -1.5120   -1.4110    0.1260 ca        1 AM0      0.822500
      5 N5         -0.6400   -0.4680   -0.3760 nb        1 AM0     -0.830000
      6 C10         0.7140   -0.7550   -0.2220 ca        1 AM0      0.924900
      7 N2          1.6010    0.1650   -0.7880 nh        1 AM0     -0.713300
      8 C11         3.7940   -0.9410   -0.7540 ca        1 AM0     -0.232500
      9 C13         2.9870    0.1810   -0.5000 ca        1 AM0      0.187600
     10 C14         3.5650    1.3770   -0.0210 ca        1 AM0     -0.232500
     11 C15         4.9430    1.4420    0.1960 ca        1 AM0      0.151100
     12 C16         5.7700    0.3280   -0.0680 ca        1 AM0      0.038100
     13 C17         5.1730   -0.8640   -0.5260 ca        1 AM0      0.151100
     14 O1          7.1410    0.4690    0.0210 os        1 AM0     -0.308900
     15 O2          6.0420   -1.9170   -0.7190 os        1 AM0     -0.309400
     16 C9          7.7210   -0.2210    1.1310 c3        1 AM0      0.114700
     17 C1         -6.3450   -3.5120    0.0810 ca        1 AM0     -0.136000
     18 C2         -6.3830   -2.1230    0.0200 ca        1 AM0     -0.087000
     19 C3         -5.1700   -1.4290    0.0010 ca        1 AM0      0.092400
     20 C4         -3.9170   -2.1570    0.0490 ca        1 AM0     -0.052200
     21 C5         -3.9020   -3.5510    0.0950 ca        1 AM0     -0.100000
     22 C6         -5.1310   -4.2080    0.1140 ca        1 AM0     -0.130000
     23 N6         -4.9270   -0.0420   -0.0790 nc        1 AM0     -0.591100
     24 C12        -3.5810    0.1070   -0.0730 cd        1 AM0      0.645700
     25 N7         -2.8930   -1.1780   -0.0170 na        1 AM0     -0.222100
     26 O3          5.5970    2.5540    0.6810 os        1 AM0     -0.309400
     27 C18         5.4810   -3.1140   -1.2500 c3        1 AM0      0.110200
     28 C19         4.8150    3.7340    0.8290 c3        1 AM0      0.110200
     29 C20        -3.9130    4.8170   -0.7870 ca        1 AM0     -0.113500
     30 C21        -4.8630    5.0430    0.2070 ca        1 AM0     -0.141000
     31 C22        -5.1830    4.0220    1.1000 ca        1 AM0     -0.113500
     32 C23        -4.5620    2.7790    1.0130 ca        1 AM0     -0.139500
     33 C24        -3.6000    2.5420    0.0090 ca        1 AM0      0.124600
     34 C25        -3.2860    3.5790   -0.8970 ca        1 AM0     -0.139500
     35 H7          0.5830   -3.6640    1.3570 h5        1 AM0      0.063100
     36 HN2         1.2120    1.0510   -1.0400 hn        1 AM0      0.450800
     37 H11         3.3480   -1.8730   -1.1280 ha        1 AM0      0.152000
     38 H14         2.9340    2.2540    0.1850 ha        1 AM0      0.152000
     39 H9          8.8130   -0.0070    1.0280 h1        1 AM0      0.042367
     40 H9A         7.3230    0.1870    2.0910 h1        1 AM0      0.042367
     41 H9B         7.5180   -1.3170    1.0540 h1        1 AM0      0.042367
     42 H1         -7.2890   -4.0760    0.0990 ha        1 AM0      0.134000
     43 H2         -7.3370   -1.5770   -0.0150 ha        1 AM0      0.150000
     44 H5         -2.9700   -4.1300    0.1190 ha        1 AM0      0.157000
     45 H6         -5.1440   -5.3080    0.1580 ha        1 AM0      0.134000
     46 HN1        -2.0940    1.3540   -0.6700 hn        1 AM0      0.440800
     47 H18         4.7280   -3.5420   -0.5460 h1        1 AM0      0.047700
     48 H18A        5.0240   -2.9250   -2.2520 h1        1 AM0      0.047700
     49 H18B        6.3680   -3.7920   -1.3430 h1        1 AM0      0.047700
     50 H19         5.5640    4.4960    1.1630 h1        1 AM0      0.047700
     51 H19A        4.3560    4.0330   -0.1440 h1        1 AM0      0.047700
     52 H19B        4.0280    3.5880    1.6090 h1        1 AM0      0.047700
     53 H21        -5.3590    6.0210    0.2840 ha        1 AM0      0.134000
     54 H22        -5.9360    4.1940    1.8840 ha        1 AM0      0.134000
     55 H23        -4.8320    1.9860    1.7280 ha        1 AM0      0.141500
     56 H25        -2.5450    3.4200   -1.6940 ha        1 AM0      0.141500
     57 N1         -2.8730    1.3240   -0.0380 nh        1 AM0     -0.654600
     58 H20        -3.6570    5.6170   -1.4970 ha        1 AM0      0.134000
@<TRIPOS>BOND
     1    1    2 ar  
     2    1    6 ar  
     3    2    3 ar  
     4    2   35 1   
     5    3    4 ar  
     6    4    5 ar  
     7    4   25 1   
     8    5    6 ar  
     9    6    7 1   
    10    7    9 1   
    11    7   36 1   
    12    8    9 ar  
    13    8   13 ar  
    14    8   37 1   
    15    9   10 ar  
    16   10   11 ar  
    17   10   38 1   
    18   11   12 ar  
    19   11   26 1   
    20   12   13 ar  
    21   12   14 1   
    22   13   15 1   
    23   14   16 1   
    24   15   27 1   
    25   16   39 1   
    26   16   40 1   
    27   16   41 1   
    28   17   18 ar  
    29   17   22 ar  
    30   17   42 1   
    31   18   19 ar  
    32   18   43 1   
    33   19   20 ar  
    34   19   23 1   
    35   20   21 ar  
    36   20   25 1   
    37   21   22 ar  
    38   21   44 1   
    39   22   45 1   
    40   23   24 2   
    41   24   25 1   
    42   24   57 1   
    43   26   28 1   
    44   27   47 1   
    45   27   48 1   
    46   27   49 1   
    47   28   50 1   
    48   28   51 1   
    49   28   52 1   
    50   29   30 ar  
    51   29   34 ar  
    52   29   58 1   
    53   30   31 ar  
    54   30   53 1   
    55   31   32 ar  
    56   31   54 1   
    57   32   33 ar  
    58   32   55 1   
    59   33   34 ar  
    60   33   57 1   
    61   34   56 1   
    62   46   57 1   
@<TRIPOS>SUBSTRUCTURE
     1 AM0         1 TEMP              0 ****  ****    0 ROOT
