@<TRIPOS>MOLECULE
AM0
   60    61     1     0     0
SMALL
bcc


@<TRIPOS>ATOM
      1 N3         32.6540    4.2150 -157.0120 n3        1 AM0     -0.268000
      2 C7         32.3180    3.5280 -155.8790 c1        1 AM0      0.153000
      3 N4         31.2920    2.6160 -155.9380 n3        1 AM0     -0.287000
      4 C8         30.5830    2.3820 -157.1410 c2        1 AM0      0.301000
      5 N5         30.9290    3.0550 -158.2970 n2        1 AM0     -0.291000
      6 C10        31.9620    3.9820 -158.2260 c2        1 AM0      0.275000
      7 N2         32.2950    4.6500 -159.3800 n3        1 AM0     -0.088000
      8 C11        37.3830    5.5020 -157.3510 c2        1 AM0     -0.156000
      9 C13        33.2600    5.5920 -159.3970 c1        1 AM0     -0.194000
     10 C14        34.1200    6.4310 -159.4140 c1        1 AM0      0.054000
     11 C15        35.1350    7.4020 -159.3960 c2        1 AM0     -0.024000
     12 C16        36.1730    7.3400 -158.5080 c2        1 AM0      0.136000
     13 C17        36.2950    6.2680 -157.4960 c2        1 AM0      0.005000
     14 O1         37.2200    8.2070 -158.3980 os        1 AM0     -0.189000
     15 O2         35.1580    6.0530 -156.7150 os        1 AM0     -0.282000
     16 C9         37.3110    9.3040 -159.3100 c3        1 AM0     -0.075000
     17 C1         26.8860   -2.6660 -156.3340 c3        1 AM0     -0.304000
     18 C2         27.6670   -1.4340 -156.2330 c2        1 AM0     -0.301000
     19 C3         28.2660   -0.4240 -156.8400 c2        1 AM0      0.083000
     20 C4         28.9720    0.7080 -156.1300 c2        1 AM0     -0.040000
     21 C5         28.9190    0.9310 -154.8130 c2        1 AM0     -0.161000
     22 C6         27.2850   -2.1300 -155.0020 c1        1 AM0      0.236000
     23 N6         28.3440   -0.1810 -158.2570 n2        1 AM0     -0.079000
     24 C12        29.0420    0.9080 -158.4370 c2        1 AM0      0.047000
     25 N7         29.5160    1.5160 -157.1960 na        1 AM0     -0.192000
     26 O3         34.9810    8.4920 -160.2440 os        1 AM0     -0.203000
     27 C18        35.1400    6.8420 -155.5200 c3        1 AM0     -0.073000
     28 C19        35.0170    8.1540 -161.6320 c3        1 AM0     -0.085000
     29 C20      -120.7800  -14.4580  579.7490 c1        1 AM0     -0.091000
     30 C21      -120.3480  -14.2310  578.5430 c2        1 AM0     -0.157000
     31 C22      -120.6710  -12.9400  577.8170 c3        1 AM0     -0.452000
     32 C23      -121.9590  -13.0690  577.2760 c1        1 AM0      0.737000
     33 C24      -122.5340  -15.4230  581.1520 c2        1 AM0     -0.038000
     34 C25      -121.2400  -14.7390  580.9390 c2        1 AM0     -0.016000
     35 H7         31.0960    2.0920 -155.1070 hn        1 AM0      0.301000
     36 HN2        33.4160    4.8780 -156.9650 hn        1 AM0      0.331000
     37 H11        37.4490    4.7240 -156.5800 ha        1 AM0      0.146000
     38 H14        38.2580    5.6240 -158.0050 ha        1 AM0      0.146000
     39 H9         37.3850    8.9320 -160.3590 h1        1 AM0      0.102667
     40 H9A        36.4280    9.9780 -159.1920 h1        1 AM0      0.102667
     41 H9B        38.2570    9.8120 -158.9910 h1        1 AM0      0.102667
     42 H1         25.8240   -2.6200 -156.6640 hc        1 AM0      0.178500
     43 H2         27.3600   -3.5880 -156.7360 hc        1 AM0      0.178500
     44 H5         28.4050    0.1880 -154.1730 ha        1 AM0      0.162000
     45 H6         29.3110    1.8060 -154.2830 ha        1 AM0      0.162000
     46 HN1        29.2710    1.3820 -159.4070 h5        1 AM0      0.240000
     47 H18        36.0190    6.5880 -154.8810 h1        1 AM0      0.092000
     48 H18A       34.1840    6.5470 -155.0210 h1        1 AM0      0.092000
     49 H18B       35.1410    7.9290 -155.7760 h1        1 AM0      0.092000
     50 H19        34.2150    7.4170 -161.8770 h1        1 AM0      0.089000
     51 H19A       36.0190    7.7450 -161.9070 h1        1 AM0      0.089000
     52 H19B       34.8290    9.1320 -162.1430 h1        1 AM0      0.089000
     53 H22      -120.5770  -12.0510  578.5350 hc        1 AM0      0.261000
     54 H23      -119.8640  -12.7370  577.0310 hc        1 AM0      0.261000
     55 H25      -122.5530  -16.0240  582.0890 h4        1 AM0      0.143000
     56 H20      -120.6750  -14.4800  581.8570 ha        1 AM0      0.195000
     57 H221       31.7810    4.4800 -160.2290 hn        1 AM0      0.306000
     58 N1       -123.4960  -15.2870  580.3190 n2        1 AM0     -0.227000
     59 H21      -119.7060  -14.9290  577.9790 ha        1 AM0      0.199000
     60 H12      -124.3460  -15.7650  580.5380 hn        1 AM0      0.185000
@<TRIPOS>BOND
     1    1    2 1   
     2    1    6 1   
     3    1   36 1   
     4    2    3 1   
     5    3    4 1   
     6    3   35 1   
     7    4    5 1   
     8    4   25 1   
     9    5    6 1   
    10    6    7 1   
    11    7    9 1   
    12    7   57 1   
    13    8   13 1   
    14    8   37 1   
    15    8   38 1   
    16    9   10 1   
    17   10   11 1   
    18   11   12 1   
    19   11   26 1   
    20   12   13 1   
    21   12   14 1   
    22   13   15 1   
    23   14   16 1   
    24   15   27 1   
    25   16   39 1   
    26   16   40 1   
    27   16   41 1   
    28   17   18 1   
    29   17   22 1   
    30   17   42 1   
    31   17   43 1   
    32   18   19 1   
    33   18   22 1   
    34   19   20 1   
    35   19   23 1   
    36   20   21 1   
    37   20   25 1   
    38   21   44 1   
    39   21   45 1   
    40   23   24 1   
    41   24   25 1   
    42   24   46 1   
    43   26   28 1   
    44   27   47 1   
    45   27   48 1   
    46   27   49 1   
    47   28   50 1   
    48   28   51 1   
    49   28   52 1   
    50   29   30 1   
    51   29   34 1   
    52   30   31 1   
    53   30   59 1   
    54   31   32 1   
    55   31   53 1   
    56   31   54 1   
    57   33   34 1   
    58   33   55 1   
    59   33   58 1   
    60   34   56 1   
    61   58   60 1   
@<TRIPOS>SUBSTRUCTURE
     1 AM0         1 TEMP              0 ****  ****    0 ROOT
