@<TRIPOS>MOLECULE
AM0
   58    58     1     0     0
SMALL
bcc


@<TRIPOS>ATOM
      1 N3         -0.0200   -0.7850    0.6040 n3        1 AM0     -0.306000
      2 C7          1.1690   -1.4080    0.4120 c1        1 AM0      0.064000
      3 N4          2.0810   -1.4030    1.4360 n3        1 AM0     -0.293000
      4 C8          1.7810   -0.7630    2.6710 c2        1 AM0      0.237000
      5 N5          0.6240   -0.1190    2.8820 n2        1 AM0     -0.214000
      6 C10        -0.3530   -0.1240    1.8400 c2        1 AM0      0.165000
      7 N2         -1.5070    0.4920    2.0890 n2        1 AM0     -0.109000
      8 C11        -2.5070   -1.3580   -1.7220 c2        1 AM0     -0.353000
      9 C13        -2.4580    0.5490    1.1460 c1        1 AM0     -0.043000
     10 C14        -3.3820    0.6670    0.3790 c1        1 AM0     -0.192000
     11 C15        -4.4230    0.7900   -0.5510 c2        1 AM0      0.155000
     12 C16        -4.3810    0.2820   -1.8180 c2        1 AM0      0.008000
     13 C17        -3.2300   -0.4370   -2.3790 c2        1 AM0      0.108000
     14 O1         -5.4870    0.3600   -2.6490 os        1 AM0     -0.202000
     15 O2         -2.9990   -0.0270   -3.6820 os        1 AM0     -0.211000
     16 C9         -5.6250    1.6270   -3.2960 c3        1 AM0     -0.075000
     17 C1          8.1380    0.5290    6.2120 c2        1 AM0     -0.130000
     18 C2          5.7510    0.0060    5.4390 c1        1 AM0     -0.079000
     19 C3          4.5260   -0.2630    5.0460 c2        1 AM0      0.026000
     20 C4          4.1120   -0.5620    3.6260 c2        1 AM0      0.016000
     21 C5          4.9230   -0.5420    2.5630 c2        1 AM0     -0.230000
     22 C6          6.9230    0.2620    5.8210 c1        1 AM0     -0.082000
     23 N6          3.3560   -0.3280    5.8820 n2        1 AM0     -0.125000
     24 C12         2.3440   -0.6330    5.1040 c2        1 AM0      0.034000
     25 N7          2.7120   -0.8770    3.7270 na        1 AM0     -0.223000
     26 O3         -5.5720    1.4890   -0.2080 os        1 AM0     -0.200000
     27 C18        -2.0470   -0.7900   -4.4140 c3        1 AM0     -0.078000
     28 C19        -5.6480    1.9060    1.1530 c3        1 AM0     -0.075000
     29 C20        -1.9190   -0.6490    6.8020 c2        1 AM0     -0.457000
     30 C21        -2.8200    0.5230    6.8950 c3        1 AM0     -0.054000
     31 C22        -2.2800    1.8130    6.4020 c2        1 AM0     -0.127000
     32 C23        -1.2780    1.9580    5.5260 c2        1 AM0     -0.087000
     33 C24        -0.8280    3.2330    5.0960 c1        1 AM0     -0.099000
     34 C25        -0.7270   -0.7350    6.2630 c1        1 AM0      0.155000
     35 H7          2.9320   -1.9050    1.3130 hn        1 AM0      0.277000
     36 HN2        -0.6820   -0.7870   -0.1480 hn        1 AM0      0.286000
     37 H11        -1.6600   -1.8890   -2.1710 ha        1 AM0      0.128500
     38 H14        -2.7710   -1.6510   -0.7000 ha        1 AM0      0.128500
     39 H9         -5.7540    2.4340   -2.5340 h1        1 AM0      0.082333
     40 H9A        -6.5500    1.5070   -3.9130 h1        1 AM0      0.082333
     41 H9B        -4.7350    1.8270   -3.9400 h1        1 AM0      0.082333
     42 H1          8.9840    0.5660    5.5110 ha        1 AM0      0.141000
     43 H2          8.3770    0.7320    7.2670 ha        1 AM0      0.141000
     44 H5          5.9880   -0.3060    2.7080 ha        1 AM0      0.137000
     45 H6          4.6290   -0.7260    1.5260 ha        1 AM0      0.137000
     46 HN1         1.2840   -0.7450    5.4310 h5        1 AM0      0.260000
     47 H18        -2.3280   -1.8710   -4.4270 h1        1 AM0      0.083000
     48 H18A       -1.0260   -0.6580   -3.9800 h1        1 AM0      0.083000
     49 H18B       -2.0980   -0.3540   -5.4440 h1        1 AM0      0.083000
     50 H19        -5.6230    1.0220    1.8350 h1        1 AM0      0.087333
     51 H19A       -4.8140    2.6080    1.3960 h1        1 AM0      0.087333
     52 H19B       -6.6380    2.4250    1.2100 h1        1 AM0      0.087333
     53 H21        -3.7640    0.2980    6.3190 hc        1 AM0      0.107500
     54 H22        -3.1140    0.6500    7.9760 hc        1 AM0      0.107500
     55 H23        -2.7990    2.6970    6.8140 ha        1 AM0      0.138000
     56 H25        -0.7450    1.1080    5.0500 ha        1 AM0      0.179000
     57 N1         -0.4430    4.2690    4.7300 n1        1 AM0     -0.045000
     58 H20        -2.3360   -1.5700    7.2660 ha        1 AM0      0.194000
@<TRIPOS>BOND
     1    1    2 1   
     2    1    6 1   
     3    1   36 1   
     4    2    3 1   
     5    3    4 1   
     6    3   35 1   
     7    4    5 1   
     8    4   25 1   
     9    5    6 1   
    10    6    7 1   
    11    7    9 1   
    12    8   13 1   
    13    8   37 1   
    14    8   38 1   
    15    9   10 1   
    16   10   11 1   
    17   11   12 1   
    18   11   26 1   
    19   12   13 1   
    20   12   14 1   
    21   13   15 1   
    22   14   16 1   
    23   15   27 1   
    24   16   39 1   
    25   16   40 1   
    26   16   41 1   
    27   17   22 1   
    28   17   42 1   
    29   17   43 1   
    30   18   19 1   
    31   18   22 1   
    32   19   20 1   
    33   19   23 1   
    34   20   21 1   
    35   20   25 1   
    36   21   44 1   
    37   21   45 1   
    38   23   24 1   
    39   24   25 1   
    40   24   46 1   
    41   26   28 1   
    42   27   47 1   
    43   27   48 1   
    44   27   49 1   
    45   28   50 1   
    46   28   51 1   
    47   28   52 1   
    48   29   30 1   
    49   29   34 1   
    50   29   58 1   
    51   30   31 1   
    52   30   53 1   
    53   30   54 1   
    54   31   32 1   
    55   31   55 1   
    56   32   33 1   
    57   32   56 1   
    58   33   57 1   
@<TRIPOS>SUBSTRUCTURE
     1 AM0         1 TEMP              0 ****  ****    0 ROOT
