@<TRIPOS>MOLECULE
AM0
   58    47     1     0     0
SMALL
bcc


@<TRIPOS>ATOM
      1 N3         -0.0410    0.4970   -1.5460 n1        1 AM0     -0.245000
      2 C7          1.2920    0.5080   -1.5700 c1        1 AM0      0.047000
      3 N4          1.9920    0.5780   -0.4070 n1        1 AM0     -0.279000
      4 C8          1.3500    0.6350    0.7510 c1        1 AM0      0.231000
      5 N5         -0.0140    0.6240    0.7760 n1        1 AM0     -0.283000
      6 C10        -0.7000    0.5550   -0.3650 c1        1 AM0      0.206000
      7 N2         -2.0950    0.6980   -0.3520 n3        1 AM0     -0.240000
      8 C11        -3.2970    1.6430   -2.3080 c1        1 AM0     -0.261000
      9 C13        -2.8630    0.5280   -1.6000 c1        1 AM0      0.106000
     10 C14        -3.1650   -0.7480   -2.0620 c1        1 AM0     -0.160000
     11 C15        -3.9080   -0.9130   -3.2420 c1        1 AM0      0.034000
     12 C16        -4.3420    0.1970   -3.9510 c1        1 AM0      0.034000
     13 C17        -4.0410    1.4790   -3.4910 c1        1 AM0      0.105000
     14 O1         -5.2610    0.0280   -5.0310 os        1 AM0     -0.211000
     15 O2         -4.4470    2.6350   -4.2580 os        1 AM0     -0.201000
     16 C9         -4.6480   -0.0030   -6.3220 c3        1 AM0     -0.072000
     17 C1          4.1500    3.6560    3.8040 c1        1 AM0     -0.131750
     18 C2          4.2260    2.3190    4.1800 c1        1 AM0     -0.095000
     19 C3          3.4640    1.3310    3.4720 c1        1 AM0     -0.025500
     20 C4          2.6660    1.7050    2.4300 c1        1 AM0     -0.025500
     21 C5          2.5890    3.0710    2.0470 c1        1 AM0     -0.095000
     22 C6          3.3320    4.0350    2.7370 c1        1 AM0     -0.131750
     23 N6          3.3530   -0.0050    3.6200 n1        1 AM0     -0.170000
     24 C12         2.4830   -0.4680    2.6690 c1        1 AM0      0.178000
     25 N7          2.0630    0.5850    1.9390 n1        1 AM0     -0.170000
     26 N1          3.1650   -1.7600    2.7480 n2        1 AM0     -0.220000
     27 O3         -4.2090   -2.2010   -3.7040 os        1 AM0     -0.211000
     28 C18        -3.4040    3.1780   -5.0930 c3        1 AM0     -0.078000
     29 C19        -3.1220   -2.8610   -4.2980 c3        1 AM0     -0.072000
     30 C20         4.1120   -3.2430    6.0030 c1        1 AM0     -0.115000
     31 C21         2.9920   -4.0390    6.2700 c1        1 AM0     -0.131750
     32 C22         1.9300   -4.0710    5.3710 c1        1 AM0     -0.131750
     33 C23         1.9820   -3.3110    4.2060 c1        1 AM0     -0.110000
     34 C24         3.1030   -2.5140    3.9390 c2        1 AM0      0.043000
     35 C25         4.1630   -2.4830    4.8370 c2        1 AM0     -0.164000
     36 H7          1.7760    0.4650   -2.4430 ha        1 AM0      0.201000
     37 HN2        -2.5320    0.9260    0.4340 hn        1 AM0      0.254000
     38 H11        -3.0880    2.5220   -1.9920 ha        1 AM0      0.142000
     39 H14        -2.8650   -1.5220   -1.5700 ha        1 AM0      0.174000
     40 H9         -4.9400   -0.8440   -6.8190 h1        1 AM0      0.086333
     41 H9A        -4.9260    0.7960   -6.8380 h1        1 AM0      0.086333
     42 H9B        -3.6510   -0.0040   -6.2170 h1        1 AM0      0.086333
     43 H1          4.6820    4.3430    4.2940 ha        1 AM0      0.133250
     44 H2          4.7750    2.0640    4.8990 ha        1 AM0      0.150000
     45 H5          2.0170    3.3370    1.2960 ha        1 AM0      0.150000
     46 H6          3.2740    5.0170    2.4600 ha        1 AM0      0.133250
     47 HN1         3.6300   -2.1010    1.9920 hn        1 AM0      0.245000
     48 H18        -2.7810    3.7140   -4.5370 h1        1 AM0      0.086667
     49 H18A       -3.7970    3.7420   -5.7730 h1        1 AM0      0.086667
     50 H18B       -2.9110    2.4450   -5.5210 h1        1 AM0      0.086667
     51 H19        -3.4670   -3.6690   -4.8470 h1        1 AM0      0.086333
     52 H19A       -2.5150   -3.1760   -3.6030 h1        1 AM0      0.086333
     53 H19B       -2.6610   -2.2580   -4.8730 h1        1 AM0      0.086333
     54 H20         4.8470   -3.2230    6.6250 ha        1 AM0      0.132000
     55 H21         2.9560   -4.5730    7.0880 ha        1 AM0      0.133250
     56 H22         1.1670   -4.6140    5.5530 ha        1 AM0      0.133250
     57 H23         1.2050   -3.3340    3.5470 ha        1 AM0      0.154000
     58 H25         4.9560   -1.9190    4.6480 ha        1 AM0      0.132000
@<TRIPOS>BOND
     1    1    6 1   
     2    2    3 1   
     3    2   36 1   
     4    4    5 1   
     5    6    7 1   
     6    7    9 1   
     7    7   37 1   
     8    8   13 1   
     9    8   38 1   
    10    9   10 1   
    11   10   39 1   
    12   11   12 1   
    13   11   27 1   
    14   12   14 1   
    15   13   15 1   
    16   14   16 1   
    17   15   28 1   
    18   16   40 1   
    19   16   41 1   
    20   16   42 1   
    21   17   22 1   
    22   17   43 1   
    23   18   19 1   
    24   18   44 1   
    25   20   21 1   
    26   21   45 1   
    27   22   46 1   
    28   23   24 1   
    29   24   25 1   
    30   26   34 1   
    31   26   47 1   
    32   27   29 1   
    33   28   48 1   
    34   28   49 1   
    35   28   50 1   
    36   29   51 1   
    37   29   52 1   
    38   29   53 1   
    39   30   35 1   
    40   30   54 1   
    41   31   32 1   
    42   31   55 1   
    43   32   56 1   
    44   33   34 1   
    45   33   57 1   
    46   34   35 1   
    47   35   58 1   
@<TRIPOS>SUBSTRUCTURE
     1 AM0         1 TEMP              0 ****  ****    0 ROOT
