@<TRIPOS>MOLECULE
AM1
   24    24     1     0     0
SMALL
bcc


@<TRIPOS>ATOM
      1 O1          0.1420   -0.7690   -1.0710 o         1 AM1     -0.801800
      2 C1          1.2840   -1.2720   -1.0990 c         1 AM1      0.839100
      3 O2          1.6330   -2.2860   -0.4020 o         1 AM1     -0.801800
      4 C2          2.3530   -0.6590   -1.9830 cc        1 AM1      0.273800
      5 N1          2.3040   -0.5470   -3.3190 nd        1 AM1     -0.367300
      6 O3          3.4170    0.0320   -3.7540 os        1 AM1     -0.154100
      7 C3          4.2630    0.3310   -2.6630 cd        1 AM1      0.280000
      8 C4          3.6270   -0.0940   -1.5090 cc        1 AM1     -0.342900
      9 C5          4.0760    0.0300   -0.1190 c3        1 AM1     -0.002100
     10 C6          4.9360   -1.1350    0.3740 c3        1 AM1     -0.027500
     11 N2          4.3680   -2.4580   -0.0050 nz        1 AM1     -0.855600
     12 C7          6.4300   -1.0050   -0.1270 c         1 AM1      0.918600
     13 O4          6.9770    0.1090    0.0380 o         1 AM1     -0.800300
     14 O5          6.9460   -2.0410   -0.6280 o         1 AM1     -0.800300
     15 C8          5.5480    0.9660   -2.9500 c3        1 AM1     -0.152400
     16 H2          3.1710    0.1270    0.5430 hc        1 AM1      0.077200
     17 H3          4.7090    0.9540    0.0010 hc        1 AM1      0.077200
     18 H4          4.9750   -1.0850    1.4990 hx        1 AM1      0.068700
     19 H5          4.9700   -2.8530   -0.7410 hn        1 AM1      0.454133
     20 H6          4.3810   -3.0850    0.7900 hn        1 AM1      0.454133
     21 H8          6.2490    0.7930   -2.0880 hc        1 AM1      0.070033
     22 H9          5.4080    2.0670   -3.0930 hc        1 AM1      0.070033
     23 H10         5.9970    0.5410   -3.8820 hc        1 AM1      0.070033
     24 H23         3.3740   -2.3600   -0.3530 hn        1 AM1      0.454133
@<TRIPOS>BOND
     1    1    2 1   
     2    2    3 1   
     3    2    4 1   
     4    4    5 2   
     5    4    8 1   
     6    5    6 1   
     7    6    7 1   
     8    7    8 2   
     9    7   15 1   
    10    8    9 1   
    11    9   10 1   
    12    9   16 1   
    13    9   17 1   
    14   10   11 1   
    15   10   12 1   
    16   10   18 1   
    17   11   19 1   
    18   11   20 1   
    19   11   24 1   
    20   12   13 1   
    21   12   14 1   
    22   15   21 1   
    23   15   22 1   
    24   15   23 1   
@<TRIPOS>SUBSTRUCTURE
     1 AM1         1 TEMP              0 ****  ****    0 ROOT
