@<TRIPOS>MOLECULE
AM1
   23    21     1     0     0
SMALL
bcc


@<TRIPOS>ATOM
      1 O1         -1.1580    2.3160    2.2340 o         1 AM1     -0.558000
      2 C1         -1.7160    1.8000    1.2310 c2        1 AM1      0.397000
      3 O2         -2.8770    1.3230    1.3330 o         1 AM1     -0.558000
      4 C2         -0.9890    1.7420   -0.0940 c2        1 AM1     -0.103000
      5 N1         -1.2460    2.5100   -1.1740 n2        1 AM1     -0.090000
      6 O3         -0.3350    2.1730   -2.1680 os        1 AM1     -0.135000
      7 C3          0.4720    1.2000   -1.6840 c1        1 AM1     -0.089000
      8 C4          0.0780    0.9230   -0.3980 c1        1 AM1     -0.091000
      9 C5          0.6830   -0.1230    0.5120 c2        1 AM1     -0.086000
     10 C6         -0.3070   -1.2460    0.7170 c3        1 AM1     -0.113000
     11 N2          0.0780   -2.3680   -0.0690 n3        1 AM1     -0.312000
     12 C7         -0.3280   -1.6380    2.1770 c2        1 AM1      0.298000
     13 O4          0.7450   -1.9330    2.7650 o         1 AM1     -0.594000
     14 O5         -1.4170   -1.6540    2.8090 o         1 AM1     -0.594000
     15 C8          1.6350    0.5650   -2.4140 c2        1 AM1     -0.134000
     16 H2          1.4980   -0.4780    0.1040 ha        1 AM1      0.100500
     17 H3          0.9010    0.2820    1.3750 ha        1 AM1      0.100500
     18 H4         -1.1980   -0.9490    0.4470 h1        1 AM1      0.098000
     19 H5         -0.6660   -2.7420   -0.4520 hn        1 AM1      0.113000
     20 H6          0.4910   -2.9870    0.4640 hn        1 AM1      0.113000
     21 H8          1.4300   -0.3760   -2.5980 ha        1 AM1      0.078333
     22 H9          1.7880    1.0380   -3.2590 ha        1 AM1      0.078333
     23 H10         2.4400    0.6210   -1.8580 ha        1 AM1      0.078333
@<TRIPOS>BOND
     1    1    2 1   
     2    2    3 1   
     3    2    4 1   
     4    4    5 1   
     5    4    8 1   
     6    5    6 1   
     7    6    7 1   
     8    7    8 1   
     9    9   10 1   
    10    9   16 1   
    11    9   17 1   
    12   10   11 1   
    13   10   12 1   
    14   10   18 1   
    15   11   19 1   
    16   11   20 1   
    17   12   13 1   
    18   12   14 1   
    19   15   21 1   
    20   15   22 1   
    21   15   23 1   
@<TRIPOS>SUBSTRUCTURE
     1 AM1         1 TEMP              0 ****  ****    0 ROOT
