@<TRIPOS>MOLECULE
AM1
   24    24     1     0     0
SMALL
bcc


@<TRIPOS>ATOM
      1 O1          0.1520   -0.5760   -0.8050 o         1 AM1     -0.801800
      2 C1          1.2680   -1.1330   -0.8680 c         1 AM1      0.839100
      3 O2          1.6190   -2.1100   -0.1220 o         1 AM1     -0.801800
      4 C2          2.3000   -0.6330   -1.8600 cc        1 AM1      0.273800
      5 N1          2.1680   -0.6130   -3.1950 nd        1 AM1     -0.367300
      6 O3          3.2720   -0.1190   -3.7400 os        1 AM1     -0.154100
      7 C3          4.2010    0.2170   -2.7300 cd        1 AM1      0.280000
      8 C4          3.6260   -0.0960   -1.5100 cc        1 AM1     -0.342900
      9 C5          4.1700    0.1040   -0.1640 c3        1 AM1     -0.002100
     10 C6          5.0120   -1.0620    0.3580 c3        1 AM1     -0.027500
     11 N2          4.3650   -2.3810    0.1130 n4        1 AM1     -0.855600
     12 C7          6.4740   -1.0370   -0.2450 c         1 AM1      0.918600
     13 O4          7.0770    0.0590   -0.1970 o         1 AM1     -0.800300
     14 O5          6.9120   -2.1290   -0.7000 o         1 AM1     -0.800300
     15 C8          5.4890    0.7700   -3.1430 c3        1 AM1     -0.152400
     16 H2          3.3170    0.2890    0.5450 hc        1 AM1      0.077200
     17 H3          4.8480    1.0040   -0.1520 hc        1 AM1      0.077200
     18 H4          5.1280   -0.9340    1.4720 hx        1 AM1      0.068700
     19 H5          3.3560   -2.2620   -0.1790 hn        1 AM1      0.454133
     20 H6          4.4040   -2.9500    0.9510 hn        1 AM1      0.454133
     21 H8          6.2380    0.6250   -2.3170 hc        1 AM1      0.070033
     22 H9          5.8570    0.2610   -4.0680 hc        1 AM1      0.070033
     23 H10         5.3860    1.8630   -3.3570 hc        1 AM1      0.070033
     24 H23         4.9000   -2.8540   -0.6280 hn        1 AM1      0.454133
@<TRIPOS>BOND
     1    1    2 1   
     2    2    3 1   
     3    2    4 1   
     4    4    5 2   
     5    4    8 1   
     6    5    6 1   
     7    6    7 1   
     8    7    8 2   
     9    7   15 1   
    10    8    9 1   
    11    9   10 1   
    12    9   16 1   
    13    9   17 1   
    14   10   11 1   
    15   10   12 1   
    16   10   18 1   
    17   11   19 1   
    18   11   20 1   
    19   11   24 1   
    20   12   13 1   
    21   12   14 1   
    22   15   21 1   
    23   15   22 1   
    24   15   23 1   
@<TRIPOS>SUBSTRUCTURE
     1 AM1         1 TEMP              0 ****  ****    0 ROOT
