@<TRIPOS>MOLECULE
AM1
   23    23     1     0     0
SMALL
bcc


@<TRIPOS>ATOM
      1 O1          2.5030   -2.0980    1.0060 o         1 AM1     -0.824300
      2 C1          2.3680   -1.6080   -0.1470 c         1 AM1      0.837100
      3 O2          2.5490   -2.2370   -1.2240 o         1 AM1     -0.824300
      4 C2          1.9700   -0.1390   -0.2480 cc        1 AM1      0.310800
      5 N1          2.8340    0.8860   -0.2670 nd        1 AM1     -0.426300
      6 O3          2.1660    2.0300   -0.3720 os        1 AM1     -0.193100
      7 C3          0.7710    1.7640   -0.4320 cd        1 AM1      0.220000
      8 C4          0.5940    0.3960   -0.3530 cc        1 AM1     -0.268900
      9 C5         -0.6300   -0.4140   -0.4090 c3        1 AM1     -0.027100
     10 C6         -1.7910   -0.0000    0.5230 c3        1 AM1      0.044500
     11 N2         -1.4340    0.8010    1.6780 n3        1 AM1     -0.905800
     12 C7         -2.9390    0.6290   -0.3290 c         1 AM1      0.909600
     13 O4         -3.0940    1.8890   -0.3410 o         1 AM1     -0.858300
     14 O5         -3.6840   -0.1610   -0.9730 o         1 AM1     -0.858300
     15 C8         -0.0990    2.9300   -0.5620 c3        1 AM1     -0.154400
     16 H2         -1.0200   -0.4110   -1.4650 hc        1 AM1      0.060700
     17 H3         -0.3440   -1.4760   -0.1690 hc        1 AM1      0.060700
     18 H4         -2.2140   -0.9640    0.9390 h1        1 AM1      0.043700
     19 H5         -0.4530    0.7110    1.8680 hn        1 AM1      0.336300
     20 H6         -1.6220    1.7680    1.4760 hn        1 AM1      0.336300
     21 H8         -1.1690    2.5980   -0.6780 hc        1 AM1      0.060700
     22 H9         -0.0180    3.5750    0.3490 hc        1 AM1      0.060700
     23 H10         0.2000    3.5410   -1.4500 hc        1 AM1      0.060700
@<TRIPOS>BOND
     1    1    2 1   
     2    2    3 1   
     3    2    4 1   
     4    4    5 2   
     5    4    8 1   
     6    5    6 1   
     7    6    7 1   
     8    7    8 2   
     9    7   15 1   
    10    8    9 1   
    11    9   10 1   
    12    9   16 1   
    13    9   17 1   
    14   10   11 1   
    15   10   12 1   
    16   10   18 1   
    17   11   19 1   
    18   11   20 1   
    19   12   13 1   
    20   12   14 1   
    21   15   21 1   
    22   15   22 1   
    23   15   23 1   
@<TRIPOS>SUBSTRUCTURE
     1 AM1         1 TEMP              0 ****  ****    0 ROOT
