@<TRIPOS>MOLECULE
AM3
   50    50     1     0     0
SMALL
bcc


@<TRIPOS>ATOM
      1 O4         -2.0530   -0.2400   -4.6780 oh        1 AM3     -0.327000
      2 C4         -0.6280   -0.2320   -4.7520 c3        1 AM3      0.017000
      3 C5         -0.0680   -0.1040   -3.3580 c3        1 AM3     -0.014000
      4 C6         -0.7780    1.0450   -2.6140 c3        1 AM3     -0.024000
      5 O6         -1.4800    0.4420   -1.7180 os        1 AM3     -0.244000
      6 C3         -0.1730   -1.4850   -5.4350 c3        1 AM3      0.002000
      7 O3         -0.8970   -1.6250   -6.6960 oh        1 AM3     -0.337000
      8 C2         -0.4100   -2.6920   -4.6080 c3        1 AM3     -0.023000
      9 O2          0.2090   -3.8150   -5.2440 oh        1 AM3     -0.337000
     10 C1          0.1550   -2.5490   -3.2080 c3        1 AM3      0.144000
     11 O1         -0.2470   -3.6330   -2.4500 oh        1 AM3     -0.329000
     12 N1         -0.2970   -1.2960   -2.5390 n3        1 AM3     -0.299000
     13 C7         -0.7390   -0.8420   -1.4090 c2        1 AM3      0.216000
     14 N2         -0.7610   -1.4920   -0.2700 n1        1 AM3     -0.273000
     15 C8         -1.5520   -0.9850    0.8370 c2        1 AM3     -0.061000
     16 C9         -0.8350   -1.2720    2.1460 c3        1 AM3     -0.176000
     17 C10        -1.0430   -0.0680    3.1320 c3        1 AM3     -0.156000
     18 C11         0.3140    0.3340    3.7510 c3        1 AM3     -0.157000
     19 C12         0.1170    1.5320    4.6840 c3        1 AM3     -0.158000
     20 C13         1.2200    2.5530    4.4390 c3        1 AM3     -0.158000
     21 C14         1.7730    3.0240    5.7650 c3        1 AM3     -0.159000
     22 C15         2.9530    3.9540    5.5220 c3        1 AM3     -0.210000
     23 H4         -2.3870    0.2000   -5.3730 ho        1 AM3      0.229000
     24 HA         -0.3410    0.5400   -5.2810 h1        1 AM3      0.100000
     25 H5          0.8910    0.0800   -3.4060 h1        1 AM3      0.116000
     26 H3          0.7800   -1.4130   -5.6240 h1        1 AM3      0.101000
     27 H61C       -0.0850    1.5540   -2.1430 h1        1 AM3      0.115000
     28 H62C       -1.4000    1.4480   -3.2390 h1        1 AM3      0.115000
     29 HB         -0.3280   -1.5310   -7.3780 ho        1 AM3      0.232000
     30 H2         -1.3760   -2.8540   -4.5480 h1        1 AM3      0.121000
     31 HC         -0.4160   -4.3190   -5.6330 ho        1 AM3      0.232000
     32 H81C       -2.4230   -1.4240    0.8410 ha        1 AM3      0.089000
     33 H82C       -1.6730   -0.0200    0.7370 ha        1 AM3      0.089000
     34 H91C        0.1140   -1.3920    1.9760 hc        1 AM3      0.089000
     35 H92C       -1.2020   -2.0920    2.5470 hc        1 AM3      0.089000
     36 H101       -1.4160    0.6930    2.6430 hc        1 AM3      0.079000
     37 H102       -1.6650   -0.3350    3.8500 hc        1 AM3      0.079000
     38 H111        0.6780   -0.4230    4.2630 hc        1 AM3      0.079500
     39 H112        0.9330    0.5740    3.0430 hc        1 AM3      0.079500
     40 H121       -0.7490    1.9410    4.5090 hc        1 AM3      0.079000
     41 H122        0.1530    1.2250    5.6280 hc        1 AM3      0.079000
     42 H131        1.9280    2.1450    3.9210 hc        1 AM3      0.078000
     43 H132        0.8570    3.3130    3.9520 hc        1 AM3      0.078000
     44 H141        1.0780    3.5010    6.2570 hc        1 AM3      0.078000
     45 H142        2.0700    2.2510    6.2880 hc        1 AM3      0.078000
     46 H151        3.6060    3.5100    4.9290 hc        1 AM3      0.071333
     47 H152        2.6350    4.7830    5.0980 hc        1 AM3      0.071333
     48 H153        3.3780    4.1670    6.3700 hc        1 AM3      0.071333
     49 H154        0.4510   -4.1330   -2.2610 ho        1 AM3      0.245000
     50 H155        1.1320   -2.5440   -3.2610 h2        1 AM3      0.099000
@<TRIPOS>BOND
     1    1    2 1   
     2    1   23 1   
     3    2    3 1   
     4    2    6 1   
     5    2   24 1   
     6    3    4 1   
     7    3   12 1   
     8    3   25 1   
     9    4    5 1   
    10    4   27 1   
    11    4   28 1   
    12    5   13 1   
    13    6    7 1   
    14    6    8 1   
    15    6   26 1   
    16    7   29 1   
    17    8    9 1   
    18    8   10 1   
    19    8   30 1   
    20    9   31 1   
    21   10   11 1   
    22   10   12 1   
    23   10   50 1   
    24   11   49 1   
    25   12   13 1   
    26   13   14 1   
    27   15   16 1   
    28   15   32 1   
    29   15   33 1   
    30   16   17 1   
    31   16   34 1   
    32   16   35 1   
    33   17   18 1   
    34   17   36 1   
    35   17   37 1   
    36   18   19 1   
    37   18   38 1   
    38   18   39 1   
    39   19   20 1   
    40   19   40 1   
    41   19   41 1   
    42   20   21 1   
    43   20   42 1   
    44   20   43 1   
    45   21   22 1   
    46   21   44 1   
    47   21   45 1   
    48   22   46 1   
    49   22   47 1   
    50   22   48 1   
@<TRIPOS>SUBSTRUCTURE
     1 AM3         1 TEMP              0 ****  ****    0 ROOT
