@<TRIPOS>MOLECULE
AM3
   50    51     1     0     0
SMALL
bcc


@<TRIPOS>ATOM
      1 O4         -0.2650   -0.0710   -0.0810 oh        1 AM3     -0.599800
      2 C4          1.1460    0.0400   -0.0240 c3        1 AM3      0.128100
      3 C5          1.5820    0.0660    1.4540 c3        1 AM3      0.183500
      4 C6          0.6320    0.9470    2.3020 c3        1 AM3      0.125400
      5 O6          0.1070    0.0900    3.3280 os        1 AM3     -0.449400
      6 C3          1.8240   -1.1250   -0.7590 c3        1 AM3      0.113100
      7 O3          1.3200   -1.1080   -2.0850 oh        1 AM3     -0.609800
      8 C2          1.4650   -2.4350   -0.0520 c3        1 AM3      0.089100
      9 O2          2.1050   -3.4760   -0.7660 oh        1 AM3     -0.608800
     10 C1          1.9950   -2.4080    1.4120 c3        1 AM3      0.413300
     11 O1          1.5400   -3.6440    1.9350 oh        1 AM3     -0.601800
     12 N1          1.6410   -1.2120    2.1650 nh        1 AM3     -0.767600
     13 C7          0.6940   -1.1930    3.2320 c2        1 AM3      0.789500
     14 N2          0.4590   -2.1360    4.0930 n2        1 AM3     -0.685900
     15 C8         -0.4310   -1.9320    5.2010 c3        1 AM3      0.143800
     16 C9         -1.9030   -1.7030    4.8540 c3        1 AM3     -0.098400
     17 C10        -2.7240   -1.5740    6.1180 c3        1 AM3     -0.076400
     18 C11        -4.1870   -1.3540    5.7970 c3        1 AM3     -0.078400
     19 C12        -5.0120   -1.2210    7.0590 c3        1 AM3     -0.079400
     20 C13        -6.4750   -1.0020    6.7390 c3        1 AM3     -0.079400
     21 C14        -7.3010   -0.8690    8.0010 c3        1 AM3     -0.080400
     22 C15        -8.7590   -0.6500    7.6870 c3        1 AM3     -0.092100
     23 H4         -0.4940   -0.2470   -1.0050 ho        1 AM3      0.430000
     24 HA          1.4550    1.0120   -0.5040 h1        1 AM3      0.060700
     25 H5          2.6300    0.4870    1.4730 h1        1 AM3      0.076700
     26 H3          2.9390   -0.9850   -0.7790 h1        1 AM3      0.061700
     27 H61C        1.1820    1.7780    2.8100 h1        1 AM3      0.075700
     28 H62C       -0.2410    1.3330    1.7200 h1        1 AM3      0.075700
     29 HB          1.5970   -1.9370   -2.4980 ho        1 AM3      0.433000
     30 H2          0.3510   -2.5890   -0.0560 h1        1 AM3      0.081700
     31 HC          1.9000   -4.2990   -0.3000 ho        1 AM3      0.433000
     32 H81C       -0.3440   -2.8750    5.8150 h1        1 AM3      0.047200
     33 H82C       -0.0830   -1.0700    5.8410 h1        1 AM3      0.047200
     34 H91C       -2.0010   -0.7710    4.2370 hc        1 AM3      0.052700
     35 H92C       -2.2880   -2.5580    4.2390 hc        1 AM3      0.052700
     36 H101       -2.3410   -0.7160    6.7310 hc        1 AM3      0.038700
     37 H102       -2.6110   -2.5010    6.7390 hc        1 AM3      0.038700
     38 H111       -4.3000   -0.4280    5.1740 hc        1 AM3      0.041200
     39 H112       -4.5710   -2.2120    5.1850 hc        1 AM3      0.041200
     40 H121       -4.6280   -0.3620    7.6710 hc        1 AM3      0.038700
     41 H122       -4.8980   -2.1470    7.6830 hc        1 AM3      0.038700
     42 H131       -6.5890   -0.0760    6.1170 hc        1 AM3      0.039700
     43 H132       -6.8590   -1.8610    6.1280 hc        1 AM3      0.039700
     44 H141       -6.9150   -0.0100    8.6120 hc        1 AM3      0.037700
     45 H142       -7.1850   -1.7950    8.6230 hc        1 AM3      0.037700
     46 H151       -8.8980    0.2820    7.0880 hc        1 AM3      0.032367
     47 H152       -9.1690   -1.5070    7.1000 hc        1 AM3      0.032367
     48 H153       -9.3490   -0.5550    8.6300 hc        1 AM3      0.032367
     49 H154        1.8320   -3.7310    2.8530 ho        1 AM3      0.446000
     50 H155        3.1310   -2.4130    1.3910 h2        1 AM3      0.059700
@<TRIPOS>BOND
     1    1    2 1   
     2    1   23 1   
     3    2    3 1   
     4    2    6 1   
     5    2   24 1   
     6    3    4 1   
     7    3   12 1   
     8    3   25 1   
     9    4    5 1   
    10    4   27 1   
    11    4   28 1   
    12    5   13 1   
    13    6    7 1   
    14    6    8 1   
    15    6   26 1   
    16    7   29 1   
    17    8    9 1   
    18    8   10 1   
    19    8   30 1   
    20    9   31 1   
    21   10   11 1   
    22   10   12 1   
    23   10   50 1   
    24   11   49 1   
    25   12   13 1   
    26   13   14 2   
    27   14   15 1   
    28   15   16 1   
    29   15   32 1   
    30   15   33 1   
    31   16   17 1   
    32   16   34 1   
    33   16   35 1   
    34   17   18 1   
    35   17   36 1   
    36   17   37 1   
    37   18   19 1   
    38   18   38 1   
    39   18   39 1   
    40   19   20 1   
    41   19   40 1   
    42   19   41 1   
    43   20   21 1   
    44   20   42 1   
    45   20   43 1   
    46   21   22 1   
    47   21   44 1   
    48   21   45 1   
    49   22   46 1   
    50   22   47 1   
    51   22   48 1   
@<TRIPOS>SUBSTRUCTURE
     1 AM3         1 TEMP              0 ****  ****    0 ROOT
