@<TRIPOS>MOLECULE
AM3
   50    51     1     0     0
SMALL
bcc


@<TRIPOS>ATOM
      1 O4         -2.4990    0.0190    2.2850 oh        1 AM3     -0.599800
      2 C4         -3.5120    0.6670    1.5360 c3        1 AM3      0.128100
      3 C5         -2.8550    1.4290    0.3680 c3        1 AM3      0.183500
      4 C6         -1.5580    2.1430    0.8260 c3        1 AM3      0.125400
      5 O6         -0.5070    1.6240   -0.0050 os        1 AM3     -0.449400
      6 C3         -4.5380   -0.3430    1.0030 c3        1 AM3      0.113100
      7 O3         -5.0420   -1.0350    2.1330 oh        1 AM3     -0.609800
      8 C2         -3.8360   -1.3030    0.0390 c3        1 AM3      0.089100
      9 O2         -4.8160   -2.2150   -0.4200 oh        1 AM3     -0.608800
     10 C1         -3.2570   -0.5100   -1.1710 c3        1 AM3      0.413300
     11 O1         -2.6030   -1.5160   -1.9230 oh        1 AM3     -0.601800
     12 N1         -2.4610    0.6550   -0.8090 nh        1 AM3     -0.767600
     13 C7         -1.0440    0.7290   -0.9600 c2        1 AM3      0.789500
     14 N2         -0.3210    0.1850   -1.8920 n2        1 AM3     -0.686900
     15 C8          1.0850    0.4530   -2.0000 c3        1 AM3      0.143800
     16 C9          1.9600   -0.0450   -0.8480 c3        1 AM3     -0.098400
     17 C10         3.4160    0.2470   -1.1340 c3        1 AM3     -0.076400
     18 C11         4.3020   -0.2440   -0.0090 c3        1 AM3     -0.078400
     19 C12         5.7600    0.0490   -0.2900 c3        1 AM3     -0.079400
     20 C13         6.6460   -0.4420    0.8340 c3        1 AM3     -0.079400
     21 C14         8.1050   -0.1490    0.5550 c3        1 AM3     -0.080400
     22 C15         8.9910   -0.6370    1.6720 c3        1 AM3     -0.092100
     23 H4         -2.9470   -0.5750    2.9040 ho        1 AM3      0.430000
     24 HA         -4.0360    1.4130    2.2000 h1        1 AM3      0.060700
     25 H5         -3.6140    2.1860    0.0110 h1        1 AM3      0.076700
     26 H3         -5.3800    0.1880    0.4800 h1        1 AM3      0.061700
     27 H61C       -1.6090    3.2450    0.6510 h1        1 AM3      0.075700
     28 H62C       -1.2830    1.9110    1.8850 h1        1 AM3      0.075700
     29 HB         -5.5460   -1.7890    1.7960 ho        1 AM3      0.433000
     30 H2         -3.0090   -1.8540    0.5680 h1        1 AM3      0.081700
     31 HC         -4.3750   -2.8020   -1.0510 ho        1 AM3      0.433000
     32 H81C        1.4030   -0.0670   -2.9490 h1        1 AM3      0.047200
     33 H82C        1.2730    1.5580   -2.1320 h1        1 AM3      0.047200
     34 H91C        1.6480    0.4610    0.1040 hc        1 AM3      0.052700
     35 H92C        1.8160   -1.1480   -0.7080 hc        1 AM3      0.052700
     36 H101        3.7200   -0.2470   -2.0950 hc        1 AM3      0.038700
     37 H102        3.5610    1.3520   -1.2710 hc        1 AM3      0.038700
     38 H111        3.9970    0.2490    0.9510 hc        1 AM3      0.041200
     39 H112        4.1600   -1.3480    0.1270 hc        1 AM3      0.041200
     40 H121        6.0640   -0.4430   -1.2510 hc        1 AM3      0.038700
     41 H122        5.9020    1.1540   -0.4260 hc        1 AM3      0.038700
     42 H131        6.3420    0.0500    1.7950 hc        1 AM3      0.039700
     43 H132        6.5040   -1.5470    0.9700 hc        1 AM3      0.039700
     44 H141        8.4070   -0.6410   -0.4080 hc        1 AM3      0.037700
     45 H142        8.2450    0.9560    0.4180 hc        1 AM3      0.037700
     46 H151        8.7220   -0.1400    2.6350 hc        1 AM3      0.032367
     47 H152        8.8840   -1.7410    1.8070 hc        1 AM3      0.032367
     48 H153       10.0610   -0.4120    1.4460 hc        1 AM3      0.032367
     49 H154       -2.2130   -1.1220   -2.7160 ho        1 AM3      0.446000
     50 H155       -4.1200   -0.0950   -1.7820 h2        1 AM3      0.059700
@<TRIPOS>BOND
     1    1    2 1   
     2    1   23 1   
     3    2    3 1   
     4    2    6 1   
     5    2   24 1   
     6    3    4 1   
     7    3   12 1   
     8    3   25 1   
     9    4    5 1   
    10    4   27 1   
    11    4   28 1   
    12    5   13 1   
    13    6    7 1   
    14    6    8 1   
    15    6   26 1   
    16    7   29 1   
    17    8    9 1   
    18    8   10 1   
    19    8   30 1   
    20    9   31 1   
    21   10   11 1   
    22   10   12 1   
    23   10   50 1   
    24   11   49 1   
    25   12   13 1   
    26   13   14 2   
    27   14   15 1   
    28   15   16 1   
    29   15   32 1   
    30   15   33 1   
    31   16   17 1   
    32   16   34 1   
    33   16   35 1   
    34   17   18 1   
    35   17   36 1   
    36   17   37 1   
    37   18   19 1   
    38   18   38 1   
    39   18   39 1   
    40   19   20 1   
    41   19   40 1   
    42   19   41 1   
    43   20   21 1   
    44   20   42 1   
    45   20   43 1   
    46   21   22 1   
    47   21   44 1   
    48   21   45 1   
    49   22   46 1   
    50   22   47 1   
    51   22   48 1   
@<TRIPOS>SUBSTRUCTURE
     1 AM3         1 TEMP              0 ****  ****    0 ROOT
