@<TRIPOS>MOLECULE
AM3
   50    51     1     0     0
SMALL
bcc


@<TRIPOS>ATOM
      1 O4         -0.2710   -0.0750   -0.0860 oh        1 AM3     -0.599800
      2 C4          1.1400    0.0410   -0.0290 c3        1 AM3      0.128100
      3 C5          1.5770    0.0720    1.4480 c3        1 AM3      0.183500
      4 C6          0.6240    0.9530    2.2940 c3        1 AM3      0.125400
      5 O6          0.1020    0.0970    3.3230 os        1 AM3     -0.449400
      6 C3          1.8220   -1.1230   -0.7620 c3        1 AM3      0.113100
      7 O3          1.3180   -1.1120   -2.0870 oh        1 AM3     -0.609800
      8 C2          1.4680   -2.4330   -0.0510 c3        1 AM3      0.089100
      9 O2          2.1110   -3.4740   -0.7630 oh        1 AM3     -0.608800
     10 C1          1.9980   -2.4010    1.4130 c3        1 AM3      0.413300
     11 O1          1.5460   -3.6360    1.9390 oh        1 AM3     -0.601800
     12 N1          1.6400   -1.2030    2.1620 nh        1 AM3     -0.767600
     13 C7          0.6940   -1.1850    3.2300 c2        1 AM3      0.789500
     14 N2          0.4620   -2.1260    4.0950 n2        1 AM3     -0.685900
     15 C8         -0.4270   -1.9210    5.2020 c3        1 AM3      0.143800
     16 C9         -1.9000   -1.7000    4.8550 c3        1 AM3     -0.098400
     17 C10        -2.7210   -1.5690    6.1190 c3        1 AM3     -0.076400
     18 C11        -4.1860   -1.3580    5.7990 c3        1 AM3     -0.078400
     19 C12        -5.0100   -1.2220    7.0610 c3        1 AM3     -0.079400
     20 C13        -6.4750   -1.0140    6.7410 c3        1 AM3     -0.079400
     21 C14        -7.3010   -0.8760    8.0030 c3        1 AM3     -0.080400
     22 C15        -8.7600   -0.6690    7.6890 c3        1 AM3     -0.092100
     23 H4         -0.4990   -0.2540   -1.0100 ho        1 AM3      0.430000
     24 HA          1.4460    1.0130   -0.5120 h1        1 AM3      0.060700
     25 H5          2.6230    0.4970    1.4660 h1        1 AM3      0.076700
     26 H3          2.9370   -0.9800   -0.7820 h1        1 AM3      0.061700
     27 H61C       -0.2510    1.3340    1.7110 h1        1 AM3      0.075700
     28 H62C        1.1710    1.7870    2.8000 h1        1 AM3      0.075700
     29 HB          1.5970   -1.9410   -2.4990 ho        1 AM3      0.433000
     30 H2          0.3540   -2.5900   -0.0540 h1        1 AM3      0.081700
     31 HC          1.9090   -4.2960   -0.2940 ho        1 AM3      0.433000
     32 H81C       -0.3360   -2.8610    5.8200 h1        1 AM3      0.047200
     33 H82C       -0.0830   -1.0550    5.8390 h1        1 AM3      0.047200
     34 H91C       -2.0030   -0.7710    4.2340 hc        1 AM3      0.052700
     35 H92C       -2.2820   -2.5590    4.2440 hc        1 AM3      0.052700
     36 H101       -2.3430   -0.7060    6.7280 hc        1 AM3      0.039200
     37 H102       -2.6030   -2.4930    6.7450 hc        1 AM3      0.039200
     38 H111       -4.3040   -0.4360    5.1710 hc        1 AM3      0.041200
     39 H112       -4.5660   -2.2230    5.1930 hc        1 AM3      0.041200
     40 H121       -4.6310   -0.3570    7.6670 hc        1 AM3      0.038700
     41 H122       -4.8900   -2.1430    7.6900 hc        1 AM3      0.038700
     42 H131       -6.8550   -1.8790    6.1370 hc        1 AM3      0.039700
     43 H132       -6.5950   -0.0930    6.1120 hc        1 AM3      0.039700
     44 H141       -6.9180   -0.0110    8.6070 hc        1 AM3      0.037700
     45 H142       -7.1770   -1.7970    8.6320 hc        1 AM3      0.037700
     46 H151       -9.1650   -1.5330    7.1090 hc        1 AM3      0.032367
     47 H152       -8.9050    0.2580    7.0830 hc        1 AM3      0.032367
     48 H153       -9.3500   -0.5700    8.6320 hc        1 AM3      0.032367
     49 H154        1.8380   -3.7200    2.8570 ho        1 AM3      0.446000
     50 H155        3.1340   -2.4020    1.3910 h2        1 AM3      0.059700
@<TRIPOS>BOND
     1    1    2 1   
     2    1   23 1   
     3    2    3 1   
     4    2    6 1   
     5    2   24 1   
     6    3    4 1   
     7    3   12 1   
     8    3   25 1   
     9    4    5 1   
    10    4   27 1   
    11    4   28 1   
    12    5   13 1   
    13    6    7 1   
    14    6    8 1   
    15    6   26 1   
    16    7   29 1   
    17    8    9 1   
    18    8   10 1   
    19    8   30 1   
    20    9   31 1   
    21   10   11 1   
    22   10   12 1   
    23   10   50 1   
    24   11   49 1   
    25   12   13 1   
    26   13   14 2   
    27   14   15 1   
    28   15   16 1   
    29   15   32 1   
    30   15   33 1   
    31   16   17 1   
    32   16   34 1   
    33   16   35 1   
    34   17   18 1   
    35   17   36 1   
    36   17   37 1   
    37   18   19 1   
    38   18   38 1   
    39   18   39 1   
    40   19   20 1   
    41   19   40 1   
    42   19   41 1   
    43   20   21 1   
    44   20   42 1   
    45   20   43 1   
    46   21   22 1   
    47   21   44 1   
    48   21   45 1   
    49   22   46 1   
    50   22   47 1   
    51   22   48 1   
@<TRIPOS>SUBSTRUCTURE
     1 AM3         1 TEMP              0 ****  ****    0 ROOT
