@<TRIPOS>MOLECULE
AM3
   50    51     1     0     0
SMALL
bcc


@<TRIPOS>ATOM
      1 O4         -0.2780   -0.0780   -0.0910 oh        1 AM3     -0.599800
      2 C4          1.1320    0.0450   -0.0360 c3        1 AM3      0.128100
      3 C5          1.5700    0.0810    1.4410 c3        1 AM3      0.183500
      4 C6          0.6140    0.9590    2.2860 c3        1 AM3      0.125400
      5 O6          0.0960    0.1030    3.3170 os        1 AM3     -0.449400
      6 C3          1.8190   -1.1180   -0.7670 c3        1 AM3      0.113100
      7 O3          1.3140   -1.1110   -2.0920 oh        1 AM3     -0.609800
      8 C2          1.4710   -2.4270   -0.0540 c3        1 AM3      0.089100
      9 O2          2.1190   -3.4670   -0.7630 oh        1 AM3     -0.608800
     10 C1          2.0020   -2.3900    1.4110 c3        1 AM3      0.413300
     11 O1          1.5560   -3.6260    1.9390 oh        1 AM3     -0.601800
     12 N1          1.6390   -1.1930    2.1580 nh        1 AM3     -0.767600
     13 C7          0.6930   -1.1770    3.2250 c2        1 AM3      0.789500
     14 N2          0.4660   -2.1170    4.0920 n2        1 AM3     -0.685900
     15 C8         -0.4240   -1.9150    5.1990 c3        1 AM3      0.143800
     16 C9         -1.8980   -1.6990    4.8530 c3        1 AM3     -0.098400
     17 C10        -2.7190   -1.5700    6.1170 c3        1 AM3     -0.076400
     18 C11        -4.1840   -1.3630    5.7970 c3        1 AM3     -0.078400
     19 C12        -5.0090   -1.2310    7.0590 c3        1 AM3     -0.079400
     20 C13        -6.4740   -1.0250    6.7400 c3        1 AM3     -0.079400
     21 C14        -7.3000   -0.8920    8.0020 c3        1 AM3     -0.080400
     22 C15        -8.7590   -0.6860    7.6890 c3        1 AM3     -0.092100
     23 H4         -0.5060   -0.2600   -1.0140 ho        1 AM3      0.430000
     24 HA          1.4330    1.0170   -0.5210 h1        1 AM3      0.060700
     25 H5          2.6140    0.5110    1.4570 h1        1 AM3      0.076700
     26 H3          2.9330   -0.9690   -0.7880 h1        1 AM3      0.061700
     27 H61C       -0.2630    1.3360    1.7020 h1        1 AM3      0.075700
     28 H62C        1.1570    1.7960    2.7900 h1        1 AM3      0.075700
     29 HB          1.5970   -1.9400   -2.5020 ho        1 AM3      0.433000
     30 H2          0.3570   -2.5900   -0.0550 h1        1 AM3      0.081700
     31 HC          1.9200   -4.2890   -0.2930 ho        1 AM3      0.433000
     32 H81C       -0.0820   -1.0460    5.8350 h1        1 AM3      0.047200
     33 H82C       -0.3290   -2.8540    5.8180 h1        1 AM3      0.047200
     34 H91C       -2.0040   -0.7710    4.2310 hc        1 AM3      0.052700
     35 H92C       -2.2770   -2.5600    4.2420 hc        1 AM3      0.052700
     36 H101       -2.5980   -2.4940    6.7430 hc        1 AM3      0.038700
     37 H102       -2.3420   -0.7060    6.7260 hc        1 AM3      0.038700
     38 H111       -4.5620   -2.2280    5.1900 hc        1 AM3      0.041200
     39 H112       -4.3050   -0.4410    5.1700 hc        1 AM3      0.041200
     40 H121       -4.8870   -2.1530    7.6870 hc        1 AM3      0.038700
     41 H122       -4.6310   -0.3660    7.6660 hc        1 AM3      0.038700
     42 H131       -6.8520   -1.8890    6.1330 hc        1 AM3      0.039700
     43 H132       -6.5960   -0.1030    6.1120 hc        1 AM3      0.039700
     44 H141       -7.1750   -1.8140    8.6290 hc        1 AM3      0.037700
     45 H142       -6.9190   -0.0270    8.6080 hc        1 AM3      0.037700
     46 H151       -9.3500   -0.5910    8.6320 hc        1 AM3      0.032367
     47 H152       -8.9060    0.2410    7.0850 hc        1 AM3      0.032367
     48 H153       -9.1630   -1.5500    7.1060 hc        1 AM3      0.032367
     49 H154        1.8500   -3.7070    2.8570 ho        1 AM3      0.446000
     50 H155        3.1380   -2.3860    1.3880 h2        1 AM3      0.059700
@<TRIPOS>BOND
     1    1    2 1   
     2    1   23 1   
     3    2    3 1   
     4    2    6 1   
     5    2   24 1   
     6    3    4 1   
     7    3   12 1   
     8    3   25 1   
     9    4    5 1   
    10    4   27 1   
    11    4   28 1   
    12    5   13 1   
    13    6    7 1   
    14    6    8 1   
    15    6   26 1   
    16    7   29 1   
    17    8    9 1   
    18    8   10 1   
    19    8   30 1   
    20    9   31 1   
    21   10   11 1   
    22   10   12 1   
    23   10   50 1   
    24   11   49 1   
    25   12   13 1   
    26   13   14 2   
    27   14   15 1   
    28   15   16 1   
    29   15   32 1   
    30   15   33 1   
    31   16   17 1   
    32   16   34 1   
    33   16   35 1   
    34   17   18 1   
    35   17   36 1   
    36   17   37 1   
    37   18   19 1   
    38   18   38 1   
    39   18   39 1   
    40   19   20 1   
    41   19   40 1   
    42   19   41 1   
    43   20   21 1   
    44   20   42 1   
    45   20   43 1   
    46   21   22 1   
    47   21   44 1   
    48   21   45 1   
    49   22   46 1   
    50   22   47 1   
    51   22   48 1   
@<TRIPOS>SUBSTRUCTURE
     1 AM3         1 TEMP              0 ****  ****    0 ROOT
