@<TRIPOS>MOLECULE
AM4
   23    23     1     0     0
SMALL
bcc


@<TRIPOS>ATOM
      1 C2          0.0740   -1.2610    0.2580 ca        1 AM4     -0.026000
      2 C3         -1.3160   -1.2360    0.3320 ca        1 AM4     -0.127500
      3 C4         -1.9960   -0.0280    0.1440 ca        1 AM4     -0.074900
      4 C11        -3.4940    0.0140    0.2250 ce        1 AM4      0.641800
      5 N13        -4.0370    0.8870    1.0180 n2        1 AM4     -0.820100
      6 N12        -4.1430   -0.9810   -0.5360 nh        1 AM4     -0.958800
      7 C5         -1.2830    1.1460   -0.1170 ca        1 AM4     -0.127500
      8 C6          0.1070    1.1040   -0.1900 ca        1 AM4     -0.026000
      9 C1          0.8050   -0.0950   -0.0010 ca        1 AM4     -0.376500
     10 S7          2.4780   -0.1400   -0.1110 sy        1 AM4      1.396300
     11 C10         2.8840    0.1830    1.4990 c3        1 AM4     -0.359300
     12 O9          2.9350    0.9120   -0.9170 o         1 AM4     -0.657300
     13 O8          2.9020   -1.4370   -0.4370 o         1 AM4     -0.657300
     14 H2          0.6120   -2.2170    0.3910 ha        1 AM4      0.158000
     15 H3         -1.8720   -2.1610    0.5480 ha        1 AM4      0.156000
     16 H13        -5.0340    0.8940    1.0620 hn        1 AM4      0.389400
     17 H121       -3.6090   -1.3780   -1.2730 hn        1 AM4      0.404300
     18 H122       -5.0990   -0.8260   -0.7560 hn        1 AM4      0.404300
     19 H5         -1.8160    2.1000   -0.2520 ha        1 AM4      0.156000
     20 H6          0.6720    2.0270   -0.4130 ha        1 AM4      0.158000
     21 H101        2.4910    1.1640    1.8630 h1        1 AM4      0.115367
     22 H102        2.5100   -0.5930    2.2110 h1        1 AM4      0.115367
     23 H103        3.9950    0.2220    1.6350 h1        1 AM4      0.115367
@<TRIPOS>BOND
     1    1    2 ar  
     2    1    9 ar  
     3    1   14 1   
     4    2    3 ar  
     5    2   15 1   
     6    3    4 1   
     7    3    7 ar  
     8    4    5 2   
     9    4    6 1   
    10    5   16 1   
    11    6   17 1   
    12    6   18 1   
    13    7    8 ar  
    14    7   19 1   
    15    8    9 ar  
    16    8   20 1   
    17    9   10 1   
    18   10   11 1   
    19   10   12 2   
    20   10   13 2   
    21   11   21 1   
    22   11   22 1   
    23   11   23 1   
@<TRIPOS>SUBSTRUCTURE
     1 AM4         1 TEMP              0 ****  ****    0 ROOT
