@<TRIPOS>MOLECULE
AM4
   23    18     1     0     0
SMALL
bcc


@<TRIPOS>ATOM
      1 C2         -0.4230   -0.2120   -1.1620 c1        1 AM4     -0.023000
      2 C3          0.9610   -0.2460   -1.1430 c1        1 AM4     -0.142000
      3 C4          1.6310   -0.2500    0.0470 c1        1 AM4     -0.050000
      4 C11         3.1800   -0.2270    0.0550 c1        1 AM4      0.106000
      5 N13         3.8180    0.9150    0.0100 n1        1 AM4     -0.291000
      6 N12         3.8830   -1.3940    0.1060 n3        1 AM4     -0.330000
      7 C5          0.9280   -0.2210    1.2360 c2        1 AM4     -0.123000
      8 C6         -0.4640   -0.1880    1.2200 c1        1 AM4     -0.025000
      9 C1         -1.1320   -0.1830    0.0190 c1        1 AM4     -0.818000
     10 S7         -2.9890   -0.2040   -0.0300 s4        1 AM4      2.076800
     11 C10        -3.6380    1.4850   -0.1040 c2        1 AM4     -0.938000
     12 O9         -3.4450   -0.9620   -1.0920 o         1 AM4     -0.542400
     13 O8         -3.5300   -0.9120    1.0670 o         1 AM4     -0.542400
     14 H2         -0.9590   -0.2100   -2.1200 ha        1 AM4      0.160000
     15 H3          1.4980   -0.2670   -2.0460 ha        1 AM4      0.149000
     16 H13         3.3100    1.7670   -0.0290 DU        1 AM4      0.153000
     17 H121        3.3930   -2.2870    0.1720 hn        1 AM4      0.198500
     18 H122        4.8610   -1.3790   -0.0100 hn        1 AM4      0.198500
     19 H5          1.3930   -0.2240    2.0600 ha        1 AM4      0.160000
     20 H6         -0.9890   -0.1660    2.1040 ha        1 AM4      0.159000
     21 H101       -3.4290    1.8770   -0.9790 ha        1 AM4      0.155000
     22 H102       -4.6260    1.4680    0.0270 ha        1 AM4      0.155000
     23 H103       -3.2300    2.0200    0.5920 ha        1 AM4      0.155000
@<TRIPOS>BOND
     1    1    9 1   
     2    1   14 1   
     3    2    3 1   
     4    2   15 1   
     5    3    7 1   
     6    4    5 1   
     7    4    6 1   
     8    6   17 1   
     9    6   18 1   
    10    7    8 1   
    11    7   19 1   
    12    8   20 1   
    13    9   10 1   
    14   10   12 1   
    15   10   13 1   
    16   11   21 1   
    17   11   22 1   
    18   11   23 1   
@<TRIPOS>SUBSTRUCTURE
     1 AM4         1 TEMP              0 ****  ****    0 ROOT
