@<TRIPOS>MOLECULE
AM4
   24    24     1     0     0
SMALL
bcc


@<TRIPOS>ATOM
      1 C2          0.0400    0.5500   -0.0660 ca        1 AM4     -0.015000
      2 C3          1.4330    0.5850   -0.0070 ca        1 AM4     -0.119500
      3 C4          2.0780    0.2060    1.1750 ca        1 AM4     -0.215900
      4 C11         3.5550    0.2540    1.2570 ce        1 AM4      0.582800
      5 N13         4.3490    1.0320    1.8810 n2        1 AM4     -0.701100
      6 N12         4.1870   -0.8410    0.4360 nz        1 AM4     -0.824600
      7 C5          1.3410   -0.2010    2.2920 ca        1 AM4     -0.119500
      8 C6         -0.0520   -0.2320    2.2130 ca        1 AM4     -0.015000
      9 C1         -0.7120    0.1400    1.0400 ca        1 AM4     -0.294500
     10 S7         -2.4270    0.0190    0.9260 sy        1 AM4      1.388300
     11 C10        -2.8430    1.5600    1.4410 c3        1 AM4     -0.384300
     12 O9         -2.8400   -0.9350    1.8550 o         1 AM4     -0.631800
     13 O8         -2.7430   -0.1470   -0.4220 o         1 AM4     -0.631800
     14 H2         -0.4770    0.8300   -1.0040 ha        1 AM4      0.185500
     15 H3          2.0070    0.9280   -0.8820 ha        1 AM4      0.152500
     16 H13         3.9670    1.7740    2.4330 hn        1 AM4      0.494400
     17 H121        3.8080   -0.7850   -0.5160 hn        1 AM4      0.473133
     18 H122        3.9280   -1.7440    0.8490 hn        1 AM4      0.473133
     19 H5          1.8440   -0.4950    3.2260 ha        1 AM4      0.152500
     20 H6         -0.6410   -0.5790    3.0850 ha        1 AM4      0.185500
     21 H101       -3.9590    1.7010    1.4380 h1        1 AM4      0.131033
     22 H102       -2.5190    1.7930    2.4870 h1        1 AM4      0.131033
     23 H103       -2.4410    2.3800    0.7950 h1        1 AM4      0.131033
     24 H123        5.2120   -0.7620    0.4060 hn        1 AM4      0.473133
@<TRIPOS>BOND
     1    1    2 ar  
     2    1    9 ar  
     3    1   14 1   
     4    2    3 ar  
     5    2   15 1   
     6    3    4 1   
     7    3    7 ar  
     8    4    5 2   
     9    4    6 1   
    10    5   16 1   
    11    6   17 1   
    12    6   18 1   
    13    6   24 1   
    14    7    8 ar  
    15    7   19 1   
    16    8    9 ar  
    17    8   20 1   
    18    9   10 1   
    19   10   11 1   
    20   10   12 2   
    21   10   13 2   
    22   11   21 1   
    23   11   22 1   
    24   11   23 1   
@<TRIPOS>SUBSTRUCTURE
     1 AM4         1 TEMP              0 ****  ****    0 ROOT
