@<TRIPOS>MOLECULE
AM4
   24    24     1     0     0
SMALL
bcc


@<TRIPOS>ATOM
      1 C2          0.0380    0.5680   -0.0610 ca        1 AM4     -0.015000
      2 C3          1.4300    0.6000   -0.0060 ca        1 AM4     -0.119500
      3 C4          2.0780    0.2080    1.1710 ca        1 AM4     -0.215900
      4 C11         3.5550    0.2530    1.2500 ce        1 AM4      0.582800
      5 N13         4.3520    1.0230    1.8810 n2        1 AM4     -0.701100
      6 N12         4.1830   -0.8350    0.4160 n4        1 AM4     -0.824600
      7 C5          1.3430   -0.2080    2.2850 ca        1 AM4     -0.119500
      8 C6         -0.0510   -0.2370    2.2100 ca        1 AM4     -0.015000
      9 C1         -0.7120    0.1470    1.0410 ca        1 AM4     -0.294500
     10 S7         -2.4280    0.0310    0.9310 sy        1 AM4      1.388300
     11 C10        -2.8400    1.5670    1.4620 c3        1 AM4     -0.384300
     12 O9         -2.8400   -0.9310    1.8520 o         1 AM4     -0.631800
     13 O8         -2.7470   -0.1220   -0.4180 o         1 AM4     -0.631800
     14 H2         -0.4810    0.8570   -0.9960 ha        1 AM4      0.185500
     15 H3          2.0030    0.9500   -0.8780 ha        1 AM4      0.152500
     16 H13         3.9720    1.7600    2.4410 hn        1 AM4      0.494400
     17 H121        5.2080   -0.7570    0.3840 hn        1 AM4      0.473133
     18 H122        3.9240   -1.7420    0.8200 hn        1 AM4      0.473133
     19 H5          1.8480   -0.5130    3.2160 ha        1 AM4      0.152500
     20 H6         -0.6380   -0.5910    3.0800 ha        1 AM4      0.185500
     21 H101       -2.4380    2.3920    0.8220 h1        1 AM4      0.131367
     22 H102       -3.9550    1.7100    1.4630 h1        1 AM4      0.131367
     23 H103       -2.5130    1.7900    2.5080 h1        1 AM4      0.131367
     24 H123        3.8030   -0.7680   -0.5350 hn        1 AM4      0.473133
@<TRIPOS>BOND
     1    1    2 ar  
     2    1    9 ar  
     3    1   14 1   
     4    2    3 ar  
     5    2   15 1   
     6    3    4 1   
     7    3    7 ar  
     8    4    5 2   
     9    4    6 1   
    10    5   16 1   
    11    6   17 1   
    12    6   18 1   
    13    6   24 1   
    14    7    8 ar  
    15    7   19 1   
    16    8    9 ar  
    17    8   20 1   
    18    9   10 1   
    19   10   11 1   
    20   10   12 2   
    21   10   13 2   
    22   11   21 1   
    23   11   22 1   
    24   11   23 1   
@<TRIPOS>SUBSTRUCTURE
     1 AM4         1 TEMP              0 ****  ****    0 ROOT
