@<TRIPOS>MOLECULE
AM4
   24    24     1     0     0
SMALL
bcc


@<TRIPOS>ATOM
      1 C2          0.0330    0.5680   -0.0570 ca        1 AM4     -0.015000
      2 C3          1.4250    0.6140   -0.0040 ca        1 AM4     -0.119500
      3 C4          2.0790    0.2170    1.1680 ca        1 AM4     -0.215900
      4 C11         3.5560    0.2770    1.2440 ce        1 AM4      0.582800
      5 N13         4.3460    1.0490    1.8810 n2        1 AM4     -0.701100
      6 N12         4.1940   -0.7960    0.3990 n4        1 AM4     -0.824600
      7 C5          1.3500   -0.2180    2.2790 ca        1 AM4     -0.119500
      8 C6         -0.0430   -0.2610    2.2060 ca        1 AM4     -0.015000
      9 C1         -0.7110    0.1280    1.0420 ca        1 AM4     -0.294500
     10 S7         -2.4250   -0.0050    0.9340 sy        1 AM4      1.388300
     11 C10        -2.8530    1.5210    1.4810 c3        1 AM4     -0.384300
     12 O9         -2.8260   -0.9810    1.8450 o         1 AM4     -0.631800
     13 O8         -2.7450   -0.1480   -0.4160 o         1 AM4     -0.631800
     14 H2         -0.4910    0.8620   -0.9880 ha        1 AM4      0.185500
     15 H3          1.9930    0.9790   -0.8740 ha        1 AM4      0.152500
     16 H13         3.9590    1.7760    2.4490 hn        1 AM4      0.494400
     17 H121        3.8110   -0.7240   -0.5510 hn        1 AM4      0.473133
     18 H122        3.9440   -1.7090    0.7940 hn        1 AM4      0.473133
     19 H5          1.8600   -0.5270    3.2050 ha        1 AM4      0.152500
     20 H6         -0.6250   -0.6300    3.0730 ha        1 AM4      0.185500
     21 H101       -3.9690    1.6550    1.4780 h1        1 AM4      0.131033
     22 H102       -2.5330    1.7330    2.5320 h1        1 AM4      0.131033
     23 H103       -2.4540    2.3580    0.8540 h1        1 AM4      0.131033
     24 H123        5.2180   -0.7070    0.3660 hn        1 AM4      0.473133
@<TRIPOS>BOND
     1    1    2 ar  
     2    1    9 ar  
     3    1   14 1   
     4    2    3 ar  
     5    2   15 1   
     6    3    4 1   
     7    3    7 ar  
     8    4    5 2   
     9    4    6 1   
    10    5   16 1   
    11    6   17 1   
    12    6   18 1   
    13    6   24 1   
    14    7    8 ar  
    15    7   19 1   
    16    8    9 ar  
    17    8   20 1   
    18    9   10 1   
    19   10   11 1   
    20   10   12 2   
    21   10   13 2   
    22   11   21 1   
    23   11   22 1   
    24   11   23 1   
@<TRIPOS>SUBSTRUCTURE
     1 AM4         1 TEMP              0 ****  ****    0 ROOT
