@<TRIPOS>MOLECULE
AM5
   73    71     1     0     0
SMALL
bcc


@<TRIPOS>ATOM
      1 C7         -1.2830    0.5550    0.4480 c2        1 AM5     -0.147300
      2 C9         -0.0100    0.7710    0.1590 c1        1 AM5      0.013200
      3 C10         1.0900    0.9900    0.8780 ce        1 AM5     -0.187300
      4 C11         2.5070    0.8440    0.4940 c         1 AM5      0.704300
      5 N3          2.7490    0.6560   -0.8650 ns        1 AM5     -0.401700
      6 C14         3.9790    0.4790   -1.3820 c1        1 AM5     -0.077800
      7 C15         6.4540    1.4350    2.6100 c2        1 AM5     -0.141000
      8 C19         7.7610    1.3450    2.3460 ce        1 AM5     -0.086700
      9 C18         8.2860    0.8730    1.1320 cg        1 AM5      0.007700
     10 C17         8.7550    0.4760    0.1050 c1        1 AM5     -0.266100
     11 C16         5.0720    0.3260   -1.8510 c1        1 AM5     -0.139500
     12 C20         9.3270   -0.0070   -1.1480 c3        1 AM5      0.757000
     13 F1          9.8610   -1.2730   -1.0850 f         1 AM5     -0.232633
     14 F3          8.4300   -0.0790   -2.1920 f         1 AM5     -0.232633
     15 F2         10.3520    0.7630   -1.6460 f         1 AM5     -0.232633
     16 C12         0.7470    1.2330    2.2910 ce        1 AM5     -0.055000
     17 C13        -0.4080    0.6870    2.7460 cf        1 AM5     -0.180400
     18 C21        -1.4530    0.0290    1.8560 c3        1 AM5      0.004700
     19 C22        -1.4120   -1.4770    1.9780 c3        1 AM5     -0.090100
     20 N1         -1.1460    0.4660    8.5920 ne        1 AM5     -0.574300
     21 C23        -1.0060    0.5630    7.2150 ce        1 AM5     -0.005400
     22 C24         0.1260    0.3820    6.4800 c2        1 AM5     -0.052400
     23 C25         2.1080    1.7030    9.3520 c1        1 AM5      0.477800
     24 N4          1.0090    1.2620    9.4000 n1        1 AM5     -0.923400
     25 C26        -0.2820    0.7630    9.5020 cf        1 AM5      0.744500
     26 N6          0.2270    0.4120    5.0930 ns        1 AM5     -0.463100
     27 C8         -0.7810    0.7200    4.1910 c         1 AM5      0.678300
     28 O2         -1.9420    1.0010    4.5490 o         1 AM5     -0.607100
     29 N7         -8.2770    3.1010    6.7180 n1        1 AM5     -0.350800
     30 C27        -1.5520    0.1900   12.8140 c1        1 AM5     -0.163800
     31 C28        -0.5830    0.7840   13.4770 c2        1 AM5      0.026900
     32 C29        -4.8490    2.0000    5.7390 c1        1 AM5     -0.032500
     33 C30        -5.9500    2.3540    6.0530 cg        1 AM5     -0.131000
     34 C5         -7.2070    2.7570    6.4120 cg        1 AM5      0.311800
     35 C31        -2.4930   -0.4650   12.2110 c2        1 AM5     -0.193100
     36 C1         -1.9840    3.9600   14.9730 c3        1 AM5      0.165300
     37 N2         -0.7870    4.7880   14.9450 n3        1 AM5     -0.732600
     38 C3          0.4250    4.0080   15.1460 c3        1 AM5      0.165300
     39 C4          0.5270    2.8020   14.1910 c3        1 AM5      0.184800
     40 N5         -0.6770    1.9840   14.1980 nh        1 AM5     -0.629400
     41 C6         -1.9010    2.7480   14.0250 c3        1 AM5      0.184800
     42 O1          3.4260    0.9050    1.3330 o         1 AM5     -0.593100
     43 H7         -2.4660    0.4020    2.2000 hc        1 AM5      0.113700
     44 H9         -2.1600    0.8200   -0.1500 ha        1 AM5      0.172000
     45 HN3         1.9760    0.5830   -1.4920 hn        1 AM5      0.343500
     46 H15         5.6640    1.1460    1.8980 ha        1 AM5      0.139500
     47 H19         6.0950    1.8120    3.5780 ha        1 AM5      0.139500
     48 H18         8.5250    1.6450    3.0890 ha        1 AM5      0.148000
     49 H16         6.0380    0.1900   -2.2680 ha        1 AM5      0.190500
     50 H12         1.4880    1.7490    2.9180 ha        1 AM5      0.168000
     51 H22        -1.5660   -1.7810    3.0420 hc        1 AM5      0.051700
     52 H22A       -0.4290   -1.8770    1.6300 hc        1 AM5      0.051700
     53 H22B       -2.2220   -1.9290    1.3560 hc        1 AM5      0.051700
     54 H23        -1.9880    0.7550    6.7340 h4        1 AM5      0.185000
     55 H25         1.1000    0.1490    6.9580 h4        1 AM5      0.145000
     56 HN6         1.1210    0.1830    4.7160 hn        1 AM5      0.331500
     57 HN7        -0.6110    0.6200   10.5650 h5        1 AM5      0.069800
     58 H27        -2.6700   -0.3880   11.1260 ha        1 AM5      0.125500
     59 H29         0.4090    0.2930   13.5590 h4        1 AM5      0.148000
     60 H30        -3.8700    1.6860    5.4570 ha        1 AM5      0.201500
     61 H31        -3.1750   -1.1430   12.7480 ha        1 AM5      0.125500
     62 H1         -2.2110    3.5900   16.0150 h1        1 AM5      0.039950
     63 H1A        -2.8500    4.5970   14.6360 h1        1 AM5      0.039950
     64 H3          0.5120    3.6360   16.2090 h1        1 AM5      0.039950
     65 H3A         1.3050    4.6790   14.9410 h1        1 AM5      0.039950
     66 H4          1.3900    2.1640   14.5310 h1        1 AM5      0.045200
     67 H4A         0.7580    3.1810   13.1540 h1        1 AM5      0.045200
     68 H6         -2.0080    3.1080   12.9610 h1        1 AM5      0.045200
     69 H6A        -2.7690    2.0670   14.2510 h1        1 AM5      0.045200
     70 H2         -1.7810    6.5190   15.5780 h1        1 AM5      0.033700
     71 H2A         0.0380    6.5560   15.7070 h1        1 AM5      0.033700
     72 H2B        -0.9440    5.6210   16.9260 h1        1 AM5      0.033700
     73 C2         -0.8730    5.9170   15.8430 c3        1 AM5      0.157100
@<TRIPOS>BOND
     1    1    2 2   
     2    1   18 1   
     3    1   44 1   
     4    2    3 2   
     5    3    4 1   
     6    3   16 1   
     7    4    5 1   
     8    4   42 2   
     9    5    6 1   
    10    5   45 1   
    11    6   11 3   
    12    7    8 2   
    13    7   46 1   
    14    7   47 1   
    15    8    9 1   
    16    8   48 1   
    17    9   10 3   
    18   10   12 1   
    19   11   49 1   
    20   12   13 1   
    21   12   14 1   
    22   12   15 1   
    23   16   17 2   
    24   16   50 1   
    25   17   18 1   
    26   17   27 1   
    27   18   19 1   
    28   18   43 1   
    29   19   51 1   
    30   19   52 1   
    31   19   53 1   
    32   20   21 1   
    33   20   25 2   
    34   21   22 2   
    35   21   54 1   
    36   22   26 1   
    37   22   55 1   
    38   23   24 3   
    39   24   25 1   
    40   25   57 1   
    41   26   27 1   
    42   26   56 1   
    43   27   28 2   
    44   29   34 3   
    45   30   31 2   
    46   30   35 2   
    47   31   40 1   
    48   31   59 1   
    49   32   33 3   
    50   32   60 1   
    51   33   34 1   
    52   35   58 1   
    53   35   61 1   
    54   36   37 1   
    55   36   41 1   
    56   36   62 1   
    57   36   63 1   
    58   37   38 1   
    59   37   73 1   
    60   38   39 1   
    61   38   64 1   
    62   38   65 1   
    63   39   40 1   
    64   39   66 1   
    65   39   67 1   
    66   40   41 1   
    67   41   68 1   
    68   41   69 1   
    69   70   73 1   
    70   71   73 1   
    71   72   73 1   
@<TRIPOS>SUBSTRUCTURE
     1 AM5         1 TEMP              0 ****  ****    0 ROOT
