@<TRIPOS>MOLECULE
AM5
   73    67     1     0     0
SMALL
bcc


@<TRIPOS>ATOM
      1 C7          1.6600    2.6940   -5.3230 c1        1 AM5     -0.113000
      2 C9          2.8920    2.1130   -5.6110 c1        1 AM5     -0.113000
      3 C10         3.4000    1.1070   -4.7870 c1        1 AM5     -0.143000
      4 C11         4.6850    0.3860   -5.1700 c2        1 AM5      0.357000
      5 N3          5.3740    0.7430   -6.3840 n         1 AM5     -0.324000
      6 C14         6.5510   -0.0360   -6.8190 c2        1 AM5      0.077000
      7 C15         6.3790   -1.1480   -7.6240 c2        1 AM5     -0.127000
      8 C19         7.4950   -1.8270   -8.1340 c1        1 AM5     -0.108000
      9 C18         8.7860   -1.3790   -7.8290 c1        1 AM5     -0.110000
     10 C17         8.9560   -0.2740   -7.0290 c1        1 AM5     -0.132000
     11 C16         7.8250    0.4090   -6.5150 c1        1 AM5     -0.143000
     12 C20        10.3290    0.1540   -6.6220 c3        1 AM5      0.465000
     13 F1         10.2370    1.1030   -5.7180 f         1 AM5     -0.165667
     14 F3         10.9990    0.6230   -7.7050 f         1 AM5     -0.165667
     15 F2         10.9730   -0.8620   -6.1180 f         1 AM5     -0.165667
     16 C12         2.6700    0.6850   -3.6730 c1        1 AM5     -0.050000
     17 C13         1.4450    1.2620   -3.3860 c1        1 AM5     -0.138000
     18 C21         0.9360    2.2730   -4.2150 c1        1 AM5      0.016000
     19 C22        -0.3680    2.9700   -3.8410 c3        1 AM5     -0.203000
     20 N1          0.6160   -1.0450    2.3440 n1        1 AM5     -0.199000
     21 C23         1.2410   -0.4860    1.2980 c1        1 AM5     -0.047000
     22 C24         0.6100   -0.3910    0.0970 c1        1 AM5     -0.086000
     23 C25        -0.6680   -0.8690   -0.0410 c1        1 AM5     -0.021000
     24 N4         -1.2970   -1.4330    1.0190 n1        1 AM5     -0.181000
     25 C26        -0.6640   -1.5240    2.2100 c1        1 AM5      0.119000
     26 N6          1.3530    0.0610   -1.0780 n         1 AM5     -0.305000
     27 C8          0.7320    0.9470   -2.0220 c2        1 AM5      0.357000
     28 O2         -0.4100    1.3180   -1.8400 o         1 AM5     -0.343000
     29 N7         -1.2310   -2.3270    3.2620 n3        1 AM5     -0.210000
     30 C27        -4.6610   -2.0410    4.7210 c1        1 AM5     -0.175000
     31 C28        -4.4300   -1.1830    5.7760 c1        1 AM5      0.051000
     32 C29        -3.1560   -0.6400    5.9700 c1        1 AM5     -0.147000
     33 C30        -2.1170   -0.9660    5.0970 c1        1 AM5     -0.139000
     34 C5         -2.3480   -1.8260    4.0390 c2        1 AM5      0.005000
     35 C31        -3.6230   -2.3680    3.8460 c2        1 AM5     -0.074000
     36 C1         -7.9170   -0.8980    7.0990 c3        1 AM5     -0.077500
     37 N2         -7.8720    0.4890    7.4600 n3        1 AM5     -0.245000
     38 C3         -6.6020    0.8790    7.9970 c3        1 AM5     -0.077500
     39 C4         -5.4310    0.4770    7.0920 c3        1 AM5     -0.085000
     40 N5         -5.4740   -0.9090    6.7310 n3        1 AM5     -0.233000
     41 C6         -6.7540   -1.3020    6.1880 c3        1 AM5     -0.085000
     42 C2         -8.1650    1.2470    6.3690 c3        1 AM5     -0.129000
     43 O1          5.0730   -0.5480   -4.5080 o         1 AM5     -0.338000
     44 H7          1.2980    3.4150   -5.9150 ha        1 AM5      0.144500
     45 H9          3.3890    2.4010   -6.3770 ha        1 AM5      0.144500
     46 HN3         5.1360    1.5230   -6.8430 hn        1 AM5      0.235000
     47 H15         5.4730   -1.4620   -7.8380 ha        1 AM5      0.180000
     48 H19         7.3740   -2.5970   -8.6920 ha        1 AM5      0.147000
     49 H18         9.5790   -1.8620   -8.1920 ha        1 AM5      0.154000
     50 H16         7.9470    1.2100   -5.9360 ha        1 AM5      0.147000
     51 H12         3.0210   -0.0150   -3.0990 ha        1 AM5      0.163000
     52 H22        -1.0560    2.2870   -3.6250 hc        1 AM5      0.103667
     53 H22A       -0.6760    3.5200   -4.5970 hc        1 AM5      0.103667
     54 H22B       -0.2170    3.5520   -3.0480 hc        1 AM5      0.103667
     55 H23         2.1470   -0.1490    1.3980 ha        1 AM5      0.161000
     56 H25        -1.1120   -0.8050   -0.8760 ha        1 AM5      0.205000
     57 HN6         2.2450   -0.1180   -1.1440 hn        1 AM5      0.236000
     58 HN7        -0.9010   -3.1740    3.4230 hn        1 AM5      0.226000
     59 H27        -5.5420   -2.4160    4.5870 ha        1 AM5      0.136000
     60 H29        -2.9910   -0.0230    6.7300 ha        1 AM5      0.137000
     61 H30        -1.2250   -0.5860    5.2340 ha        1 AM5      0.130000
     62 H31        -3.7860   -2.9690    3.1060 ha        1 AM5      0.154000
     63 H1         -8.7970   -1.0850    6.6160 h1        1 AM5      0.099500
     64 H1A        -7.8820   -1.4470    7.9300 h1        1 AM5      0.099500
     65 H3         -6.4880    0.4610    8.8570 h1        1 AM5      0.099500
     66 H3A        -6.5930    1.8710    8.1140 h1        1 AM5      0.099500
     67 H4         -4.5670    0.6580    7.5810 h1        1 AM5      0.080750
     68 H4A        -5.4540    1.0260    6.2690 h1        1 AM5      0.080750
     69 H6         -6.7660   -2.3020    6.0700 h1        1 AM5      0.080750
     70 H6A        -6.8730   -0.8810    5.3220 h1        1 AM5      0.080750
     71 H2         -8.1270    2.2220    6.6140 h1        1 AM5      0.072333
     72 H2A        -9.0720    1.0220    6.0510 h1        1 AM5      0.072333
     73 H2B        -7.5120    1.0610    5.6560 h1        1 AM5      0.072333
@<TRIPOS>BOND
     1    1    2 1   
     2    1   44 1   
     3    2   45 1   
     4    3    4 1   
     5    3   16 1   
     6    4    5 1   
     7    4   43 1   
     8    5    6 1   
     9    5   46 1   
    10    6    7 1   
    11    6   11 1   
    12    7    8 1   
    13    7   47 1   
    14    8   48 1   
    15    9   10 1   
    16    9   49 1   
    17   10   12 1   
    18   11   50 1   
    19   12   13 1   
    20   12   14 1   
    21   12   15 1   
    22   16   51 1   
    23   17   18 1   
    24   17   27 1   
    25   18   19 1   
    26   19   52 1   
    27   19   53 1   
    28   19   54 1   
    29   20   25 1   
    30   21   22 1   
    31   21   55 1   
    32   22   26 1   
    33   23   24 1   
    34   23   56 1   
    35   25   29 1   
    36   26   27 1   
    37   26   57 1   
    38   27   28 1   
    39   29   34 1   
    40   29   58 1   
    41   30   35 1   
    42   30   59 1   
    43   31   32 1   
    44   31   40 1   
    45   32   60 1   
    46   33   34 1   
    47   33   61 1   
    48   34   35 1   
    49   35   62 1   
    50   36   37 1   
    51   36   41 1   
    52   36   63 1   
    53   36   64 1   
    54   37   38 1   
    55   37   42 1   
    56   38   39 1   
    57   38   65 1   
    58   38   66 1   
    59   39   40 1   
    60   39   67 1   
    61   39   68 1   
    62   40   41 1   
    63   41   69 1   
    64   41   70 1   
    65   42   71 1   
    66   42   72 1   
    67   42   73 1   
@<TRIPOS>SUBSTRUCTURE
     1 AM5         1 TEMP              0 ****  ****    0 ROOT
