@<TRIPOS>MOLECULE
AM5
   73    77     1     0     0
SMALL
bcc


@<TRIPOS>ATOM
      1 C7         -4.5900   -4.0680    0.9340 ca        1 AM5     -0.147000
      2 C9         -5.1600   -2.9350    0.3610 ca        1 AM5     -0.079000
      3 C10        -4.3640   -2.0460   -0.3680 ca        1 AM5     -0.163600
      4 C11        -4.9190   -0.8260   -1.0260 c         1 AM5      0.683700
      5 N3         -5.8990   -0.1430   -0.3140 n         1 AM5     -0.470100
      6 C14        -6.5650    1.0300   -0.7030 ca        1 AM5      0.069600
      7 C15        -6.4890    1.5690   -2.0070 ca        1 AM5     -0.127000
      8 C19        -7.1870    2.7290   -2.3260 ca        1 AM5     -0.108000
      9 C18        -7.9760    3.3790   -1.3790 ca        1 AM5     -0.110000
     10 C17        -8.0570    2.8490   -0.0910 ca        1 AM5     -0.139300
     11 C16        -7.3660    1.6930    0.2580 ca        1 AM5     -0.143000
     12 C20        -8.9300    3.5340    0.9550 c3        1 AM5      0.686200
     13 F1         -9.0920    4.8860    0.7710 f         1 AM5     -0.236967
     14 F3        -10.2140    3.0490    1.0200 f         1 AM5     -0.236967
     15 F2         -8.4690    3.4250    2.2450 f         1 AM5     -0.236967
     16 C12        -2.9990   -2.3090   -0.5320 ca        1 AM5     -0.050000
     17 C13        -2.4300   -3.4430    0.0510 ca        1 AM5     -0.158600
     18 C21        -3.2220   -4.3380    0.7910 ca        1 AM5      0.008700
     19 C22        -2.6360   -5.5520    1.4030 c3        1 AM5     -0.077800
     20 N1          3.3770   -3.7500   -0.5380 nb        1 AM5     -0.714500
     21 C23         2.0440   -3.7720   -0.4680 ca        1 AM5      0.430700
     22 C24         1.2780   -2.7060    0.0870 ca        1 AM5     -0.222000
     23 C25         2.0370   -1.5980    0.5640 ca        1 AM5      0.430700
     24 N4          3.3720   -1.5380    0.5170 nb        1 AM5     -0.714500
     25 C26         4.0290   -2.6320   -0.0260 ca        1 AM5      0.835900
     26 N6         -0.1170   -2.6910    0.1740 n         1 AM5     -0.451100
     27 C8         -0.9760   -3.7300   -0.1550 c         1 AM5      0.683700
     28 O2         -0.5760   -4.8250   -0.5890 o         1 AM5     -0.582100
     29 N7          5.4440   -2.6800   -0.0020 nh        1 AM5     -0.688300
     30 C27         7.9100   -0.0690   -0.9910 ca        1 AM5     -0.160000
     31 C28         7.8750    0.8150    0.1140 ca        1 AM5      0.131600
     32 C29         6.9890    0.5080    1.1680 ca        1 AM5     -0.160000
     33 C30         6.1710   -0.6150    1.1240 ca        1 AM5     -0.108000
     34 C5          6.2060   -1.4850    0.0190 ca        1 AM5      0.086600
     35 C31         7.0930   -1.1870   -1.0380 ca        1 AM5     -0.108000
     36 C1         10.8340    3.1250   -0.3590 c3        1 AM5      0.165300
     37 N2         10.5660    4.1100    0.6790 n3        1 AM5     -0.732600
     38 C3          9.1400    4.2990    0.9010 c3        1 AM5      0.165300
     39 C4          8.3860    2.9730    1.1290 c3        1 AM5      0.184800
     40 N5          8.6560    1.9980    0.0860 nh        1 AM5     -0.634000
     41 C6         10.0810    1.7980   -0.1370 c3        1 AM5      0.184800
     42 O1         -4.5030   -0.4500   -2.1360 o         1 AM5     -0.577100
     43 H7         -5.2230   -4.7680    1.5010 ha        1 AM5      0.147000
     44 H9         -6.2420   -2.7640    0.4700 ha        1 AM5      0.142000
     45 HN3        -6.1080   -0.4720    0.6030 hn        1 AM5      0.322500
     46 H15        -5.8740    1.0790   -2.7820 ha        1 AM5      0.180000
     47 H19        -7.1140    3.1370   -3.3460 ha        1 AM5      0.147000
     48 H18        -8.5230    4.2990   -1.6350 ha        1 AM5      0.154000
     49 H16        -7.4510    1.3100    1.2880 ha        1 AM5      0.147000
     50 H12        -2.3920   -1.6230   -1.1470 ha        1 AM5      0.163000
     51 H22        -2.1910   -6.2020    0.6040 hc        1 AM5      0.064700
     52 H22A       -1.8160   -5.2730    2.1110 hc        1 AM5      0.064700
     53 H22B       -3.4040   -6.1410    1.9600 hc        1 AM5      0.064700
     54 H23         1.5600   -4.6810   -0.8800 h4        1 AM5      0.046100
     55 H25         1.5480   -0.7080    1.0020 h4        1 AM5      0.046100
     56 HN6        -0.5200   -1.8510    0.5260 hn        1 AM5      0.322500
     57 HN7         5.8280   -3.3830   -0.6060 hn        1 AM5      0.430800
     58 H27         8.5760    0.1330   -1.8440 ha        1 AM5      0.137000
     59 H29         6.9270    1.1550    2.0570 ha        1 AM5      0.137000
     60 H30         5.4970   -0.8160    1.9720 ha        1 AM5      0.142000
     61 H31         7.1470   -1.8460   -1.9190 ha        1 AM5      0.142000
     62 H1         10.5780    3.5190   -1.3860 h1        1 AM5      0.038950
     63 H1A        11.9370    2.8980   -0.3400 h1        1 AM5      0.038950
     64 H3          9.0170    4.9230    1.8300 h1        1 AM5      0.038950
     65 H3A         8.6520    4.8500    0.0450 h1        1 AM5      0.038950
     66 H4          8.6590    2.5760    2.1500 h1        1 AM5      0.044450
     67 H4A         7.2830    3.2010    1.1210 h1        1 AM5      0.044450
     68 H6         10.2200    1.1700   -1.0600 h1        1 AM5      0.044450
     69 H6A        10.5550    1.2530    0.7310 h1        1 AM5      0.044450
     70 H2         10.9300    5.8870   -0.4870 h1        1 AM5      0.033033
     71 H2A        11.0800    6.0350    1.3240 h1        1 AM5      0.033033
     72 H2B        12.3590    5.1490    0.3720 h1        1 AM5      0.033033
     73 C2         11.2590    5.3570    0.4490 c3        1 AM5      0.157100
@<TRIPOS>BOND
     1    1    2 ar  
     2    1   18 ar  
     3    1   43 1   
     4    2    3 ar  
     5    2   44 1   
     6    3    4 1   
     7    3   16 ar  
     8    4    5 1   
     9    4   42 2   
    10    5    6 1   
    11    5   45 1   
    12    6    7 ar  
    13    6   11 ar  
    14    7    8 ar  
    15    7   46 1   
    16    8    9 ar  
    17    8   47 1   
    18    9   10 ar  
    19    9   48 1   
    20   10   11 ar  
    21   10   12 1   
    22   11   49 1   
    23   12   13 1   
    24   12   14 1   
    25   12   15 1   
    26   16   17 ar  
    27   16   50 1   
    28   17   18 ar  
    29   17   27 1   
    30   18   19 1   
    31   19   51 1   
    32   19   52 1   
    33   19   53 1   
    34   20   21 ar  
    35   20   25 ar  
    36   21   22 ar  
    37   21   54 1   
    38   22   23 ar  
    39   22   26 1   
    40   23   24 ar  
    41   23   55 1   
    42   24   25 ar  
    43   25   29 1   
    44   26   27 1   
    45   26   56 1   
    46   27   28 2   
    47   29   34 1   
    48   29   57 1   
    49   30   31 ar  
    50   30   35 ar  
    51   30   58 1   
    52   31   32 ar  
    53   31   40 1   
    54   32   33 ar  
    55   32   59 1   
    56   33   34 ar  
    57   33   60 1   
    58   34   35 ar  
    59   35   61 1   
    60   36   37 1   
    61   36   41 1   
    62   36   62 1   
    63   36   63 1   
    64   37   38 1   
    65   37   73 1   
    66   38   39 1   
    67   38   64 1   
    68   38   65 1   
    69   39   40 1   
    70   39   66 1   
    71   39   67 1   
    72   40   41 1   
    73   41   68 1   
    74   41   69 1   
    75   70   73 1   
    76   71   73 1   
    77   72   73 1   
@<TRIPOS>SUBSTRUCTURE
     1 AM5         1 TEMP              0 ****  ****    0 ROOT
