@<TRIPOS>MOLECULE
AM5
   73    70     1     0     0
SMALL
bcc


@<TRIPOS>ATOM
      1 C7          0.0530   -1.7520    0.2550 c3        1 AM5     -0.210000
      2 C9          1.4310   -1.6170   -0.1880 c1        1 AM5     -0.111000
      3 C10         2.4210   -1.3650    0.7830 c2        1 AM5     -0.266000
      4 C11         3.8160   -1.2520    0.3150 c2        1 AM5      0.376000
      5 N3          3.9220   -0.3730   -0.8600 n         1 AM5     -0.084000
      6 C14         4.6890    0.6380   -0.8940 c1        1 AM5     -0.039000
      7 C15         2.1390    2.9440    2.5090 c2        1 AM5     -0.409000
      8 C19         3.4540    2.6780    2.3800 c2        1 AM5      0.001000
      9 C18         4.1260    2.3440    1.2250 c1        1 AM5     -0.331000
     10 C17         5.0270    2.6600    0.3110 c2        1 AM5     -0.186000
     11 C16         5.4840    1.6630   -0.6200 c2        1 AM5      0.111000
     12 C20         5.6750    4.0390    0.1520 c3        1 AM5      0.437000
     13 F1          5.9790    4.6720    1.3310 f         1 AM5     -0.180667
     14 F3          6.8720    4.0450   -0.5330 f         1 AM5     -0.180667
     15 F2          4.9130    4.9550   -0.5340 f         1 AM5     -0.180667
     16 C12         2.1240   -1.1310    2.1090 c2        1 AM5      0.124000
     17 C13         0.7640   -1.1500    2.5460 c2        1 AM5     -0.220000
     18 C21        -0.2510   -1.4730    1.6830 c2        1 AM5      0.072000
     19 C22        -1.6650   -1.5370    2.1000 c3        1 AM5     -0.235000
     20 N1          0.2890    0.9390    8.0290 n2        1 AM5     -0.144000
     21 C23         0.3620    0.3970    6.7520 c2        1 AM5     -0.156000
     22 C24         0.7410    1.0400    5.6130 c2        1 AM5     -0.052000
     23 C25        -1.1220    4.0210    6.9520 c1        1 AM5      0.119000
     24 N4         -0.6520    3.1350    7.5800 n2        1 AM5     -0.334000
     25 C26        -0.1380    2.1070    8.3630 c2        1 AM5      0.086000
     26 N6          0.8950    0.4690    4.3540 n         1 AM5     -0.312000
     27 C8          0.4930   -0.8020    3.9780 c2        1 AM5      0.341000
     28 O2         -0.0580   -1.6070    4.7500 o         1 AM5     -0.339000
     29 N7         -5.2330    7.7170    2.5960 n1        1 AM5     -0.028000
     30 C27        -2.2470   -0.9670   15.3790 c1        1 AM5     -0.116000
     31 C28        -1.3370   -1.1210   14.4410 c2        1 AM5     -0.084000
     32 C29        -2.9150    6.0040    4.9660 c1        1 AM5     -0.092000
     33 C30        -3.6590    6.5550    4.2050 c1        1 AM5     -0.136000
     34 C5         -4.5090    7.1840    3.3360 c1        1 AM5     -0.013000
     35 C31        -3.1430   -0.8550   16.3060 c2        1 AM5     -0.165000
     36 C1          0.1540    3.9400   16.6430 c3        1 AM5     -0.213000
     37 N2          0.2490    2.2070   12.0950 n2        1 AM5     -0.212000
     38 C3          0.7170    0.8570   11.9940 c3        1 AM5     -0.078000
     39 C4          0.1020   -0.2390   12.8290 c2        1 AM5     -0.084000
     40 N5         -0.8000   -0.0340   13.7250 n2        1 AM5     -0.149000
     41 C6         -0.8300    4.6330   17.5380 c3        1 AM5     -0.213000
     42 O1          4.8200   -1.7650    0.7940 o         1 AM5     -0.226000
     43 H7         -0.5860   -1.0780   -0.3950 hc        1 AM5      0.185000
     44 H9         -0.2710   -2.8090   -0.0010 hc        1 AM5      0.185000
     45 HN3         3.1930   -0.5070   -1.5520 hn        1 AM5      0.292000
     46 H15         1.4670    3.0330    1.6510 ha        1 AM5      0.100000
     47 H19         1.7040    3.1970    3.4810 ha        1 AM5      0.100000
     48 H18         4.0880    2.6190    3.2920 ha        1 AM5      0.125000
     49 H16         6.4600    1.7770   -1.1300 ha        1 AM5      0.194000
     50 H12         2.9190   -0.9040    2.8450 ha        1 AM5      0.171000
     51 H22        -2.0780   -0.4990    2.1980 hc        1 AM5      0.120667
     52 H22A       -2.2840   -2.0930    1.3530 hc        1 AM5      0.120667
     53 H22B       -1.7610   -2.0400    3.0990 hc        1 AM5      0.120667
     54 H23         0.1330   -0.6900    6.7630 h4        1 AM5      0.191000
     55 H25         1.0140    2.1160    5.6130 h4        1 AM5      0.149000
     56 HN6         1.3030    1.0620    3.6520 hn        1 AM5      0.267000
     57 HN7        -0.1240    2.3590    9.4540 h5        1 AM5      0.211000
     58 H27        -4.2210   -0.8890   16.0880 ha        1 AM5      0.137500
     59 H29        -0.9820   -2.1480   14.2030 h4        1 AM5      0.126000
     60 H30        -2.2530    5.5080    5.6440 ha        1 AM5      0.263000
     61 H31        -2.8790   -0.7200   17.3660 ha        1 AM5      0.137500
     62 H1         -1.8770    4.4330   17.2030 hc        1 AM5      0.071000
     63 H1A        -0.0120    2.8350   16.6510 hc        1 AM5      0.071000
     64 H3          0.0510    4.2980   15.5890 hc        1 AM5      0.071000
     65 H3A         0.5530    0.5600   10.9130 h1        1 AM5      0.115000
     66 H4          1.8310    0.8310   12.1890 h1        1 AM5      0.115000
     67 H4A         0.5080   -1.2420   12.5630 h4        1 AM5      0.104000
     68 H6         -0.6650    5.7370   17.5270 hc        1 AM5      0.071000
     69 H6A        -0.7260    4.2750   18.5910 hc        1 AM5      0.071000
     70 H2          1.2010    4.1390   16.9780 hc        1 AM5      0.071000
     71 H2A        -0.3190    3.8590   13.1340 h4        1 AM5      0.118500
     72 H2B         0.1080    2.4040   14.2240 h4        1 AM5      0.118500
     73 C2          0.0190    2.8060   13.1970 c2        1 AM5     -0.084000
@<TRIPOS>BOND
     1    1    2 1   
     2    1   18 1   
     3    1   43 1   
     4    1   44 1   
     5    2    3 1   
     6    3    4 1   
     7    3   16 1   
     8    4    5 1   
     9    4   42 1   
    10    5    6 1   
    11    5   45 1   
    12    6   11 1   
    13    7    8 1   
    14    7   46 1   
    15    7   47 1   
    16    8    9 1   
    17    8   48 1   
    18    9   10 1   
    19   10   11 1   
    20   10   12 1   
    21   11   49 1   
    22   12   13 1   
    23   12   14 1   
    24   12   15 1   
    25   16   17 1   
    26   16   50 1   
    27   17   18 1   
    28   17   27 1   
    29   18   19 1   
    30   19   51 1   
    31   19   52 1   
    32   19   53 1   
    33   20   21 1   
    34   20   25 1   
    35   21   22 1   
    36   21   54 1   
    37   22   26 1   
    38   22   55 1   
    39   23   24 1   
    40   24   25 1   
    41   25   57 1   
    42   26   27 1   
    43   26   56 1   
    44   27   28 1   
    45   29   34 1   
    46   30   31 1   
    47   30   35 1   
    48   31   40 1   
    49   31   59 1   
    50   32   33 1   
    51   32   60 1   
    52   33   34 1   
    53   35   58 1   
    54   35   61 1   
    55   36   41 1   
    56   36   63 1   
    57   36   64 1   
    58   36   70 1   
    59   37   38 1   
    60   37   73 1   
    61   38   39 1   
    62   38   65 1   
    63   38   66 1   
    64   39   40 1   
    65   39   67 1   
    66   41   62 1   
    67   41   68 1   
    68   41   69 1   
    69   71   73 1   
    70   72   73 1   
@<TRIPOS>SUBSTRUCTURE
     1 AM5         1 TEMP              0 ****  ****    0 ROOT
