@<TRIPOS>MOLECULE
AM6
   76    80     1     0     0
SMALL
bcc


@<TRIPOS>ATOM
      1 C9         -5.1400    4.6050   -0.7980 ca        1 AM6     -0.115000
      2 C10        -5.6860    3.3580   -0.5320 ca        1 AM6     -0.151000
      3 C11        -4.8770    2.3200   -0.0100 ca        1 AM6      0.049600
      4 N3         -5.4630    1.0730    0.2710 n         1 AM6     -0.470100
      5 C7         -4.7980   -0.1430    0.3430 c         1 AM6      0.684700
      6 C14        -5.6750   -1.3220    0.6290 ca        1 AM6     -0.159600
      7 C15        -6.2750   -1.4080    1.8890 ca        1 AM6     -0.071000
      8 C19        -7.0720   -2.5050    2.2090 ca        1 AM6     -0.144000
      9 C18        -7.2760   -3.5100    1.2670 ca        1 AM6     -0.061000
     10 C17        -6.6810   -3.4210    0.0070 ca        1 AM6     -0.178300
     11 C16        -5.8610   -2.3300   -0.3310 ca        1 AM6      0.029700
     12 C20        -6.9310   -4.5450   -0.9970 c3        1 AM6      0.690200
     13 F1         -7.8940   -5.4490   -0.6140 f         1 AM6     -0.235300
     14 F3         -7.3550   -4.1250   -2.2350 f         1 AM6     -0.235300
     15 F2         -5.8340   -5.3280   -1.2620 f         1 AM6     -0.235300
     16 C12        -3.5150    2.5860    0.2340 ca        1 AM6     -0.124000
     17 C13        -2.9840    3.8460   -0.0470 ca        1 AM6     -0.125600
     18 C21        -3.7850    4.8740   -0.5650 ca        1 AM6     -0.038300
     19 C22        -3.2280    6.2130   -0.8600 c3        1 AM6     -0.067800
     20 N1          2.8230    4.2000    0.5350 nb        1 AM6     -0.715000
     21 C23         1.4930    4.2350    0.4200 ca        1 AM6      0.427700
     22 C24         0.7360    3.1840   -0.1760 ca        1 AM6     -0.216000
     23 C25         1.5000    2.0750   -0.6390 ca        1 AM6      0.427700
     24 N4          2.8330    2.0030   -0.5500 nb        1 AM6     -0.715000
     25 C26         3.4810    3.0830    0.0280 ca        1 AM6      0.830900
     26 N6         -0.6520    3.1990   -0.3340 n         1 AM6     -0.450100
     27 C8         -1.5370    4.1000    0.2430 c         1 AM6      0.682700
     28 O2         -1.1610    5.0620    0.9370 o         1 AM6     -0.588100
     29 N7          4.8970    3.1190    0.0500 nh        1 AM6     -0.687300
     30 O1         -3.5660   -0.2500    0.2090 o         1 AM6     -0.578100
     31 C27        -5.2260   -2.2430   -1.6670 c3        1 AM6     -0.090800
     32 C28         7.2960    0.4730    1.1130 ca        1 AM6     -0.160500
     33 C29         7.2880   -0.4070    0.0040 ca        1 AM6      0.129600
     34 C30         6.4380   -0.0880   -1.0760 ca        1 AM6     -0.160500
     35 C31         5.6420    1.0510   -1.0610 ca        1 AM6     -0.108000
     36 C5          5.6460    1.9150    0.0500 ca        1 AM6      0.087600
     37 C32         6.4890    1.6000    1.1370 ca        1 AM6     -0.108000
     38 C1          9.2070   -3.4750    1.1220 c3        1 AM6      0.159300
     39 N2          9.3370   -4.2140   -0.1230 n3        1 AM6     -0.719600
     40 C3          9.3880   -3.3030   -1.2560 c3        1 AM6      0.159300
     41 C4          8.2840   -2.2220   -1.2820 c3        1 AM6      0.151800
     42 N5          8.1800   -1.5100   -0.0200 nh        1 AM6     -0.631000
     43 C6          8.1050   -2.3920    1.1360 c3        1 AM6      0.151800
     44 H9         -5.7860    5.4010   -1.2020 ha        1 AM6      0.142000
     45 H10        -6.7560    3.1870   -0.7290 ha        1 AM6      0.135000
     46 HN3        -6.4590    1.0560    0.2970 hn        1 AM6      0.324500
     47 H15        -6.1080   -0.6120    2.6320 ha        1 AM6      0.150000
     48 H19        -7.5380   -2.5790    3.2040 ha        1 AM6      0.150000
     49 H18        -7.9100   -4.3780    1.5150 ha        1 AM6      0.159000
     50 H12        -2.8670    1.8000    0.6580 ha        1 AM6      0.171000
     51 H22        -2.7640    6.6470    0.0630 hc        1 AM6      0.058700
     52 H22A       -2.4310    6.1380   -1.6430 hc        1 AM6      0.058700
     53 H22B       -4.0200    6.9110   -1.2260 hc        1 AM6      0.058700
     54 H23         1.0020    5.1390    0.8360 h4        1 AM6      0.047100
     55 H25         1.0180    1.1950   -1.1060 h4        1 AM6      0.047100
     56 HN6        -1.0410    2.4230   -0.8250 hn        1 AM6      0.328500
     57 HN7         5.2660    3.8120    0.6750 hn        1 AM6      0.428800
     58 H27        -4.3670   -1.5260   -1.6690 hc        1 AM6      0.071033
     59 H27A       -4.8430   -3.2460   -1.9860 hc        1 AM6      0.071033
     60 H27B       -5.9810   -1.9070   -2.4230 hc        1 AM6      0.071033
     61 H28         7.9550    0.2790    1.9720 ha        1 AM6      0.135500
     62 H30         6.3880   -0.7370   -1.9640 ha        1 AM6      0.135500
     63 H31         5.0010    1.2650   -1.9310 ha        1 AM6      0.142000
     64 H32         6.5250    2.2560    2.0210 ha        1 AM6      0.142000
     65 H1          8.9960   -4.1900    1.9640 h1        1 AM6      0.059950
     66 H1A        10.2020   -2.9840    1.3150 h1        1 AM6      0.059950
     67 H3         10.3940   -2.7960   -1.2210 h1        1 AM6      0.059950
     68 H3A         9.3200   -3.8870   -2.2130 h1        1 AM6      0.059950
     69 H4          8.5450   -1.4760   -2.0830 h1        1 AM6      0.040950
     70 H4A         7.3070   -2.7140   -1.5640 h1        1 AM6      0.040950
     71 H6          7.0980   -2.8990    1.1950 h1        1 AM6      0.040950
     72 H6A         8.2360   -1.7770    2.0680 h1        1 AM6      0.040950
     73 H2          7.3030   -4.9060   -0.3270 h1        1 AM6      0.032367
     74 H2A         8.5910   -5.8410   -1.2150 h1        1 AM6      0.032367
     75 H2B         8.4550   -5.9730    0.5970 h1        1 AM6      0.032367
     76 C2          8.3640   -5.2730   -0.2740 c3        1 AM6      0.147100
@<TRIPOS>BOND
     1    1    2 ar  
     2    1   18 ar  
     3    1   44 1   
     4    2    3 ar  
     5    2   45 1   
     6    3    4 1   
     7    3   16 ar  
     8    4    5 1   
     9    4   46 1   
    10    5    6 1   
    11    5   30 2   
    12    6    7 ar  
    13    6   11 ar  
    14    7    8 ar  
    15    7   47 1   
    16    8    9 ar  
    17    8   48 1   
    18    9   10 ar  
    19    9   49 1   
    20   10   11 ar  
    21   10   12 1   
    22   11   31 1   
    23   12   13 1   
    24   12   14 1   
    25   12   15 1   
    26   16   17 ar  
    27   16   50 1   
    28   17   18 ar  
    29   17   27 1   
    30   18   19 1   
    31   19   51 1   
    32   19   52 1   
    33   19   53 1   
    34   20   21 ar  
    35   20   25 ar  
    36   21   22 ar  
    37   21   54 1   
    38   22   23 ar  
    39   22   26 1   
    40   23   24 ar  
    41   23   55 1   
    42   24   25 ar  
    43   25   29 1   
    44   26   27 1   
    45   26   56 1   
    46   27   28 2   
    47   29   36 1   
    48   29   57 1   
    49   31   58 1   
    50   31   59 1   
    51   31   60 1   
    52   32   33 ar  
    53   32   37 ar  
    54   32   61 1   
    55   33   34 ar  
    56   33   42 1   
    57   34   35 ar  
    58   34   62 1   
    59   35   36 ar  
    60   35   63 1   
    61   36   37 ar  
    62   37   64 1   
    63   38   39 1   
    64   38   43 1   
    65   38   65 1   
    66   38   66 1   
    67   39   40 1   
    68   39   76 1   
    69   40   41 1   
    70   40   67 1   
    71   40   68 1   
    72   41   42 1   
    73   41   69 1   
    74   41   70 1   
    75   42   43 1   
    76   43   71 1   
    77   43   72 1   
    78   73   76 1   
    79   74   76 1   
    80   75   76 1   
@<TRIPOS>SUBSTRUCTURE
     1 AM6         1 TEMP              0 ****  ****    0 ROOT
