@<TRIPOS>MOLECULE
AM6
   76    76     1     0     0
SMALL
bcc


@<TRIPOS>ATOM
      1 C9          0.3770   -1.4350   -0.1660 c2        1 AM6     -0.059000
      2 C10         1.6830   -1.2460   -0.2460 c1        1 AM6     -0.280000
      3 C11         2.6060   -0.9320    0.6880 c2        1 AM6      0.112000
      4 N3          3.8270   -0.3280    0.4320 ns        1 AM6     -0.298000
      5 C7          4.8730   -0.1600    1.3360 c2        1 AM6      0.357000
      6 C14         6.1190    0.4270    0.7520 ca        1 AM6     -0.140000
      7 C15         6.7770   -0.2820   -0.2580 ca        1 AM6     -0.071000
      8 C19         7.9610    0.2110   -0.8000 ca        1 AM6     -0.144000
      9 C18         8.4830    1.4180   -0.3390 ca        1 AM6     -0.059000
     10 C17         7.8240    2.1280    0.6660 ca        1 AM6     -0.172000
     11 C16         6.6320    1.6420    1.2330 ca        1 AM6      0.041000
     12 C20         8.4230    3.4530    1.1350 c3        1 AM6      0.469000
     13 F1          9.6640    3.7350    0.6170 f         1 AM6     -0.164000
     14 F3          7.6730    4.5590    0.8090 f         1 AM6     -0.164000
     15 F2          8.6050    3.5560    2.4930 f         1 AM6     -0.164000
     16 C12         2.0950   -1.2260    2.0530 c2        1 AM6     -0.105000
     17 C13         0.7560   -1.1290    2.2300 c2        1 AM6     -0.120000
     18 C21        -0.2300   -0.8750    1.1000 c3        1 AM6     -0.055000
     19 C22        -1.5810   -1.5130    1.3410 c3        1 AM6     -0.205000
     20 N1         -0.9080   -0.9750    7.8850 n2        1 AM6     -0.142000
     21 C23        -0.5700   -1.0400    6.5410 c2        1 AM6     -0.153000
     22 C24         0.2070   -0.1680    5.8400 c2        1 AM6     -0.053000
     23 C25        -1.0530    2.5880    8.0560 c1        1 AM6      0.120000
     24 N4         -1.0590    1.4250    8.2750 n2        1 AM6     -0.341000
     25 C26        -1.1070    0.0740    8.6050 c2        1 AM6      0.072000
     26 N6          0.5860   -0.2810    4.5080 ns        1 AM6     -0.314000
     27 C8          0.1830   -1.2620    3.6070 c2        1 AM6      0.342000
     28 O2         -0.5930   -2.1820    3.9170 o         1 AM6     -0.327000
     29 N7         -2.6710    7.1130   13.0290 n1        1 AM6     -0.074000
     30 O1          4.7830   -0.4760    2.5340 o         1 AM6     -0.333000
     31 C27         5.9510    2.3910    2.3160 c3        1 AM6     -0.210000
     32 C28        -2.3160    1.0140   12.9600 c2        1 AM6     -0.503000
     33 C29        -1.9390    2.3350   13.4560 c1        1 AM6     -0.064000
     34 C30        -1.8500    5.2630   10.1740 c2        1 AM6     -0.158000
     35 C31        -2.0770    5.1300   11.4820 c2        1 AM6     -0.133000
     36 C5         -2.4020    6.2270   12.3230 c1        1 AM6     -0.099000
     37 C32        -1.9650    0.5580   11.7800 c1        1 AM6      0.209000
     38 C1         -2.3960    2.1600   17.0780 c3        1 AM6     -0.087000
     39 N2         -2.0490    3.5100   17.4860 n3        1 AM6     -0.246000
     40 C3         -2.0890    4.4260   16.3580 c3        1 AM6     -0.087000
     41 C4         -1.3310    3.9540   15.0990 c3        1 AM6     -0.101000
     42 N5         -1.6680    2.5850   14.7150 n3        1 AM6     -0.142000
     43 C6         -1.6580    1.6400   15.8240 c3        1 AM6     -0.101000
     44 H9         -0.3630    0.2430    1.0270 hc        1 AM6      0.115000
     45 H10        -0.2410   -2.0230   -0.8510 ha        1 AM6      0.157000
     46 HN3         3.9660   -0.0180   -0.5060 hn        1 AM6      0.250000
     47 H15         6.3660   -1.2390   -0.6180 ha        1 AM6      0.150000
     48 H19         8.4840   -0.3490   -1.5900 ha        1 AM6      0.151000
     49 H18         9.4190    1.8130   -0.7680 ha        1 AM6      0.159000
     50 H12         2.8070   -1.4300    2.8670 ha        1 AM6      0.181000
     51 H22        -2.0760   -1.0480    2.2280 hc        1 AM6      0.091667
     52 H22A       -2.2340   -1.3670    0.4460 hc        1 AM6      0.091667
     53 H22B       -1.4730   -2.6070    1.5400 hc        1 AM6      0.091667
     54 H23        -0.9720   -1.9660    6.0760 h4        1 AM6      0.193000
     55 H25         0.6450    0.7330    6.3170 h4        1 AM6      0.140000
     56 HN6         1.2550    0.3830    4.1860 hn        1 AM6      0.239000
     57 HN7        -1.3850   -0.0890    9.6830 h5        1 AM6      0.216000
     58 H27         4.9130    2.0170    2.4900 hc        1 AM6      0.108667
     59 H27A        5.9040    3.4820    2.0700 hc        1 AM6      0.108667
     60 H27B        6.5290    2.2730    3.2690 hc        1 AM6      0.108667
     61 H28        -3.0120    0.3970   13.5700 ha        1 AM6      0.192000
     62 H30        -1.5970    4.3990    9.5390 ha        1 AM6      0.130000
     63 H31        -1.9000    6.2270    9.6500 ha        1 AM6      0.130000
     64 H32        -2.0260    4.1460   12.0050 ha        1 AM6      0.195000
     65 H1         -2.1400    0.6760   15.5030 h1        1 AM6      0.105750
     66 H1A        -2.1880    1.4450   17.9210 h1        1 AM6      0.106750
     67 H3         -3.5040    2.1540   16.8780 h1        1 AM6      0.106750
     68 H3A        -3.1750    4.5790   16.0980 h1        1 AM6      0.106750
     69 H4         -1.6600    5.4200   16.6620 h1        1 AM6      0.106750
     70 H4A        -1.5730    4.6460   14.2430 h1        1 AM6      0.105750
     71 H6         -0.2210    3.9930   15.2900 h1        1 AM6      0.105750
     72 H6A        -0.5850    1.4210   16.0900 h1        1 AM6      0.105750
     73 H2          0.0870    3.2820   17.6880 h1        1 AM6      0.075000
     74 H2A        -0.9290    2.9280   19.1600 h1        1 AM6      0.075000
     75 H2B        -0.6940    4.6480   18.6090 h1        1 AM6      0.075000
     76 C2         -0.8310    3.5910   18.2610 c3        1 AM6     -0.129000
@<TRIPOS>BOND
     1    1    2 1   
     2    1   18 1   
     3    1   45 1   
     4    2    3 1   
     5    3    4 1   
     6    3   16 1   
     7    4    5 1   
     8    4   46 1   
     9    5    6 1   
    10    5   30 1   
    11    6    7 1   
    12    6   11 1   
    13    7    8 1   
    14    7   47 1   
    15    8    9 1   
    16    8   48 1   
    17    9   10 1   
    18    9   49 1   
    19   10   11 1   
    20   10   12 1   
    21   11   31 1   
    22   12   13 1   
    23   12   14 1   
    24   12   15 1   
    25   16   17 1   
    26   16   50 1   
    27   17   18 1   
    28   17   27 1   
    29   18   19 1   
    30   18   44 1   
    31   19   51 1   
    32   19   52 1   
    33   19   53 1   
    34   20   21 1   
    35   20   25 1   
    36   21   22 1   
    37   21   54 1   
    38   22   26 1   
    39   22   55 1   
    40   23   24 1   
    41   24   25 1   
    42   25   57 1   
    43   26   27 1   
    44   26   56 1   
    45   27   28 1   
    46   29   36 1   
    47   31   58 1   
    48   31   59 1   
    49   31   60 1   
    50   32   33 1   
    51   32   37 1   
    52   32   61 1   
    53   33   42 1   
    54   34   35 1   
    55   34   62 1   
    56   34   63 1   
    57   35   36 1   
    58   35   64 1   
    59   38   39 1   
    60   38   43 1   
    61   38   66 1   
    62   38   67 1   
    63   39   40 1   
    64   39   76 1   
    65   40   41 1   
    66   40   68 1   
    67   40   69 1   
    68   41   42 1   
    69   41   70 1   
    70   41   71 1   
    71   42   43 1   
    72   43   65 1   
    73   43   72 1   
    74   73   76 1   
    75   74   76 1   
    76   75   76 1   
@<TRIPOS>SUBSTRUCTURE
     1 AM6         1 TEMP              0 ****  ****    0 ROOT
