@<TRIPOS>MOLECULE
AM6
   76    75     1     0     0
SMALL
bcc


@<TRIPOS>ATOM
      1 C9          0.6020   -2.1570    0.4700 c2        1 AM6     -0.059000
      2 C10         1.8210   -1.7470    0.1670 c1        1 AM6     -0.280000
      3 C11         2.7720   -1.1280    0.8980 c2        1 AM6      0.112000
      4 N3          3.8030   -0.3590    0.3820 n         1 AM6     -0.298000
      5 C7          4.8970    0.1390    1.0840 c2        1 AM6      0.358000
      6 C14         5.9150    0.8430    0.2440 ca        1 AM6     -0.140000
      7 C15         6.5730    0.1140   -0.7520 ca        1 AM6     -0.071000
      8 C19         7.5540    0.7230   -1.5300 ca        1 AM6     -0.144000
      9 C18         7.8730    2.0630   -1.3180 ca        1 AM6     -0.058000
     10 C17         7.2140    2.7920   -0.3260 ca        1 AM6     -0.172000
     11 C16         6.2260    2.1930    0.4760 ca        1 AM6      0.041000
     12 C20         7.5840    4.2610   -0.1340 c3        1 AM6      0.469000
     13 F1          8.6670    4.6790   -0.8690 f         1 AM6     -0.163667
     14 F3          6.5900    5.1440   -0.4840 f         1 AM6     -0.163667
     15 F2          7.9090    4.6110    1.1540 f         1 AM6     -0.163667
     16 C12         2.5070   -1.2920    2.3520 c2        1 AM6     -0.105000
     17 C13         1.2100   -1.4160    2.7200 c2        1 AM6     -0.121000
     18 C21         0.0580   -1.5260    1.7320 c3        1 AM6     -0.055000
     19 C22        -1.0940   -2.3540    2.2580 c3        1 AM6     -0.205000
     20 N1          0.2830   -0.6930    8.4980 n2        1 AM6     -0.141000
     21 C23         0.4530   -0.9030    7.1370 c2        1 AM6     -0.154000
     22 C24         0.9350   -0.0200    6.2180 c2        1 AM6     -0.051000
     23 C25        -0.5990    2.7560    8.2290 c1        1 AM6      0.122000
     24 N4         -0.3280    1.6630    8.5940 n2        1 AM6     -0.342000
     25 C26        -0.0430    0.3990    9.0980 c2        1 AM6      0.072000
     26 N6          1.1570   -0.2680    4.8680 n         1 AM6     -0.314000
     27 C8          0.8540   -1.4350    4.1740 c2        1 AM6      0.342000
     28 O2          0.3280   -2.4220    4.7160 o         1 AM6     -0.327000
     29 N7         -0.1260    7.4360   13.2300 n1        1 AM6     -0.071000
     30 O1          5.0230    0.0050    2.3130 o         1 AM6     -0.333000
     31 C27         5.5470    2.9670    1.5420 c3        1 AM6     -0.210000
     32 C28        -1.2770    1.4130   13.4590 c2        1 AM6     -0.514000
     33 C29        -1.4900    2.8130   13.8080 c1        1 AM6     -0.061000
     34 C30        -0.6710    5.4860   10.3760 c2        1 AM6     -0.158000
     35 C31        -0.6990    5.4260   11.7090 c2        1 AM6     -0.131000
     36 C5         -0.3830    6.5370   12.5360 c1        1 AM6     -0.100000
     37 C32        -0.7600    1.0560   12.3040 c1        1 AM6      0.250000
     38 C1         -3.4400    1.7600   16.2850 c2        1 AM6     -0.092000
     39 N2         -3.8750    0.9080   17.1330 n2        1 AM6     -0.174000
     40 C3         -3.5190    5.0020   15.5220 c3        1 AM6     -0.236000
     41 C4         -2.0730    4.6360   15.2330 c3        1 AM6     -0.031000
     42 N5         -1.8440    3.2090   15.0140 n3        1 AM6     -0.153000
     43 C6         -2.0510    2.3530   16.1740 c3        1 AM6     -0.122000
     44 H9         -0.3070   -0.4760    1.5370 hc        1 AM6      0.115000
     45 H10         0.0350   -2.9480   -0.0300 ha        1 AM6      0.157000
     46 HN3         3.7570   -0.1810   -0.6000 hn        1 AM6      0.250000
     47 H15         6.3230   -0.9470   -0.9150 ha        1 AM6      0.150000
     48 H19         8.0780    0.1490   -2.3090 ha        1 AM6      0.151000
     49 H18         8.6490    2.5490   -1.9330 ha        1 AM6      0.159000
     50 H12         3.3420   -1.2330    3.0660 ha        1 AM6      0.181000
     51 H22        -0.7420   -3.3650    2.5780 hc        1 AM6      0.091667
     52 H22A       -1.5560   -1.8540    3.1440 hc        1 AM6      0.091667
     53 H22B       -1.8700   -2.4710    1.4640 hc        1 AM6      0.091667
     54 H23         0.2010   -1.9500    6.8620 h4        1 AM6      0.194000
     55 H25         1.2300    1.0110    6.5020 h4        1 AM6      0.140000
     56 HN6         1.6300    0.4500    4.3650 hn        1 AM6      0.239000
     57 HN7        -0.1410    0.3570   10.2170 h5        1 AM6      0.212000
     58 H27         6.2520    3.1100    2.4020 hc        1 AM6      0.108667
     59 H27A        4.6370    2.4420    1.9220 hc        1 AM6      0.108667
     60 H27B        5.2490    3.9780    1.1650 hc        1 AM6      0.108667
     61 H28        -1.5870    0.6030   14.1550 ha        1 AM6      0.183000
     62 H30        -0.9150    4.6130    9.7510 ha        1 AM6      0.130000
     63 H31        -0.4040    6.3950    9.8210 ha        1 AM6      0.130000
     64 H32        -0.9730    4.5000   12.2640 ha        1 AM6      0.193000
     65 H1         -1.2930    1.5170   16.1360 h1        1 AM6      0.110500
     66 H1A        -4.1820    2.1180   15.5380 h4        1 AM6      0.157000
     67 H3         -3.9010    4.4700   16.4270 hc        1 AM6      0.088333
     68 H3A        -4.1790    4.7490   14.6580 hc        1 AM6      0.088333
     69 H4         -3.5750    6.1030   15.7030 hc        1 AM6      0.088333
     70 H4A        -1.7270    5.1890   14.3120 h1        1 AM6      0.110000
     71 H6         -1.4260    4.9580   16.0990 h1        1 AM6      0.110000
     72 H6A        -1.8450    2.9500   17.1100 h1        1 AM6      0.110500
     73 H2         -2.0120    0.6870   18.2100 h1        1 AM6      0.087667
     74 H2A        -3.0880   -0.7760   18.0430 h1        1 AM6      0.087667
     75 H2B        -3.5680    0.5850   19.1540 h1        1 AM6      0.087667
     76 C2         -3.0800    0.3410   18.1710 c3        1 AM6     -0.163000
@<TRIPOS>BOND
     1    1    2 1   
     2    1   18 1   
     3    1   45 1   
     4    2    3 1   
     5    3    4 1   
     6    3   16 1   
     7    4    5 1   
     8    4   46 1   
     9    5    6 1   
    10    5   30 1   
    11    6    7 1   
    12    6   11 1   
    13    7    8 1   
    14    7   47 1   
    15    8    9 1   
    16    8   48 1   
    17    9   10 1   
    18    9   49 1   
    19   10   11 1   
    20   10   12 1   
    21   11   31 1   
    22   12   13 1   
    23   12   14 1   
    24   12   15 1   
    25   16   17 1   
    26   16   50 1   
    27   17   18 1   
    28   17   27 1   
    29   18   19 1   
    30   18   44 1   
    31   19   51 1   
    32   19   52 1   
    33   19   53 1   
    34   20   21 1   
    35   20   25 1   
    36   21   22 1   
    37   21   54 1   
    38   22   26 1   
    39   22   55 1   
    40   23   24 1   
    41   24   25 1   
    42   25   57 1   
    43   26   27 1   
    44   26   56 1   
    45   27   28 1   
    46   29   36 1   
    47   31   58 1   
    48   31   59 1   
    49   31   60 1   
    50   32   33 1   
    51   32   37 1   
    52   32   61 1   
    53   33   42 1   
    54   34   35 1   
    55   34   62 1   
    56   34   63 1   
    57   35   36 1   
    58   35   64 1   
    59   38   39 1   
    60   38   43 1   
    61   38   66 1   
    62   39   76 1   
    63   40   41 1   
    64   40   67 1   
    65   40   68 1   
    66   40   69 1   
    67   41   42 1   
    68   41   70 1   
    69   41   71 1   
    70   42   43 1   
    71   43   65 1   
    72   43   72 1   
    73   73   76 1   
    74   74   76 1   
    75   75   76 1   
@<TRIPOS>SUBSTRUCTURE
     1 AM6         1 TEMP              0 ****  ****    0 ROOT
