@<TRIPOS>MOLECULE
AM6
   76    70     1     0     0
SMALL
bcc


@<TRIPOS>ATOM
      1 C9          0.9330   -1.1450   -6.3810 c1        1 AM6     -0.121000
      2 C10         2.3140   -1.1140   -6.4250 c1        1 AM6     -0.121000
      3 C11         3.0550   -1.0900   -5.2320 c1        1 AM6      0.066000
      4 N3          4.4890   -1.0590   -5.2810 n         1 AM6     -0.324000
      5 C7          5.1590    0.1330   -5.6360 c2        1 AM6      0.358000
      6 C14         6.7360    0.1780   -5.6500 c2        1 AM6     -0.140000
      7 C15         7.4470   -0.9480   -5.3550 c2        1 AM6     -0.072000
      8 C19         8.8340   -0.8800   -5.2090 c1        1 AM6     -0.144000
      9 C18         9.4910    0.3350   -5.3640 c1        1 AM6     -0.061000
     10 C17         8.7820    1.4610   -5.6590 c1        1 AM6     -0.171000
     11 C16         7.3920    1.3930   -5.8050 c1        1 AM6      0.038000
     12 C20         9.5030    2.8130   -5.7610 c3        1 AM6      0.469000
     13 F1          8.9940    3.6480   -4.8850 f         1 AM6     -0.164000
     14 F3         10.8380    2.6400   -5.5030 f         1 AM6     -0.164000
     15 F2          9.3540    3.2960   -6.9590 f         1 AM6     -0.164000
     16 C12         2.3990   -1.0960   -4.0030 c1        1 AM6     -0.157000
     17 C13         1.0040   -1.1270   -3.9580 c1        1 AM6     -0.102000
     18 C21         0.2690   -1.1510   -5.1470 c1        1 AM6     -0.042000
     19 C22        -1.2540   -1.1630   -5.1050 c3        1 AM6     -0.194000
     20 N1         -0.7650   -1.7420    1.6800 n1        1 AM6     -0.179000
     21 C23        -0.3300   -1.7800    0.4100 c1        1 AM6     -0.024000
     22 C24         0.3490   -0.6940   -0.1270 c1        1 AM6     -0.082000
     23 C25         0.5730    0.4170    0.6430 c1        1 AM6     -0.051000
     24 N4          0.1280    0.4520    1.9370 n1        1 AM6     -0.199000
     25 C26        -0.5410   -0.6220    2.4600 c1        1 AM6      0.114000
     26 N6          1.0440   -0.8420   -1.4020 n         1 AM6     -0.308000
     27 C8          0.2830   -0.9960   -2.6190 c2        1 AM6      0.356000
     28 O2         -0.9160   -1.0010   -2.5790 o         1 AM6     -0.341000
     29 N7         -0.7970   -0.6790    3.8530 n3        1 AM6     -0.208000
     30 O1          4.5370    1.1070   -5.8930 o         1 AM6     -0.331000
     31 C27         6.5950    2.6490   -6.0800 c3        1 AM6     -0.216000
     32 C28        -4.0580    0.7570    5.1310 c1        1 AM6     -0.169000
     33 C29        -4.6290   -0.3640    5.7440 c1        1 AM6      0.050000
     34 C30        -3.9830   -1.6150    5.6650 c1        1 AM6     -0.150000
     35 C31        -2.7690   -1.7370    4.9740 c1        1 AM6     -0.078000
     36 C5         -2.1910   -0.6060    4.3550 c2        1 AM6      0.006000
     37 C32        -2.8340    0.6350    4.4330 c2        1 AM6     -0.137000
     38 C1         -8.1510   -0.4580    6.8150 c3        1 AM6     -0.071500
     39 N2         -8.2880    0.9190    7.1720 n3        1 AM6     -0.258000
     40 C3         -7.1310    1.4390    7.7870 c3        1 AM6     -0.071500
     41 C4         -5.8650    1.1690    6.9690 c3        1 AM6     -0.052000
     42 N5         -5.7310   -0.2020    6.6170 n3        1 AM6     -0.236000
     43 C6         -6.8960   -0.7250    6.0030 c3        1 AM6     -0.052000
     44 C2         -9.4130    1.0740    8.0600 c3        1 AM6     -0.119000
     45 H9          0.4140   -1.1620   -7.2200 ha        1 AM6      0.160000
     46 H10         2.7980   -1.1110   -7.3320 ha        1 AM6      0.160000
     47 HN3         4.9740   -1.8070   -5.0520 hn        1 AM6      0.237000
     48 H15         6.9780   -1.8170   -5.2450 ha        1 AM6      0.149000
     49 H19         9.3460   -1.6900   -4.9970 ha        1 AM6      0.150000
     50 H18        10.4860    0.3830   -5.2590 ha        1 AM6      0.159000
     51 H12         2.9200   -1.0790   -3.1660 ha        1 AM6      0.138000
     52 H22        -1.5670   -2.0140   -4.7140 hc        1 AM6      0.096333
     53 H22A       -1.6090   -1.0730   -6.0240 hc        1 AM6      0.096333
     54 H22B       -1.5770   -0.4040   -4.5500 hc        1 AM6      0.096333
     55 H23        -0.4900   -2.5700   -0.1350 ha        1 AM6      0.205000
     56 H25         1.0560    1.1930    0.2650 ha        1 AM6      0.160000
     57 HN6         1.9250   -0.7170   -1.4430 hn        1 AM6      0.236000
     58 HN7        -0.1040   -0.7830    4.4410 hn        1 AM6      0.224000
     59 H27         6.0030    2.8420   -5.3040 hc        1 AM6      0.110333
     60 H27A        7.2180    3.4170   -6.2210 hc        1 AM6      0.110333
     61 H27B        6.0510    2.5190   -6.8790 hc        1 AM6      0.110333
     62 H28        -4.5220    1.6570    5.1870 ha        1 AM6      0.134000
     63 H30        -4.3950   -2.4240    6.1070 ha        1 AM6      0.139000
     64 H31        -2.3140   -2.6220    4.9200 ha        1 AM6      0.154000
     65 H32        -2.4370    1.4170    4.0070 ha        1 AM6      0.130000
     66 H1         -8.1200   -0.9970    7.6310 h1        1 AM6      0.078000
     67 H1A        -8.9570   -0.7350    6.2690 h1        1 AM6      0.078000
     68 H3         -7.0290    1.0180    8.6950 h1        1 AM6      0.078000
     69 H3A        -7.2360    2.4010    7.8970 h1        1 AM6      0.078000
     70 H4         -5.0980    1.4340    7.4870 h1        1 AM6      0.083750
     71 H4A        -5.8970    1.7170    6.1310 h1        1 AM6      0.083750
     72 H6         -6.7890   -1.6900    5.8980 h1        1 AM6      0.083750
     73 H6A        -6.9990   -0.3130    5.1050 h1        1 AM6      0.083750
     74 H2         -9.2700    0.5160    8.8840 h1        1 AM6      0.072333
     75 H2A       -10.2160    0.7850    7.6130 h1        1 AM6      0.072333
     76 H2B        -9.5050    2.0340    8.3190 h1        1 AM6      0.072333
@<TRIPOS>BOND
     1    1    2 1   
     2    1   45 1   
     3    2   46 1   
     4    3    4 1   
     5    3   16 1   
     6    4    5 1   
     7    4   47 1   
     8    5    6 1   
     9    5   30 1   
    10    6    7 1   
    11    6   11 1   
    12    7    8 1   
    13    7   48 1   
    14    8   49 1   
    15    9   10 1   
    16    9   50 1   
    17   10   12 1   
    18   11   31 1   
    19   12   13 1   
    20   12   14 1   
    21   12   15 1   
    22   16   51 1   
    23   17   18 1   
    24   17   27 1   
    25   18   19 1   
    26   19   52 1   
    27   19   53 1   
    28   19   54 1   
    29   20   25 1   
    30   21   22 1   
    31   21   55 1   
    32   22   26 1   
    33   23   24 1   
    34   23   56 1   
    35   25   29 1   
    36   26   27 1   
    37   26   57 1   
    38   27   28 1   
    39   29   36 1   
    40   29   58 1   
    41   31   59 1   
    42   31   60 1   
    43   31   61 1   
    44   32   37 1   
    45   32   62 1   
    46   33   34 1   
    47   33   42 1   
    48   34   63 1   
    49   35   36 1   
    50   35   64 1   
    51   36   37 1   
    52   37   65 1   
    53   38   39 1   
    54   38   43 1   
    55   38   66 1   
    56   38   67 1   
    57   39   40 1   
    58   39   44 1   
    59   40   41 1   
    60   40   68 1   
    61   40   69 1   
    62   41   42 1   
    63   41   70 1   
    64   41   71 1   
    65   42   43 1   
    66   43   72 1   
    67   43   73 1   
    68   44   74 1   
    69   44   75 1   
    70   44   76 1   
@<TRIPOS>SUBSTRUCTURE
     1 AM6         1 TEMP              0 ****  ****    0 ROOT
