@<TRIPOS>MOLECULE
AM7
   80    84     1     0     0
SMALL
bcc


@<TRIPOS>ATOM
      1 N1         -3.7440   -1.2490   -1.0230 n7        1 AM7     -0.303000
      2 N3        -11.9370   -2.4020  -12.6490 n7        1 AM7     -0.157000
      3 C4         -2.6910   -2.1910   -1.3760 c3        1 AM7     -0.037000
      4 C5        -12.3610   -5.2610  -13.3970 c3        1 AM7      0.034000
      5 C6        -13.7860   -4.7540  -13.8760 c3        1 AM7     -0.140000
      6 C7        -14.6580   -4.5810  -12.6360 c2        1 AM7     -0.189000
      7 C8        -13.9380   -4.9270  -11.5760 cu        1 AM7     -0.185000
      8 C10       -12.5380   -5.3340  -11.9410 cu        1 AM7     -0.183000
      9 C13       -11.0470   -3.1000  -13.5430 c2        1 AM7      0.092000
     10 C15        -7.8650    0.2590   -8.8990 ca        1 AM7      0.033000
     11 C17       -10.0900   -0.3530   -9.8840 ca        1 AM7     -0.104000
     12 C20        -7.6190    0.5330  -10.3190 ca        1 AM7     -0.225000
     13 C21        -4.8670    0.9450   -7.0850 ca        1 AM7     -0.116000
     14 C22        -5.3160    0.8540   -5.7100 ca        1 AM7     -0.191000
     15 C24        -3.0090    0.4720   -5.0130 ca        1 AM7      0.108000
     16 C26        -3.4270    1.1860   -7.3300 ca        1 AM7      0.086000
     17 C28        -3.2350    2.5730  -10.6420 c1        1 AM7      0.227000
     18 C1         -3.2390    0.0640   -0.7110 c3        1 AM7     -0.128000
     19 C2         -4.0970   -4.2700    0.0580 c2        1 AM7     -0.326000
     20 O1         -3.8120   -4.3980   -1.2180 os        1 AM7      0.111000
     21 C3         -3.1860   -3.4680   -1.9240 c2        1 AM7     -0.337000
     22 C33         0.1240    0.8660   -4.1180 cx        1 AM7     -0.212500
     23 C32        -0.0040   -0.1360   -3.0070 cx        1 AM7     -0.212500
     24 C31        -0.9020   -0.2360   -4.2140 cx        1 AM7     -0.055000
     25 O3         -2.2530    0.0710   -3.9310 os        1 AM7     -0.163000
     26 C25        -2.5330    0.7240   -6.2560 ca        1 AM7     -0.215000
     27 C23        -4.4340    0.6180   -4.7080 ca        1 AM7      0.076000
     28 O2         -4.7350    0.4910   -3.3710 os        1 AM7     -0.193000
     29 C35        -6.1160    0.6050   -3.0340 c3        1 AM7     -0.087000
     30 N4         -2.8730    1.7740   -8.3550 n2        1 AM7     -0.119000
     31 C27        -3.6100    2.3560   -9.3840 c2        1 AM7     -0.417000
     32 C29        -5.7240    0.7550   -8.1220 c2        1 AM7      0.001000
     33 O4         -7.0640    0.5490   -7.8190 os        1 AM7     -0.129000
     34 C16        -9.1780   -0.1580   -8.7170 ca        1 AM7      0.037000
     35 F1         -9.7160   -0.3360   -7.4940 f         1 AM7     -0.086000
     36 C19        -8.1260   -0.5340  -11.0280 ca        1 AM7     -0.060000
     37 C18        -9.5930   -0.4450  -11.1540 ca        1 AM7     -0.057000
     38 C11       -10.4060   -0.5260  -12.3860 c3        1 AM7     -0.114000
     39 C12        -9.6080   -1.0920  -13.5580 c2        1 AM7      0.298000
     40 O5         -8.6920   -0.4480  -14.0940 o         1 AM7     -0.325000
     41 N2         -9.9560   -2.3530  -14.0640 n         1 AM7     -0.290000
     42 C34        -9.2130   -2.9170  -15.1620 c3        1 AM7     -0.085000
     43 C14       -11.6890   -1.2450  -12.0900 c1        1 AM7     -0.076000
     44 C9        -12.9120   -5.3540  -10.6670 cu        1 AM7      0.009000
     45 H41        -1.9740   -1.7520   -2.1380 h1        1 AM7      0.079500
     46 H42        -2.1010   -2.3930   -0.4310 h1        1 AM7      0.079500
     47 H6        -13.6940   -3.7930  -14.4350 hc        1 AM7      0.095500
     48 H7        -14.2360   -5.5160  -14.5560 hc        1 AM7      0.095500
     49 H8        -15.6880   -4.2410  -12.7110 ha        1 AM7      0.162000
     50 H10       -12.6890   -5.5390   -9.6340 ha        1 AM7      0.208000
     51 H17       -11.1670   -0.4180   -9.6650 ha        1 AM7      0.181000
     52 H20        -7.6620    1.5790  -10.6480 ha        1 AM7      0.157000
     53 H22        -6.3980    0.9440   -5.5320 ha        1 AM7      0.159000
     54 H28        -5.4490    0.7220   -9.1890 h4        1 AM7      0.172000
     55 H11        -2.7090    0.5560   -1.5750 h1        1 AM7      0.069000
     56 H12        -4.1050    0.7120   -0.4160 h1        1 AM7      0.069000
     57 H21        -2.5260   -0.0060    0.1520 h1        1 AM7      0.069000
     58 H22A       -4.5790   -5.1640    0.4670 h4        1 AM7      0.158500
     59 H31        -3.8970   -3.3630    0.6250 h4        1 AM7      0.158500
     60 H32        -3.0710   -3.7670   -2.9700 h4        1 AM7      0.175000
     61 H331       -4.4070   -1.1870   -1.7780 hn        1 AM7      0.161000
     62 H332        1.0000    0.8290   -4.7880 hc        1 AM7      0.123750
     63 H321       -0.2220    1.9000   -3.9380 hc        1 AM7      0.123750
     64 H322        0.7740   -0.9080   -2.8720 hc        1 AM7      0.123750
     65 H311       -0.4480    0.1880   -2.0470 hc        1 AM7      0.123750
     66 H312       -0.8000   -1.0540   -4.9510 h1        1 AM7      0.134000
     67 H25        -1.4590    0.6400   -6.4870 ha        1 AM7      0.165000
     68 H351       -6.5080    1.6110   -3.3200 h1        1 AM7      0.091000
     69 H352       -6.7080   -0.2020   -3.5280 h1        1 AM7      0.091000
     70 H353       -6.1180    0.4780   -1.9200 h1        1 AM7      0.091000
     71 H27        -4.6160    2.7970   -9.1440 h4        1 AM7      0.174000
     72 H19        -7.7270   -1.5550  -10.9020 ha        1 AM7      0.139000
     73 H341       -8.5140   -2.1430  -15.5820 h1        1 AM7      0.097333
     74 H342       -9.9160   -3.2520  -15.9710 h1        1 AM7      0.097333
     75 H343       -8.6100   -3.7970  -14.8090 h1        1 AM7      0.097333
     76 H14       -10.6950    0.5300  -12.6890 hc        1 AM7      0.174000
     77 H301      -12.8000   -2.8750  -12.4480 hn        1 AM7      0.283000
     78 H302      -10.5370   -4.9300  -14.5330 ha        1 AM7      0.148000
     79 H9        -12.2070   -6.3040  -13.7960 hc        1 AM7      0.126000
     80 C30       -11.2450   -4.4110  -13.8670 c2        1 AM7     -0.247000
@<TRIPOS>BOND
     1    1    3 1   
     2    1   18 1   
     3    1   61 1   
     4    2    9 1   
     5    2   43 1   
     6    2   77 1   
     7    3   21 1   
     8    3   45 1   
     9    3   46 1   
    10    4    5 1   
    11    4    8 1   
    12    4   79 1   
    13    4   80 1   
    14    5    6 1   
    15    5   47 1   
    16    5   48 1   
    17    6    7 1   
    18    6   49 1   
    19    7    8 1   
    20    7   44 1   
    21    8   44 1   
    22    9   41 1   
    23    9   80 1   
    24   10   12 1   
    25   10   33 1   
    26   10   34 1   
    27   11   34 1   
    28   11   37 1   
    29   11   51 1   
    30   12   36 1   
    31   12   52 1   
    32   13   14 1   
    33   13   16 1   
    34   13   32 1   
    35   14   27 1   
    36   14   53 1   
    37   15   25 1   
    38   15   26 1   
    39   15   27 1   
    40   16   26 1   
    41   16   30 1   
    42   17   31 1   
    43   18   55 1   
    44   18   56 1   
    45   18   57 1   
    46   19   20 1   
    47   19   58 1   
    48   19   59 1   
    49   20   21 1   
    50   21   60 1   
    51   22   23 1   
    52   22   24 1   
    53   22   62 1   
    54   22   63 1   
    55   23   24 1   
    56   23   64 1   
    57   23   65 1   
    58   24   25 1   
    59   24   66 1   
    60   26   67 1   
    61   27   28 1   
    62   28   29 1   
    63   29   68 1   
    64   29   69 1   
    65   29   70 1   
    66   30   31 1   
    67   31   71 1   
    68   32   33 1   
    69   32   54 1   
    70   34   35 1   
    71   36   37 1   
    72   36   72 1   
    73   37   38 1   
    74   38   39 1   
    75   38   43 1   
    76   38   76 1   
    77   39   40 1   
    78   39   41 1   
    79   41   42 1   
    80   42   73 1   
    81   42   74 1   
    82   42   75 1   
    83   44   50 1   
    84   78   80 1   
@<TRIPOS>SUBSTRUCTURE
     1 AM7         1 TEMP              0 ****  ****    0 ROOT
