@<TRIPOS>MOLECULE
AM7
   80    85     1     0     0
SMALL
bcc


@<TRIPOS>ATOM
      1 N1        -11.0670   -0.1190   -0.3250 n3        1 AM7     -0.723600
      2 N3          7.8320    0.5190    0.1240 nc        1 AM7     -0.628300
      3 C4        -12.0720   -1.1330   -0.6230 c3        1 AM7      0.130800
      4 C5         10.6300    0.3570    0.0370 ca        1 AM7     -0.079300
      5 C6         10.8210    1.5020    0.8200 ca        1 AM7     -0.108000
      6 C7         11.5610    2.5740    0.3250 ca        1 AM7     -0.129000
      7 C8         12.1150    2.5110   -0.9540 ca        1 AM7     -0.120000
      8 C10        11.1840    0.3000   -1.2470 ca        1 AM7     -0.108000
      9 C13         8.3570   -0.6560    0.4740 cd        1 AM7      0.500900
     10 C15         1.3860    0.0830   -0.0680 ca        1 AM7      0.050100
     11 C17         3.6420    0.5600   -0.8370 ca        1 AM7     -0.158000
     12 C20         1.9020   -0.7490    0.9310 ca        1 AM7     -0.125000
     13 C21        -2.2300   -0.3130   -0.2820 ca        1 AM7     -0.150300
     14 C22        -2.6700    0.9890    0.0600 ca        1 AM7     -0.161000
     15 C24        -4.9800    0.2280   -0.1200 ca        1 AM7      0.139100
     16 C26        -3.1740   -1.3510   -0.5470 ca        1 AM7      0.424600
     17 C28        -0.4600   -1.9340   -0.7250 ca        1 AM7     -0.327300
     18 C1        -11.4230    0.6760    0.8430 c3        1 AM7      0.130800
     19 C2        -12.8630    1.1990    0.7860 c3        1 AM7      0.126400
     20 O1        -13.7960    0.1550    0.5390 os        1 AM7     -0.415600
     21 C3        -13.4940   -0.5610   -0.6530 c3        1 AM7      0.126400
     22 C33        -9.7360   -0.7040   -0.2330 c3        1 AM7      0.171800
     23 C32        -8.6190    0.3280   -0.0970 c3        1 AM7     -0.087400
     24 C31        -7.2800   -0.3680   -0.2740 c3        1 AM7      0.123400
     25 O3         -6.2900    0.6340   -0.0010 os        1 AM7     -0.304900
     26 C25        -4.5690   -1.0420   -0.4540 ca        1 AM7     -0.251300
     27 C23        -4.0160    1.2650    0.1420 ca        1 AM7      0.108100
     28 O2         -4.5620    2.4880    0.4690 os        1 AM7     -0.302900
     29 C35        -3.6310    3.5420    0.6910 c3        1 AM7      0.107700
     30 N4         -2.7870   -2.6340   -0.8880 nb        1 AM7     -0.678000
     31 C27        -1.4920   -2.8880   -0.9680 ca        1 AM7      0.437200
     32 C29        -0.8410   -0.6530   -0.3830 ca        1 AM7      0.167100
     33 O4          0.0310    0.3980   -0.1350 os        1 AM7     -0.237200
     34 C16         2.2550    0.7400   -0.9690 ca        1 AM7      0.128900
     35 F1          1.7650    1.5420   -1.9400 f         1 AM7     -0.123900
     36 C19         3.2760   -0.9230    1.0450 ca        1 AM7     -0.104000
     37 C18         4.1570   -0.2680    0.1690 ca        1 AM7     -0.002800
     38 C11         5.5980   -0.4200    0.2970 cd        1 AM7     -0.201400
     39 C12         6.1630   -1.7130    0.7100 c         1 AM7      0.700700
     40 O5          5.5060   -2.7310    0.9990 o         1 AM7     -0.630500
     41 N2          7.5840   -1.7830    0.7800 n         1 AM7     -0.380300
     42 C34         8.2170   -3.0200    1.1580 c3        1 AM7      0.055300
     43 C14         6.4660    0.6190    0.0390 cc        1 AM7      0.148600
     44 C9         11.9250    1.3740   -1.7380 ca        1 AM7     -0.129000
     45 H41       -11.8390   -1.5600   -1.6380 h1        1 AM7      0.041450
     46 H42       -12.0440   -1.9780    0.1250 h1        1 AM7      0.041450
     47 H6         10.3760    1.5580    1.8240 ha        1 AM7      0.131000
     48 H7         11.7050    3.4710    0.9440 ha        1 AM7      0.134000
     49 H8         12.6990    3.3580   -1.3430 ha        1 AM7      0.133000
     50 H10        11.0340   -0.5930   -1.8720 ha        1 AM7      0.131000
     51 H17         4.3120    1.0680   -1.5460 ha        1 AM7      0.152000
     52 H20         1.2110   -1.2610    1.6180 ha        1 AM7      0.157000
     53 H22        -1.9090    1.7620    0.2520 ha        1 AM7      0.160000
     54 H28         0.5930   -2.2280   -0.8150 ha        1 AM7      0.159000
     55 H11       -11.2930    0.0900    1.7990 h1        1 AM7      0.041450
     56 H12       -10.7280    1.5610    0.8790 h1        1 AM7      0.041450
     57 H21       -13.1620    1.6110    1.7850 h1        1 AM7      0.053700
     58 H22A      -12.9660    1.9890   -0.0040 h1        1 AM7      0.053700
     59 H31       -13.6320    0.1120   -1.5400 h1        1 AM7      0.053700
     60 H32       -14.2440   -1.3930   -0.6780 h1        1 AM7      0.053700
     61 H331       -9.6590   -1.4290    0.6310 h1        1 AM7      0.032700
     62 H332       -9.5690   -1.2900   -1.1820 h1        1 AM7      0.032700
     63 H321       -8.7250    1.1370   -0.8650 hc        1 AM7      0.067200
     64 H322       -8.6510    0.8150    0.9130 hc        1 AM7      0.067200
     65 H311       -7.1630   -1.2170    0.4500 h1        1 AM7      0.043200
     66 H312       -7.1540   -0.7460   -1.3230 h1        1 AM7      0.043200
     67 H25        -5.2950   -1.8440   -0.6580 ha        1 AM7      0.159000
     68 H351       -4.2870    4.4220    0.9140 h1        1 AM7      0.047033
     69 H352       -2.9730    3.3090    1.5640 h1        1 AM7      0.047033
     70 H353       -3.0160    3.7280   -0.2230 h1        1 AM7      0.047033
     71 H27        -1.2140   -3.9220   -1.2460 h4        1 AM7      0.023100
     72 H19         3.6790   -1.5940    1.8220 ha        1 AM7      0.166000
     73 H341        8.9300   -2.8450    2.0070 h1        1 AM7      0.063367
     74 H342        7.4380   -3.7620    1.4830 h1        1 AM7      0.063367
     75 H343        8.7810   -3.4480    0.2850 h1        1 AM7      0.063367
     76 H14         6.1050    1.6230   -0.2560 h4        1 AM7      0.174000
     77 H301       10.1750   -1.7350    0.0230 hc        1 AM7      0.072700
     78 H302       10.1220   -0.9450    1.6630 hc        1 AM7      0.072700
     79 H9         12.3580    1.3230   -2.7480 ha        1 AM7      0.134000
     80 C30         9.8700   -0.8030    0.5740 c3        1 AM7     -0.069400
@<TRIPOS>BOND
     1    1    3 1   
     2    1   18 1   
     3    1   22 1   
     4    2    9 2   
     5    2   43 1   
     6    3   21 1   
     7    3   45 1   
     8    3   46 1   
     9    4    5 ar  
    10    4    8 ar  
    11    4   80 1   
    12    5    6 ar  
    13    5   47 1   
    14    6    7 ar  
    15    6   48 1   
    16    7   44 ar  
    17    7   49 1   
    18    8   44 ar  
    19    8   50 1   
    20    9   41 1   
    21    9   80 1   
    22   10   12 ar  
    23   10   33 1   
    24   10   34 ar  
    25   11   34 ar  
    26   11   37 ar  
    27   11   51 1   
    28   12   36 ar  
    29   12   52 1   
    30   13   14 ar  
    31   13   16 ar  
    32   13   32 ar  
    33   14   27 ar  
    34   14   53 1   
    35   15   25 1   
    36   15   26 ar  
    37   15   27 ar  
    38   16   26 ar  
    39   16   30 ar  
    40   17   31 ar  
    41   17   32 ar  
    42   17   54 1   
    43   18   19 1   
    44   18   55 1   
    45   18   56 1   
    46   19   20 1   
    47   19   57 1   
    48   19   58 1   
    49   20   21 1   
    50   21   59 1   
    51   21   60 1   
    52   22   23 1   
    53   22   61 1   
    54   22   62 1   
    55   23   24 1   
    56   23   63 1   
    57   23   64 1   
    58   24   25 1   
    59   24   65 1   
    60   24   66 1   
    61   26   67 1   
    62   27   28 1   
    63   28   29 1   
    64   29   68 1   
    65   29   69 1   
    66   29   70 1   
    67   30   31 ar  
    68   31   71 1   
    69   32   33 1   
    70   34   35 1   
    71   36   37 ar  
    72   36   72 1   
    73   37   38 1   
    74   38   39 1   
    75   38   43 2   
    76   39   40 2   
    77   39   41 1   
    78   41   42 1   
    79   42   73 1   
    80   42   74 1   
    81   42   75 1   
    82   43   76 1   
    83   44   79 1   
    84   77   80 1   
    85   78   80 1   
@<TRIPOS>SUBSTRUCTURE
     1 AM7         1 TEMP              0 ****  ****    0 ROOT
