@<TRIPOS>MOLECULE
AM7
   80    82     1     0     0
SMALL
bcc


@<TRIPOS>ATOM
      1 N1         -0.9010   -0.0460   -0.5890 n3        1 AM7     -0.308000
      2 N3        -11.2830   -3.4620  -13.1490 n3        1 AM7     -0.159000
      3 C4         -2.0850   -0.5710   -1.2340 c3        1 AM7     -0.100000
      4 C5        -10.7300   -1.8330  -15.5100 c2        1 AM7     -0.072000
      5 C6        -11.4710   -1.7100  -16.8020 c3        1 AM7     -0.149000
      6 C7        -12.3020   -2.8890  -17.1440 c2        1 AM7      0.190000
      7 C8        -12.3380   -4.0210  -16.4650 c1        1 AM7     -0.583000
      8 C10        -9.4840   -2.3210  -15.4610 c2        1 AM7     -0.195000
      9 C13       -11.6800   -2.0780  -13.2200 c2        1 AM7      0.097000
     10 C15        -8.1800   -2.6430   -8.1440 ca        1 AM7      0.025000
     11 C17       -10.2590   -3.9650   -8.6300 ca        1 AM7     -0.103000
     12 C20        -8.7270   -1.8750   -9.2670 ca        1 AM7     -0.208000
     13 C21        -5.2210   -0.9650   -7.0490 ca        1 AM7     -0.117000
     14 C22        -5.0390   -1.4940   -5.7130 ca        1 AM7     -0.190000
     15 C24        -3.6310    0.4250   -5.1770 ca        1 AM7      0.110000
     16 C26        -4.2710    0.0670   -7.5240 ca        1 AM7      0.089000
     17 C28        -4.4940   -0.0510  -11.1070 c1        1 AM7      0.217000
     18 C1         -0.4650   -0.7760    0.5710 c3        1 AM7     -0.138000
     19 C2         -3.5070   -1.7250    1.5580 c1        1 AM7     -0.057000
     20 O1         -3.6130   -1.7200    0.2520 os        1 AM7     -0.203000
     21 C3         -3.3620   -0.4430   -0.4020 c3        1 AM7     -0.026000
     22 C33        -1.0880    2.4920   -4.8130 cx        1 AM7     -0.212500
     23 C32        -1.4770    2.8020   -3.3960 cx        1 AM7     -0.212500
     24 C31        -2.5270    2.3600   -4.3830 cx        1 AM7     -0.055000
     25 O3         -3.0330    1.0670   -4.1130 os        1 AM7     -0.166000
     26 C25        -3.6360    0.8600   -6.4600 ca        1 AM7     -0.216000
     27 C23        -4.2860   -0.8310   -4.8030 ca        1 AM7      0.074000
     28 O2         -4.0540   -1.2120   -3.5010 os        1 AM7     -0.195000
     29 C35        -4.6750   -2.4280   -3.0900 c3        1 AM7     -0.090000
     30 N4         -3.9170    0.3260   -8.7540 n2        1 AM7     -0.121000
     31 C27        -4.3570   -0.4290   -9.8400 c2        1 AM7     -0.414000
     32 C29        -6.2660   -1.3510   -7.8270 c2        1 AM7      0.002000
     33 O4         -7.1160   -2.3300   -7.3290 os        1 AM7     -0.127000
     34 C16        -9.0330   -3.6920   -7.8210 ca        1 AM7      0.051000
     35 F1         -8.8460   -4.4620   -6.7310 f         1 AM7     -0.084000
     36 C19        -9.1230   -2.7920  -10.2160 ca        1 AM7     -0.100000
     37 C18       -10.4170   -3.4120   -9.8680 ca        1 AM7     -0.033000
     38 C11       -11.6040   -3.5480  -10.7370 c3        1 AM7     -0.118000
     39 C12       -12.3370   -2.2090  -10.8490 c2        1 AM7      0.300000
     40 O5        -12.9510   -1.7230   -9.8850 o         1 AM7     -0.331000
     41 N2        -12.3400   -1.5440  -12.0830 n         1 AM7     -0.287000
     42 C34       -13.0020   -0.2720  -12.2170 c3        1 AM7     -0.084000
     43 C14       -11.2130   -4.1680  -12.0490 c1        1 AM7     -0.052000
     44 C9        -12.3870   -5.1240  -15.8270 c1        1 AM7      0.190000
     45 H41        -1.9760   -1.6570   -1.5310 h1        1 AM7      0.095500
     46 H42        -2.2510    0.0210   -2.1850 h1        1 AM7      0.095500
     47 H6        -12.1390   -0.8020  -16.7720 hc        1 AM7      0.123000
     48 H7        -10.7420   -1.5510  -17.6490 hc        1 AM7      0.123000
     49 H8        -12.9210   -2.7650  -18.0570 ha        1 AM7      0.128000
     50 H10        -8.9520   -2.6630  -16.3580 ha        1 AM7      0.125500
     51 H17       -11.0070   -4.6220   -8.1650 ha        1 AM7      0.166000
     52 H20        -9.2380   -0.9310   -9.0410 ha        1 AM7      0.161000
     53 H22        -5.5700   -2.4270   -5.4700 ha        1 AM7      0.160000
     54 H28        -6.5230   -0.9310   -8.8130 h4        1 AM7      0.169000
     55 H11        -0.1520   -1.8340    0.3480 h1        1 AM7      0.074667
     56 H12         0.4080   -0.2370    1.0240 h1        1 AM7      0.074667
     57 H21        -1.3020   -0.8080    1.3220 h1        1 AM7      0.074667
     58 H22A       -3.7350   -2.7680    1.9060 ha        1 AM7      0.025000
     59 H31        -3.3180    0.3760    0.3590 h1        1 AM7      0.119500
     60 H32        -4.2420   -0.3170   -1.0870 h1        1 AM7      0.119500
     61 H331       -0.1590    0.0240   -1.2610 hn        1 AM7      0.155000
     62 H332       -0.5050    1.5750   -5.0120 hc        1 AM7      0.124750
     63 H321       -0.8170    3.3150   -5.4970 hc        1 AM7      0.124750
     64 H322       -1.4970    3.8510   -3.0510 hc        1 AM7      0.124750
     65 H311       -1.1770    2.1020   -2.5940 hc        1 AM7      0.124750
     66 H312       -3.3070    3.0490   -4.7560 h1        1 AM7      0.134000
     67 H25        -3.1250    1.7900   -6.7520 ha        1 AM7      0.166000
     68 H351       -4.3060   -3.2850   -3.7040 h1        1 AM7      0.092667
     69 H352       -5.7870   -2.3450   -3.1620 h1        1 AM7      0.092667
     70 H353       -4.3480   -2.5300   -2.0210 h1        1 AM7      0.092667
     71 H27        -4.5360   -1.5290   -9.6900 h4        1 AM7      0.176000
     72 H19        -8.3990   -3.4850  -10.6810 ha        1 AM7      0.142000
     73 H341      -13.6120   -0.0670  -11.2970 h1        1 AM7      0.096000
     74 H342      -12.2450    0.5480  -12.3420 h1        1 AM7      0.096000
     75 H343      -13.6800   -0.2860  -13.1120 h1        1 AM7      0.096000
     76 H14       -12.3410   -4.2680  -10.2640 hc        1 AM7      0.167000
     77 H301      -11.0760   -3.8890  -14.0370 hn        1 AM7      0.285000
     78 H302      -11.7560   -0.2820  -14.4060 ha        1 AM7      0.149000
     79 H9         -8.9190   -2.3970  -14.5230 ha        1 AM7      0.125500
     80 C30       -11.4320   -1.3320  -14.3370 c2        1 AM7     -0.232000
@<TRIPOS>BOND
     1    1    3 1   
     2    1   18 1   
     3    1   61 1   
     4    2    9 1   
     5    2   43 1   
     6    2   77 1   
     7    3   21 1   
     8    3   45 1   
     9    3   46 1   
    10    4    5 1   
    11    4    8 1   
    12    4   80 1   
    13    5    6 1   
    14    5   47 1   
    15    5   48 1   
    16    6    7 1   
    17    6   49 1   
    18    7   44 1   
    19    8   50 1   
    20    8   79 1   
    21    9   41 1   
    22    9   80 1   
    23   10   12 1   
    24   10   33 1   
    25   10   34 1   
    26   11   34 1   
    27   11   37 1   
    28   11   51 1   
    29   12   36 1   
    30   12   52 1   
    31   13   14 1   
    32   13   16 1   
    33   13   32 1   
    34   14   27 1   
    35   14   53 1   
    36   15   25 1   
    37   15   26 1   
    38   15   27 1   
    39   16   26 1   
    40   16   30 1   
    41   17   31 1   
    42   18   55 1   
    43   18   56 1   
    44   18   57 1   
    45   19   20 1   
    46   19   58 1   
    47   20   21 1   
    48   21   59 1   
    49   21   60 1   
    50   22   23 1   
    51   22   24 1   
    52   22   62 1   
    53   22   63 1   
    54   23   24 1   
    55   23   64 1   
    56   23   65 1   
    57   24   25 1   
    58   24   66 1   
    59   26   67 1   
    60   27   28 1   
    61   28   29 1   
    62   29   68 1   
    63   29   69 1   
    64   29   70 1   
    65   30   31 1   
    66   31   71 1   
    67   32   33 1   
    68   32   54 1   
    69   34   35 1   
    70   36   37 1   
    71   36   72 1   
    72   37   38 1   
    73   38   39 1   
    74   38   43 1   
    75   38   76 1   
    76   39   40 1   
    77   39   41 1   
    78   41   42 1   
    79   42   73 1   
    80   42   74 1   
    81   42   75 1   
    82   78   80 1   
@<TRIPOS>SUBSTRUCTURE
     1 AM7         1 TEMP              0 ****  ****    0 ROOT
