@<TRIPOS>MOLECULE
AM7
   80    81     1     0     0
SMALL
bcc


@<TRIPOS>ATOM
      1 N1          0.2850   -1.2190   -0.2640 n3        1 AM7     -0.326000
      2 N3        -11.3750   -3.6220  -13.2470 n3        1 AM7     -0.159000
      3 C4          1.0770   -2.4090   -0.4960 c3        1 AM7     -0.085000
      4 C5         -9.4200   -3.9620  -15.3910 c2        1 AM7     -0.071000
      5 C6         -9.5770   -4.5030  -16.7750 c3        1 AM7     -0.149000
      6 C7        -10.7260   -5.4260  -16.9430 c2        1 AM7      0.190000
      7 C8        -11.5060   -5.8580  -15.9700 c1        1 AM7     -0.583000
      8 C10        -8.6470   -4.5720  -14.4840 c2        1 AM7     -0.196000
      9 C13       -11.0140   -2.5310  -14.1180 c2        1 AM7      0.097000
     10 C15        -9.9700   -0.5800   -8.3190 ca        1 AM7      0.040000
     11 C17       -12.1420   -1.4900   -9.1890 ca        1 AM7     -0.098000
     12 C20        -9.7370   -0.5150   -9.7670 ca        1 AM7     -0.211000
     13 C21        -7.0420    0.5970   -6.6530 ca        1 AM7     -0.093000
     14 C22        -7.4760    0.6350   -5.2750 ca        1 AM7     -0.238000
     15 C24        -5.1490    0.6050   -4.5500 ca        1 AM7      0.107000
     16 C26        -5.6300    0.9400   -6.9410 ca        1 AM7      0.091000
     17 C28        -5.5860    1.8150  -10.4240 c1        1 AM7      0.213000
     18 C1          0.9510    0.0210   -0.5590 c3        1 AM7     -0.131000
     19 C2          2.3850   -1.1340    2.1680 c1        1 AM7     -0.036000
     20 O1          2.6770   -2.0350    1.3150 os        1 AM7     -0.087000
     21 C3          1.6890   -2.9690    0.7890 c3        1 AM7     -0.131000
     22 C33        -2.1580   -0.6570   -3.9460 cx        1 AM7     -0.220000
     23 C32        -2.1380   -0.0680   -2.5640 cx        1 AM7     -0.220000
     24 C31        -2.9690    0.5790   -3.6430 cx        1 AM7     -0.044000
     25 O3         -4.3590    0.4350   -3.4330 os        1 AM7     -0.153000
     26 C25        -4.6990    0.7260   -5.8220 ca        1 AM7     -0.222000
     27 C23        -6.5850    0.6250   -4.2480 ca        1 AM7      0.125000
     28 O2         -6.9130    0.6300   -2.9300 oh        1 AM7     -0.266000
     29 C35        -9.7300    0.2260   -3.1330 c1        1 AM7     -0.051000
     30 N4         -5.1320    1.4270   -8.0450 n2        1 AM7     -0.123000
     31 C27        -5.9210    1.7830   -9.1380 c2        1 AM7     -0.412000
     32 C29        -7.8780    0.2050   -7.6480 c2        1 AM7     -0.022000
     33 O4         -9.1970   -0.0810   -7.3010 os        1 AM7     -0.133000
     34 C16       -11.2550   -1.0490   -8.0720 ca        1 AM7      0.034000
     35 F1        -11.7890   -1.0620   -6.8330 f         1 AM7     -0.092000
     36 C19       -10.1620   -1.7130  -10.2980 ca        1 AM7     -0.095000
     37 C18       -11.6320   -1.7470  -10.4300 ca        1 AM7     -0.038000
     38 C11       -12.4110   -2.1310  -11.6250 c3        1 AM7     -0.118000
     39 C12       -12.3370   -1.0280  -12.6830 c2        1 AM7      0.300000
     40 O5        -12.9020    0.0660  -12.5200 o         1 AM7     -0.332000
     41 N2        -11.6450   -1.2840  -13.8750 n         1 AM7     -0.287000
     42 C34       -11.5340   -0.2600  -14.8810 c3        1 AM7     -0.084000
     43 C14       -11.9900   -3.4930  -12.0990 c1        1 AM7     -0.052000
     44 C9        -12.2730   -6.2900  -15.0460 c1        1 AM7      0.190000
     45 H41         1.9160   -2.2200   -1.2280 h1        1 AM7      0.084000
     46 H42         0.4250   -3.2210   -0.9270 h1        1 AM7      0.084000
     47 H6         -9.6970   -3.6530  -17.5050 hc        1 AM7      0.123000
     48 H7         -8.6450   -5.0630  -17.0770 hc        1 AM7      0.123000
     49 H8        -10.8980   -5.7600  -17.9880 ha        1 AM7      0.128000
     50 H10        -8.1030   -5.5000  -14.7060 ha        1 AM7      0.124500
     51 H17       -13.2080   -1.5950   -8.9450 ha        1 AM7      0.164000
     52 H20        -9.8500    0.4620  -10.2530 ha        1 AM7      0.157000
     53 H22        -8.5600    0.6320   -5.0870 ha        1 AM7      0.139000
     54 H28        -7.6090    0.0630   -8.7060 h4        1 AM7      0.168000
     55 H11         1.2540    0.1270   -1.6370 h1        1 AM7      0.076000
     56 H12         1.8760    0.1020    0.0740 h1        1 AM7      0.076000
     57 H21         0.2600    0.8670   -0.3000 h1        1 AM7      0.076000
     58 H22A        1.3450   -1.0440    2.5530 ha        1 AM7      0.032000
     59 H31         0.9130   -3.1740    1.5660 h1        1 AM7      0.101500
     60 H32         2.2750   -3.8950    0.5610 h1        1 AM7      0.101500
     61 H331       -0.5900   -1.2760   -0.7510 hn        1 AM7      0.165000
     62 H332       -1.2700   -0.5570   -4.5940 hc        1 AM7      0.121750
     63 H321       -2.6870   -1.6140   -4.1040 hc        1 AM7      0.121750
     64 H322       -1.2390    0.4670   -2.2090 hc        1 AM7      0.121750
     65 H311       -2.6610   -0.6030   -1.7500 hc        1 AM7      0.121750
     66 H312       -2.7020    1.5620   -4.0720 h1        1 AM7      0.136000
     67 H25        -3.6230    0.7040   -6.0540 ha        1 AM7      0.162000
     68 H351       -7.9040    0.5520   -2.8540 ho        1 AM7      0.274000
     69 H352      -10.1250   -0.7950   -3.2090 ha        1 AM7      0.043000
     70 H353      -10.4910    0.9970   -3.3140 ha        1 AM7      0.043000
     71 H27        -6.9490    2.1940   -8.9430 h4        1 AM7      0.176000
     72 H19        -9.7030   -2.6730  -10.0040 ha        1 AM7      0.145000
     73 H341      -12.2160    0.5950  -14.6240 h1        1 AM7      0.096000
     74 H342      -10.4780    0.1200  -14.9340 h1        1 AM7      0.096000
     75 H343      -11.8260   -0.6740  -15.8830 h1        1 AM7      0.096000
     76 H14       -13.5070   -2.2270  -11.3500 hc        1 AM7      0.167000
     77 H301      -11.1420   -4.5370  -13.5950 hn        1 AM7      0.285000
     78 H302       -9.8520   -1.8850  -15.8120 ha        1 AM7      0.150000
     79 H9         -8.5050   -4.1760  -13.4700 ha        1 AM7      0.124500
     80 C30       -10.1120   -2.7080  -15.1280 c2        1 AM7     -0.233000
@<TRIPOS>BOND
     1    1    3 1   
     2    1   18 1   
     3    1   61 1   
     4    2    9 1   
     5    2   43 1   
     6    2   77 1   
     7    3   21 1   
     8    3   45 1   
     9    3   46 1   
    10    4    5 1   
    11    4    8 1   
    12    4   80 1   
    13    5    6 1   
    14    5   47 1   
    15    5   48 1   
    16    6    7 1   
    17    6   49 1   
    18    7   44 1   
    19    8   50 1   
    20    8   79 1   
    21    9   41 1   
    22    9   80 1   
    23   10   12 1   
    24   10   33 1   
    25   10   34 1   
    26   11   34 1   
    27   11   37 1   
    28   11   51 1   
    29   12   36 1   
    30   12   52 1   
    31   13   14 1   
    32   13   16 1   
    33   13   32 1   
    34   14   27 1   
    35   14   53 1   
    36   15   25 1   
    37   15   26 1   
    38   15   27 1   
    39   16   26 1   
    40   16   30 1   
    41   17   31 1   
    42   18   55 1   
    43   18   56 1   
    44   18   57 1   
    45   19   20 1   
    46   19   58 1   
    47   20   21 1   
    48   21   59 1   
    49   21   60 1   
    50   22   23 1   
    51   22   24 1   
    52   22   62 1   
    53   22   63 1   
    54   23   24 1   
    55   23   64 1   
    56   23   65 1   
    57   24   25 1   
    58   24   66 1   
    59   26   67 1   
    60   27   28 1   
    61   28   68 1   
    62   29   69 1   
    63   29   70 1   
    64   30   31 1   
    65   31   71 1   
    66   32   33 1   
    67   32   54 1   
    68   34   35 1   
    69   36   37 1   
    70   36   72 1   
    71   37   38 1   
    72   38   39 1   
    73   38   43 1   
    74   38   76 1   
    75   39   40 1   
    76   39   41 1   
    77   41   42 1   
    78   42   73 1   
    79   42   74 1   
    80   42   75 1   
    81   78   80 1   
@<TRIPOS>SUBSTRUCTURE
     1 AM7         1 TEMP              0 ****  ****    0 ROOT
