@<TRIPOS>MOLECULE
AM7
   80    68     1     0     0
SMALL
bcc


@<TRIPOS>ATOM
      1 N1          5.8870    0.2360    8.4040 n3        1 AM7     -0.252000
      2 N3         -5.2610    0.2900   -6.5540 n1        1 AM7     -0.200000
      3 C4          7.4250   -0.0020    8.1730 c3        1 AM7     -0.104000
      4 C5         -6.3520    1.3840   -8.9650 c1        1 AM7     -0.071000
      5 C6         -7.3960    0.4750   -8.9440 c1        1 AM7     -0.124875
      6 C7         -8.7010    0.9200   -8.9100 c1        1 AM7     -0.124875
      7 C8         -8.9730    2.2950   -8.8970 c1        1 AM7     -0.124875
      8 C10        -6.6210    2.7620   -8.9520 c1        1 AM7     -0.115000
      9 C13        -4.3590    0.5920   -7.6710 c1        1 AM7      0.131000
     10 C15        -1.4790   -1.4780   -1.3660 c1        1 AM7      0.005000
     11 C17        -2.2450   -1.9060   -3.5860 c1        1 AM7     -0.103667
     12 C20        -1.8770   -0.1640   -1.4830 c1        1 AM7     -0.124875
     13 C21         0.9110   -1.2660    1.3080 c1        1 AM7     -0.085000
     14 C22         0.1140   -1.4660    2.4430 c1        1 AM7     -0.103667
     15 C24         1.9970   -0.8940    3.8510 c1        1 AM7      0.093000
     16 C26         2.2310   -0.8840    1.4440 c2        1 AM7      0.031000
     17 C28         1.1500   -1.2710   -1.0650 c1        1 AM7     -0.124875
     18 C1          6.0560    1.4730    9.3420 c3        1 AM7     -0.104000
     19 C2          6.8100    1.1450   10.6120 c3        1 AM7     -0.038500
     20 O1          7.4950    0.0620   10.4800 os        1 AM7     -0.279000
     21 C3          8.1620   -0.3180    9.4440 c3        1 AM7     -0.038500
     22 C33         5.2880    0.6480    7.1810 c3        1 AM7     -0.065000
     23 C32         3.9980   -0.1840    6.9360 c3        1 AM7     -0.165000
     24 C31         3.5320    0.0110    5.4990 c3        1 AM7     -0.028000
     25 O3          2.4620   -0.9610    5.1890 os        1 AM7     -0.187000
     26 C25         2.7810   -0.6960    2.7300 c2        1 AM7     -0.186000
     27 C23         0.6480   -1.2830    3.7040 c1        1 AM7     -0.040667
     28 O2          0.0370   -1.3490    4.9900 o         1 AM7     -0.185000
     29 C35        -0.9170   -2.4110    5.1290 c3        1 AM7     -0.082000
     30 N4          3.0150   -0.6950    0.3200 n1        1 AM7     -0.152000
     31 C27         2.4890   -0.8840   -0.9220 c1        1 AM7     -0.124875
     32 C29         0.3730   -1.4590    0.0390 c1        1 AM7      0.122000
     33 O4         -0.9650   -1.9530   -0.1450 o         1 AM7     -0.147000
     34 C16        -1.6630   -2.3480   -2.4170 c1        1 AM7      0.094000
     35 F1         -1.2890   -3.6450   -2.3000 f         1 AM7     -0.089000
     36 C19        -2.4670    0.2810   -2.6670 c1        1 AM7     -0.124875
     37 C18        -2.6470   -0.5900   -3.7090 c1        1 AM7     -0.040667
     38 C11        -3.2570   -0.0810   -5.0800 c1        1 AM7     -0.040667
     39 C12        -2.3660    0.2500   -6.1960 c1        1 AM7      0.339000
     40 O5         -1.2210    0.2090   -6.0520 o         1 AM7     -0.355000
     41 N2         -2.9090    0.6420   -7.4510 n2        1 AM7     -0.269000
     42 C34        -2.0270    1.0450   -8.5200 c3        1 AM7     -0.100000
     43 C14        -4.7170    0.0220   -5.2530 c1        1 AM7     -0.103667
     44 C30        -4.9450    0.8970   -9.0940 c2        1 AM7     -0.080000
     45 C9         -7.9300    3.2090   -8.9180 c1        1 AM7     -0.124875
     46 H41         7.5370   -0.7580    7.5490 h1        1 AM7      0.093000
     47 H42         7.8380    0.8550    7.7440 h1        1 AM7      0.093000
     48 H6         -7.2150   -0.4570   -8.9540 ha        1 AM7      0.147000
     49 H7         -9.4260    0.2850   -8.8960 ha        1 AM7      0.147000
     50 H8         -9.9100    2.6140   -8.8710 ha        1 AM7      0.147000
     51 H10        -5.8720    3.4150   -8.9670 ha        1 AM7      0.129000
     52 H17        -2.3710   -2.5120   -4.3130 ha        1 AM7      0.162000
     53 H20        -1.7520    0.4270   -0.7710 ha        1 AM7      0.147000
     54 H22        -0.8450   -1.7420    2.3390 ha        1 AM7      0.162000
     55 H28         0.7590   -1.4130   -1.9930 ha        1 AM7      0.147000
     56 H11         5.1250    1.8230    9.5970 h1        1 AM7      0.093000
     57 H12         6.5610    2.2140    8.8330 h1        1 AM7      0.093000
     58 H21         7.4070    1.8720   10.8220 h1        1 AM7      0.089750
     59 H22A        6.2070    1.0370   11.3040 h1        1 AM7      0.089750
     60 H31         9.0010    0.1260    9.4340 h1        1 AM7      0.089750
     61 H32         8.3160   -1.3120    9.4970 h1        1 AM7      0.089750
     62 H331        5.9340    0.4980    6.4220 h1        1 AM7      0.072500
     63 H332        5.0610    1.6000    7.2310 h1        1 AM7      0.072500
     64 H321        3.2920    0.1130    7.5530 hc        1 AM7      0.106500
     65 H322        4.2000   -1.1860    7.0990 hc        1 AM7      0.106500
     66 H311        3.1790    0.9460    5.3840 h1        1 AM7      0.081500
     67 H312        4.2670   -0.1270    4.9060 h1        1 AM7      0.081500
     68 H25         3.7650   -0.5260    2.8310 ha        1 AM7      0.159000
     69 H351       -0.4700   -3.3110    4.8780 h1        1 AM7      0.086333
     70 H352       -1.2290   -2.4500    6.0500 h1        1 AM7      0.086333
     71 H353       -1.7050   -2.2400    4.5120 h1        1 AM7      0.086333
     72 H27         3.0420   -0.7530   -1.7070 ha        1 AM7      0.147000
     73 H19        -2.7430    1.1890   -2.7500 ha        1 AM7      0.147000
     74 H341       -2.3750    1.8590   -8.9370 h1        1 AM7      0.103000
     75 H342       -1.9730    0.3170   -9.2020 h1        1 AM7      0.103000
     76 H343       -1.1110    1.2230   -8.1500 h1        1 AM7      0.103000
     77 H14        -5.3230   -0.1810   -4.4940 ha        1 AM7      0.162000
     78 H301       -4.3910    1.5960   -9.5400 ha        1 AM7      0.112000
     79 H302       -4.9350    0.0840   -9.6290 ha        1 AM7      0.112000
     80 H9         -8.1290    4.2140   -8.9100 ha        1 AM7      0.147000
@<TRIPOS>BOND
     1    1    3 1   
     2    1   18 1   
     3    1   22 1   
     4    2    9 1   
     5    3   21 1   
     6    3   46 1   
     7    3   47 1   
     8    4    8 1   
     9    4   44 1   
    10    5    6 1   
    11    5   48 1   
    12    6   49 1   
    13    7   45 1   
    14    7   50 1   
    15    8   51 1   
    16    9   41 1   
    17   10   33 1   
    18   10   34 1   
    19   11   37 1   
    20   11   52 1   
    21   12   36 1   
    22   12   53 1   
    23   13   16 1   
    24   13   32 1   
    25   14   27 1   
    26   14   54 1   
    27   15   25 1   
    28   15   26 1   
    29   16   26 1   
    30   16   30 1   
    31   17   31 1   
    32   17   55 1   
    33   18   19 1   
    34   18   56 1   
    35   18   57 1   
    36   19   20 1   
    37   19   58 1   
    38   19   59 1   
    39   20   21 1   
    40   21   60 1   
    41   21   61 1   
    42   22   23 1   
    43   22   62 1   
    44   22   63 1   
    45   23   24 1   
    46   23   64 1   
    47   23   65 1   
    48   24   25 1   
    49   24   66 1   
    50   24   67 1   
    51   26   68 1   
    52   28   29 1   
    53   29   69 1   
    54   29   70 1   
    55   29   71 1   
    56   31   72 1   
    57   34   35 1   
    58   36   73 1   
    59   38   43 1   
    60   39   40 1   
    61   41   42 1   
    62   42   74 1   
    63   42   75 1   
    64   42   76 1   
    65   43   77 1   
    66   44   78 1   
    67   44   79 1   
    68   45   80 1   
@<TRIPOS>SUBSTRUCTURE
     1 AM7         1 TEMP              0 ****  ****    0 ROOT
