@<TRIPOS>MOLECULE
AM8
   53    56     1     0     0
SMALL
bcc


@<TRIPOS>ATOM
      1 CAA         0.2950    0.2080   -0.2330 c3        1 AM8     -0.019800
      2 CAC         1.7380    0.0840   -0.0220 cc        1 AM8     -0.146300
      3 CAD         2.4090    0.0130    1.2490 cc        1 AM8     -0.102300
      4 CAE         1.7780    0.0630    2.5690 c3        1 AM8     -0.034800
      5 CAF         2.7280    0.0010   -1.0230 cd        1 AM8     -0.093600
      6 CAG         2.5600    0.0210   -2.4870 c3        1 AM8     -0.034800
      7 NAH         3.9700   -0.1190   -0.4010 na        1 AM8     -0.170100
      8 CAI         3.7880   -0.1050    0.9840 cd        1 AM8     -0.150600
      9 CAJ         4.8990   -0.1930    1.9600 c3        1 AM8      0.029100
     10 CAK         5.3150   -1.5820    2.1960 cc        1 AM8     -0.059400
     11 CAL         6.1250   -2.4260    1.5010 ca        1 AM8     -0.170000
     12 CAM         6.8860   -2.2970    0.3000 ca        1 AM8      0.101000
     13 CAN         4.8340   -2.3930    3.4270 c         1 AM8      0.656700
     14 OAO         4.0990   -1.9650    4.3080 o         1 AM8     -0.440100
     15 NAP         5.4190   -3.7290    3.3460 nc        1 AM8     -0.317400
     16 CAQ         6.1490   -3.7440    2.2510 ca        1 AM8      0.092000
     17 CAR         6.9380   -4.8150    1.6760 ca        1 AM8     -0.134000
     18 CAS         7.6170   -4.6050    0.5270 ca        1 AM8     -0.032000
     19 CAT         7.6170   -3.3400   -0.1800 ca        1 AM8     -0.390500
     20 SAU         8.4910   -3.2260   -1.6220 sy        1 AM8      1.506200
     21 OAV         8.4760   -4.4760   -2.2720 o         1 AM8     -0.645300
     22 OAW         7.9660   -2.1340   -2.3450 o         1 AM8     -0.645300
     23 NAX        10.0210   -2.9070   -1.1130 nh        1 AM8     -0.677900
     24 CBE        11.0310   -3.9300   -1.1760 c3        1 AM8      0.195100
     25 CAY        10.4010   -1.6970   -0.4890 ca        1 AM8      0.147600
     26 CAZ        10.0140   -0.4550   -1.0390 ca        1 AM8     -0.158000
     27 CBA        10.3940    0.7280   -0.4030 ca        1 AM8      0.031400
     28 ClBM        9.9080    2.2170   -1.0660 cl        1 AM8     -0.083400
     29 CBB        11.1690    0.7130    0.7590 ca        1 AM8     -0.133000
     30 CBC        11.5630   -0.5130    1.2900 ca        1 AM8     -0.107000
     31 CBD        11.1880   -1.7080    0.6840 ca        1 AM8     -0.146000
     32 HAA1       -0.1560   -0.7920   -0.4630 hc        1 AM8      0.039033
     33 HAA2       -0.2030    0.6140    0.6820 hc        1 AM8      0.039033
     34 HAA3        0.0730    0.8940   -1.0890 hc        1 AM8      0.039033
     35 HAE1        2.3830   -0.4990    3.3270 hc        1 AM8      0.046700
     36 HAE2        1.6810    1.1240    2.9140 hc        1 AM8      0.046700
     37 HAE3        0.7540   -0.3870    2.5320 hc        1 AM8      0.046700
     38 HAG1        1.4890    0.2320   -2.7330 hc        1 AM8      0.051033
     39 HAG2        3.1960    0.8120   -2.9580 hc        1 AM8      0.051033
     40 HAG3        2.8390   -0.9670   -2.9330 hc        1 AM8      0.051033
     41 HNAH        4.8370   -0.1720   -0.8670 hn        1 AM8      0.292700
     42 HAJ1        5.7830    0.4110    1.6100 hc        1 AM8      0.082200
     43 HAJ2        4.5410    0.2540    2.9330 hc        1 AM8      0.082200
     44 HAM         6.8590   -1.3270   -0.2320 ha        1 AM8      0.155000
     45 HAR         6.9500   -5.7850    2.1960 ha        1 AM8      0.166000
     46 HAS         8.1970   -5.4260    0.0660 ha        1 AM8      0.156000
     47 HBE1       11.0850   -4.5010   -0.2100 h1        1 AM8      0.055700
     48 HBE2       12.0370   -3.4730   -1.3760 h1        1 AM8      0.055700
     49 HBE3       10.7900   -4.6470   -2.0090 h1        1 AM8      0.055700
     50 HAZ         9.4130   -0.4100   -1.9660 ha        1 AM8      0.183000
     51 HBB        11.4670    1.6530    1.2470 ha        1 AM8      0.153000
     52 HBC        12.1780   -0.5380    2.2040 ha        1 AM8      0.143000
     53 HBD        11.5150   -2.6630    1.1240 ha        1 AM8      0.143000
@<TRIPOS>BOND
     1    1    2 1   
     2    1   32 1   
     3    1   33 1   
     4    1   34 1   
     5    2    3 1   
     6    2    5 2   
     7    3    4 1   
     8    3    8 2   
     9    4   35 1   
    10    4   36 1   
    11    4   37 1   
    12    5    6 1   
    13    5    7 1   
    14    6   38 1   
    15    6   39 1   
    16    6   40 1   
    17    7    8 1   
    18    7   41 1   
    19    8    9 1   
    20    9   10 1   
    21    9   42 1   
    22    9   43 1   
    23   10   11 2   
    24   10   13 1   
    25   11   12 ar  
    26   11   16 ar  
    27   12   19 ar  
    28   12   44 1   
    29   13   14 2   
    30   13   15 1   
    31   15   16 2   
    32   16   17 ar  
    33   17   18 ar  
    34   17   45 1   
    35   18   19 ar  
    36   18   46 1   
    37   19   20 1   
    38   20   21 2   
    39   20   22 2   
    40   20   23 1   
    41   23   24 1   
    42   23   25 1   
    43   24   47 1   
    44   24   48 1   
    45   24   49 1   
    46   25   26 ar  
    47   25   31 ar  
    48   26   27 ar  
    49   26   50 1   
    50   27   28 1   
    51   27   29 ar  
    52   29   30 ar  
    53   29   51 1   
    54   30   31 ar  
    55   30   52 1   
    56   31   53 1   
@<TRIPOS>SUBSTRUCTURE
     1 AM8         1 TEMP              0 ****  ****    0 ROOT
