@<TRIPOS>MOLECULE
AM8
   54    56     1     0     0
SMALL
bcc


@<TRIPOS>ATOM
      1 CAA         2.7600   -0.8150   -2.1420 c3        1 AM8     -0.030800
      2 CAC         3.4920   -0.3390   -0.9670 cc        1 AM8     -0.138300
      3 CAD         3.2750   -0.7790    0.3860 cc        1 AM8     -0.119300
      4 CAE         2.2850   -1.7650    0.8250 c3        1 AM8     -0.033800
      5 CAF         4.5060    0.6410   -0.9300 cd        1 AM8     -0.088600
      6 CAG         5.0680    1.4340   -2.0390 c3        1 AM8     -0.044800
      7 NAH         4.9300    0.7840    0.3920 na        1 AM8     -0.171100
      8 CAI         4.1710   -0.0610    1.2060 cd        1 AM8     -0.189600
      9 CAJ         4.3050   -0.1150    2.6740 c3        1 AM8     -0.001900
     10 CAK         5.3530   -1.0010    3.1680 cc        1 AM8      0.056600
     11 CAL         6.0680   -2.0360    2.6090 ca        1 AM8     -0.245000
     12 CAM         6.0710   -2.6150    1.3290 ca        1 AM8      0.242000
     13 CAN         5.8780   -0.8970    4.6390 c         1 AM8      0.635700
     14 OAO         5.4860   -0.0690    5.4450 o         1 AM8     -0.387100
     15 NAP         6.8880   -1.9280    4.8280 nc        1 AM8     -0.274400
     16 CAQ         6.9920   -2.5660    3.6840 ca        1 AM8      0.091000
     17 CAR         7.8430   -3.6820    3.3190 ca        1 AM8     -0.093000
     18 CAS         7.7940   -4.1870    2.0720 ca        1 AM8     -0.061000
     19 CAT         6.9130   -3.6790    1.0190 ca        1 AM8     -0.638500
     20 SAU         6.9540   -4.3830   -0.3670 s4        1 AM8      1.664300
     21 OAV         7.7040   -5.5120   -0.4940 o         1 AM8     -0.437400
     22 OAW         5.9770   -4.0520   -1.2560 o         1 AM8     -0.437400
     23 NAX         8.6260   -3.1380   -1.5340 nh        1 AM8     -0.789600
     24 CBE         8.0790   -2.7530   -2.8300 c3        1 AM8      0.103100
     25 CAY         9.1930   -2.0480   -0.7840 ca        1 AM8      0.026600
     26 CAZ         8.5660   -0.7880   -0.7570 ca        1 AM8     -0.142000
     27 CBA         9.1090    0.2340    0.0260 ca        1 AM8      0.028400
     28 CLBM        8.3420    1.7480    0.0580 cl        1 AM8     -0.069400
     29 CBB        10.2750    0.0320    0.7700 ca        1 AM8     -0.104000
     30 CBC        10.9020   -1.2120    0.7250 ca        1 AM8     -0.091000
     31 CBD        10.3770   -2.2470   -0.0440 ca        1 AM8     -0.139000
     32 HAA1        1.7100   -0.4210   -2.1270 hc        1 AM8      0.050033
     33 HAA2        3.2440   -0.4770   -3.0910 hc        1 AM8      0.050033
     34 HAA3        2.7090   -1.9330   -2.1490 hc        1 AM8      0.050033
     35 HAE1        1.5470   -1.9660    0.0070 hc        1 AM8      0.047700
     36 HAE2        1.7250   -1.3970    1.7210 hc        1 AM8      0.047700
     37 HAE3        2.7790   -2.7330    1.0950 hc        1 AM8      0.047700
     38 HAG1        4.6360    2.4670   -2.0340 hc        1 AM8      0.059700
     39 HAG2        6.1820    1.5170   -1.9620 hc        1 AM8      0.059700
     40 HAG3        4.8120    0.9530   -3.0160 hc        1 AM8      0.059700
     41 HNAH        5.5430    1.4880    0.7160 hn        1 AM8      0.302700
     42 HAJ1        4.4640    0.9160    3.1140 hc        1 AM8      0.127200
     43 HAJ2        3.3210   -0.4810    3.1100 hc        1 AM8      0.127200
     44 HAM         5.3670   -2.2030    0.5660 ha        1 AM8      0.195000
     45 HAR         8.5150   -4.0950    4.0920 ha        1 AM8      0.190000
     46 HAS         8.4380   -5.0460    1.8030 ha        1 AM8      0.168000
     47 HBE1        7.0690   -2.2850   -2.6820 h1        1 AM8      0.078367
     48 HBE2        7.9580   -3.6730   -3.4630 h1        1 AM8      0.078367
     49 HBE3        8.7390   -2.0250   -3.3730 h1        1 AM8      0.078367
     50 HAZ         7.6630   -0.5890   -1.3580 ha        1 AM8      0.158000
     51 HBB        10.7030    0.8490    1.3750 ha        1 AM8      0.173000
     52 HBC        11.8310   -1.3770    1.2970 ha        1 AM8      0.165000
     53 HBD        10.9060   -3.2140   -0.0740 ha        1 AM8      0.152000
     54 HAX1        9.3450   -3.8390   -1.6740 hn        1 AM8      0.411800
@<TRIPOS>BOND
     1    1    2 1   
     2    1   32 1   
     3    1   33 1   
     4    1   34 1   
     5    2    3 1   
     6    2    5 2   
     7    3    4 1   
     8    3    8 2   
     9    4   35 1   
    10    4   36 1   
    11    4   37 1   
    12    5    6 1   
    13    5    7 1   
    14    6   38 1   
    15    6   39 1   
    16    6   40 1   
    17    7    8 1   
    18    7   41 1   
    19    8    9 1   
    20    9   10 1   
    21    9   42 1   
    22    9   43 1   
    23   10   11 2   
    24   10   13 1   
    25   11   12 ar  
    26   11   16 ar  
    27   12   19 ar  
    28   12   44 1   
    29   13   14 2   
    30   13   15 1   
    31   15   16 2   
    32   16   17 ar  
    33   17   18 ar  
    34   17   45 1   
    35   18   19 ar  
    36   18   46 1   
    37   19   20 1   
    38   20   21 1   
    39   20   22 1   
    40   23   24 1   
    41   23   25 1   
    42   23   54 1   
    43   24   47 1   
    44   24   48 1   
    45   24   49 1   
    46   25   26 ar  
    47   25   31 ar  
    48   26   27 ar  
    49   26   50 1   
    50   27   28 1   
    51   27   29 ar  
    52   29   30 ar  
    53   29   51 1   
    54   30   31 ar  
    55   30   52 1   
    56   31   53 1   
@<TRIPOS>SUBSTRUCTURE
     1 AM8         1 TEMP              0 ****  ****    0 ROOT
