@<TRIPOS>MOLECULE
AM8
   53    44     1     0     0
SMALL
bcc


@<TRIPOS>ATOM
      1 CAA         3.3000   -5.5740    1.9920 c3        1 AM8     -0.144000
      2 CAC         2.0470   -5.1410    1.2520 c2        1 AM8     -0.139000
      3 CAD         1.5980   -3.8600    1.1310 c1        1 AM8     -0.115000
      4 CAE         2.3560   -2.5940    1.5650 c2        1 AM8     -0.152000
      5 CAF         1.0560   -5.9890    0.7670 c1        1 AM8     -0.063000
      6 CAG         1.1520   -7.5200    0.6610 c2        1 AM8     -0.152000
      7 NAH         0.0010   -5.2170    0.3510 n2        1 AM8     -0.159000
      8 CAI         0.3240   -3.9020    0.5700 c1        1 AM8     -0.115000
      9 CAJ        -0.5250   -2.6730    0.1430 c2        1 AM8     -0.057000
     10 CAK        -0.6930   -1.7310    1.3300 c1        1 AM8     -0.046000
     11 CAL        -0.9870   -0.3600    1.2330 c1        1 AM8     -0.162000
     12 CAM        -1.1860    0.4150   -0.0720 c2        1 AM8      0.093000
     13 CAN        -0.5650   -2.1540    2.8450 c1        1 AM8      0.266000
     14 OAO        -0.8580   -3.2280    3.3090 o         1 AM8     -0.228000
     15 NAP        -0.8490   -0.7360    3.5140 n1        1 AM8     -0.180000
     16 CAQ        -1.0790    0.2150    2.4350 c1        1 AM8      0.097000
     17 CAR        -1.3910    1.7040    2.6200 c1        1 AM8     -0.082000
     18 CAS        -1.6040    2.5670    1.3820 c1        1 AM8     -0.082000
     19 CAT        -1.5020    1.9140    0.0020 c1        1 AM8     -0.826000
     20 SAU        -2.1470    2.7680   -1.4410 s4        1 AM8      2.063800
     21 OAV        -2.8200    1.8670   -2.3160 o         1 AM8     -0.527400
     22 OAW        -3.2250    3.6670   -1.0810 o         1 AM8     -0.527400
     23 NAX        -0.8920    3.6010   -2.2510 n2        1 AM8     -0.772000
     24 CBE        -0.0290    2.8880   -3.1540 c3        1 AM8     -0.076000
     25 CAY        -0.8190    5.0510   -2.1770 c2        1 AM8      0.091000
     26 CAZ        -0.1210    5.7610   -3.1500 c2        1 AM8     -0.157000
     27 CBA         0.0080    7.1410   -3.0460 c1        1 AM8     -0.039000
     28 CLBM        0.7170    8.0500   -4.3590 cl        1 AM8     -0.011000
     29 CBB        -0.5570    7.8060   -1.9750 c2        1 AM8     -0.141000
     30 CBC        -1.2530    7.0970   -1.0040 c1        1 AM8     -0.093000
     31 CBD        -1.3810    5.7170   -1.1100 c1        1 AM8     -0.161000
     32 HAA1        3.3120   -6.5440    2.0700 hc        1 AM8      0.077667
     33 HAA2        4.0940   -5.2760    1.4960 hc        1 AM8      0.077667
     34 HAA3        3.3050   -5.1740    2.8900 hc        1 AM8      0.077667
     35 HAE1        3.3350   -2.7760    1.5610 ha        1 AM8      0.083167
     36 HAE2        2.1560   -1.8590    0.9390 ha        1 AM8      0.083167
     37 HAE3        2.0770   -2.3420    2.4610 ha        1 AM8      0.083167
     38 HAG1        1.9060   -7.7620    0.0780 ha        1 AM8      0.083167
     39 HAG2        1.2910   -7.8940    1.5380 ha        1 AM8      0.083167
     40 HAG3        0.3250   -7.8730    0.2850 ha        1 AM8      0.083167
     41 HNAH       -0.7620   -5.5180   -0.0010 DU        1 AM8      0.262000
     42 HAJ1       -0.0740   -2.2030   -0.5830 ha        1 AM8      0.120500
     43 HAJ2       -1.4140   -2.9770   -0.1640 ha        1 AM8      0.120500
     44 HAM        -1.1130   -0.0390   -0.9400 ha        1 AM8      0.165000
     45 HAR        -1.4490    2.0900    3.5070 ha        1 AM8      0.161500
     46 HAS        -1.8070    3.5330    1.4690 ha        1 AM8      0.161500
     47 HBE1        0.8350    3.3650   -3.2320 h1        1 AM8      0.090000
     48 HBE2       -0.4520    2.8340   -4.0340 h1        1 AM8      0.090000
     49 HBE3        0.1260    1.9930   -2.8140 h1        1 AM8      0.090000
     50 HAZ         0.2240    5.3060   -3.9170 ha        1 AM8      0.152000
     51 HBB        -0.4680    8.7760   -1.9000 ha        1 AM8      0.152000
     52 HBC        -1.6520    7.5670   -0.2470 ha        1 AM8      0.144000
     53 HBD        -1.8710    5.2190   -0.4280 ha        1 AM8      0.152000
@<TRIPOS>BOND
     1    1    2 1   
     2    1   32 1   
     3    1   33 1   
     4    1   34 1   
     5    2    3 1   
     6    2    5 1   
     7    3    8 1   
     8    4   35 1   
     9    4   36 1   
    10    4   37 1   
    11    5    7 1   
    12    6   38 1   
    13    6   39 1   
    14    6   40 1   
    15    7    8 1   
    16    9   10 1   
    17    9   42 1   
    18    9   43 1   
    19   10   11 1   
    20   11   12 1   
    21   12   19 1   
    22   12   44 1   
    23   13   14 1   
    24   15   16 1   
    25   17   18 1   
    26   17   45 1   
    27   18   46 1   
    28   19   20 1   
    29   20   21 1   
    30   20   22 1   
    31   23   24 1   
    32   23   25 1   
    33   24   47 1   
    34   24   48 1   
    35   24   49 1   
    36   25   26 1   
    37   25   31 1   
    38   26   27 1   
    39   26   50 1   
    40   27   29 1   
    41   29   30 1   
    42   29   51 1   
    43   30   52 1   
    44   31   53 1   
@<TRIPOS>SUBSTRUCTURE
     1 AM8         1 TEMP              0 ****  ****    0 ROOT
