@<TRIPOS>MOLECULE
AM8
   53    56     1     0     0
SMALL
bcc


@<TRIPOS>ATOM
      1 CAA         0.2930    0.1980   -0.2220 c3        1 AM8     -0.019800
      2 CAC         1.7360    0.0780   -0.0100 cc        1 AM8     -0.146300
      3 CAD         2.4070   -0.0010    1.2600 cc        1 AM8     -0.102300
      4 CAE         1.7750    0.0360    2.5800 c3        1 AM8     -0.034800
      5 CAF         2.7270    0.0070   -1.0120 cd        1 AM8     -0.093600
      6 CAG         2.5580    0.0390   -2.4760 c3        1 AM8     -0.034800
      7 NAH         3.9690   -0.1130   -0.3910 na        1 AM8     -0.170100
      8 CAI         3.7860   -0.1110    0.9940 cd        1 AM8     -0.150600
      9 CAJ         4.8980   -0.2020    1.9700 c3        1 AM8      0.029100
     10 CAK         5.3170   -1.5920    2.1980 cc        1 AM8     -0.059400
     11 CAL         6.1270   -2.4300    1.4970 ca        1 AM8     -0.170000
     12 CAM         6.8860   -2.2940    0.2960 ca        1 AM8      0.101000
     13 CAN         4.8400   -2.4100    3.4260 c         1 AM8      0.656700
     14 OAO         4.1060   -1.9880    4.3110 o         1 AM8     -0.440100
     15 NAP         5.4280   -3.7440    3.3370 nc        1 AM8     -0.317400
     16 CAQ         6.1550   -3.7520    2.2400 ca        1 AM8      0.092000
     17 CAR         6.9450   -4.8190    1.6580 ca        1 AM8     -0.134000
     18 CAS         7.6220   -4.6020    0.5090 ca        1 AM8     -0.032000
     19 CAT         7.6170   -3.3330   -0.1910 ca        1 AM8     -0.390500
     20 SAU         8.4890   -3.2100   -1.6350 sy        1 AM8      1.506200
     21 OAV         8.4720   -4.4560   -2.2920 o         1 AM8     -0.645300
     22 OAW         7.9620   -2.1140   -2.3500 o         1 AM8     -0.645300
     23 NAX        10.0190   -2.8940   -1.1260 nh        1 AM8     -0.677900
     24 CBE        11.0300   -3.9160   -1.1990 c3        1 AM8      0.195100
     25 CAY        10.4010   -1.6880   -0.4950 ca        1 AM8      0.147600
     26 CAZ        10.0130   -0.4420   -1.0370 ca        1 AM8     -0.158000
     27 CBA        10.3940    0.7370   -0.3940 ca        1 AM8      0.031400
     28 CLBM        9.9060    2.2290   -1.0460 cl        1 AM8     -0.083400
     29 CBB        11.1710    0.7130    0.7670 ca        1 AM8     -0.133000
     30 CBC        11.5660   -0.5160    1.2900 ca        1 AM8     -0.107000
     31 CBD        11.1900   -1.7060    0.6760 ca        1 AM8     -0.146000
     32 HAA1        0.0680    0.9000   -1.0640 hc        1 AM8      0.039033
     33 HAA2       -0.1520   -0.7990   -0.4730 hc        1 AM8      0.039033
     34 HAA3       -0.2090    0.5820    0.7010 hc        1 AM8      0.039033
     35 HAE1        1.6650    1.0940    2.9300 hc        1 AM8      0.046700
     36 HAE2        2.3860   -0.5220    3.3360 hc        1 AM8      0.046700
     37 HAE3        0.7560   -0.4260    2.5410 hc        1 AM8      0.046700
     38 HAG1        1.4860    0.2380   -2.7200 hc        1 AM8      0.051033
     39 HAG2        3.1850    0.8430   -2.9380 hc        1 AM8      0.051033
     40 HAG3        2.8500   -0.9410   -2.9310 hc        1 AM8      0.051033
     41 HNAH        4.8360   -0.1580   -0.8560 hn        1 AM8      0.292700
     42 HAJ1        5.7800    0.4060    1.6240 hc        1 AM8      0.082200
     43 HAJ2        4.5390    0.2380    2.9460 hc        1 AM8      0.082200
     44 HAM         6.8560   -1.3210   -0.2320 ha        1 AM8      0.155000
     45 HAR         6.9600   -5.7920    2.1730 ha        1 AM8      0.166000
     46 HAS         8.2020   -5.4190    0.0430 ha        1 AM8      0.156000
     47 HBE1       11.0850   -4.4950   -0.2360 h1        1 AM8      0.055700
     48 HBE2       10.7870   -4.6270   -2.0370 h1        1 AM8      0.055700
     49 HBE3       12.0350   -3.4580   -1.3960 h1        1 AM8      0.055700
     50 HAZ         9.4100   -0.3910   -1.9620 ha        1 AM8      0.183000
     51 HBB        11.4700    1.6500    1.2600 ha        1 AM8      0.153000
     52 HBC        12.1820   -0.5470    2.2010 ha        1 AM8      0.143000
     53 HBD        11.5180   -2.6640    1.1100 ha        1 AM8      0.143000
@<TRIPOS>BOND
     1    1    2 1   
     2    1   32 1   
     3    1   33 1   
     4    1   34 1   
     5    2    3 1   
     6    2    5 2   
     7    3    4 1   
     8    3    8 2   
     9    4   35 1   
    10    4   36 1   
    11    4   37 1   
    12    5    6 1   
    13    5    7 1   
    14    6   38 1   
    15    6   39 1   
    16    6   40 1   
    17    7    8 1   
    18    7   41 1   
    19    8    9 1   
    20    9   10 1   
    21    9   42 1   
    22    9   43 1   
    23   10   11 2   
    24   10   13 1   
    25   11   12 ar  
    26   11   16 ar  
    27   12   19 ar  
    28   12   44 1   
    29   13   14 2   
    30   13   15 1   
    31   15   16 2   
    32   16   17 ar  
    33   17   18 ar  
    34   17   45 1   
    35   18   19 ar  
    36   18   46 1   
    37   19   20 1   
    38   20   21 2   
    39   20   22 2   
    40   20   23 1   
    41   23   24 1   
    42   23   25 1   
    43   24   47 1   
    44   24   48 1   
    45   24   49 1   
    46   25   26 ar  
    47   25   31 ar  
    48   26   27 ar  
    49   26   50 1   
    50   27   28 1   
    51   27   29 ar  
    52   29   30 ar  
    53   29   51 1   
    54   30   31 ar  
    55   30   52 1   
    56   31   53 1   
@<TRIPOS>SUBSTRUCTURE
     1 AM8         1 TEMP              0 ****  ****    0 ROOT
