@<TRIPOS>MOLECULE
AM8
   53    56     1     0     0
SMALL
bcc


@<TRIPOS>ATOM
      1 CAA         6.5770   -0.8860   -1.3820 c3        1 AM8     -0.018800
      2 CAC         5.1840   -0.8970   -0.9330 cc        1 AM8     -0.145300
      3 CAD         4.7150   -0.6540    0.4050 cc        1 AM8     -0.101300
      4 CAE         5.5360   -0.3450    1.5770 c3        1 AM8     -0.034800
      5 CAF         4.0520   -1.1570   -1.7330 cd        1 AM8     -0.093600
      6 CAG         3.9940   -1.4700   -3.1730 c3        1 AM8     -0.034800
      7 NAH         2.9180   -1.0780   -0.9270 na        1 AM8     -0.170100
      8 CAI         3.3110   -0.7780    0.3800 cd        1 AM8     -0.150600
      9 CAJ         2.3630   -0.6370    1.5100 c3        1 AM8      0.029100
     10 CAK         1.7750    0.7090    1.5710 cc        1 AM8     -0.059400
     11 CAL         0.7530    1.2940    0.8900 ca        1 AM8     -0.170000
     12 CAM        -0.1440    0.8410   -0.1240 ca        1 AM8      0.102000
     13 CAN         2.2970    1.7960    2.5460 c         1 AM8      0.656700
     14 OAO         3.2080    1.6410    3.3500 o         1 AM8     -0.440100
     15 NAP         1.5070    3.0070    2.3380 nc        1 AM8     -0.317400
     16 CAQ         0.6340    2.7180    1.3970 ca        1 AM8      0.092000
     17 CAR        -0.3850    3.5500    0.7890 ca        1 AM8     -0.134000
     18 CAS        -1.1820    3.0390   -0.1750 ca        1 AM8     -0.032000
     19 CAT        -1.0880    1.6710   -0.6440 ca        1 AM8     -0.390500
     20 SAU        -2.1320    1.1720   -1.8770 sy        1 AM8      1.506200
     21 OAV        -2.4010    2.2640   -2.7250 o         1 AM8     -0.645300
     22 OAW        -1.5560    0.0330   -2.4780 o         1 AM8     -0.645300
     23 NAX        -3.5060    0.7720   -1.0680 nh        1 AM8     -0.677900
     24 CBE        -4.6590    1.6310   -1.1350 c3        1 AM8      0.195100
     25 CAY        -3.6040   -0.3310   -0.1890 ca        1 AM8      0.147600
     26 CAZ        -3.1150   -1.5990   -0.5740 ca        1 AM8     -0.159000
     27 CBA        -3.2140   -2.6730    0.3120 ca        1 AM8      0.031400
     28 CLBM       -2.6070   -4.1900   -0.1560 cl        1 AM8     -0.083400
     29 CBB        -3.8080   -2.5270    1.5690 ca        1 AM8     -0.133000
     30 CBC        -4.3040   -1.2790    1.9390 ca        1 AM8     -0.107000
     31 CBD        -4.2070   -0.1890    1.0810 ca        1 AM8     -0.146000
     32 HAA1        6.9810   -1.9290   -1.4330 hc        1 AM8      0.038700
     33 HAA2        6.6660   -0.4290   -2.4000 hc        1 AM8      0.038700
     34 HAA3        7.2170   -0.2990   -0.6760 hc        1 AM8      0.038700
     35 HAE1        4.9540    0.2400    2.3350 hc        1 AM8      0.046367
     36 HAE2        5.8940   -1.2890    2.0620 hc        1 AM8      0.046367
     37 HAE3        6.4330    0.2570    1.2830 hc        1 AM8      0.046367
     38 HAG1        3.6710   -2.5290   -3.3360 hc        1 AM8      0.051367
     39 HAG2        3.2780   -0.7960   -3.7060 hc        1 AM8      0.051367
     40 HAG3        5.0100   -1.3370   -3.6210 hc        1 AM8      0.051367
     41 HNAH        1.9930   -1.2300   -1.2290 hn        1 AM8      0.292700
     42 HAJ1        1.5400   -1.4040    1.4360 hc        1 AM8      0.082200
     43 HAJ2        2.9300   -0.8340    2.4660 hc        1 AM8      0.082200
     44 HAM        -0.0440   -0.2030   -0.4790 ha        1 AM8      0.155000
     45 HAR        -0.4710    4.5940    1.1290 ha        1 AM8      0.166000
     46 HAS        -1.9410    3.6770   -0.6650 ha        1 AM8      0.156000
     47 HBE1       -4.6600    2.3690   -0.2870 h1        1 AM8      0.055700
     48 HBE2       -4.6520    2.1950   -2.1080 h1        1 AM8      0.055700
     49 HBE3       -5.6020    1.0240   -1.0790 h1        1 AM8      0.055700
     50 HAZ        -2.6540   -1.7490   -1.5670 ha        1 AM8      0.183000
     51 HBB        -3.8860   -3.3830    2.2550 ha        1 AM8      0.153000
     52 HBC        -4.7780   -1.1530    2.9250 ha        1 AM8      0.143000
     53 HBD        -4.6090    0.7860    1.3980 ha        1 AM8      0.143000
@<TRIPOS>BOND
     1    1    2 1   
     2    1   32 1   
     3    1   33 1   
     4    1   34 1   
     5    2    3 1   
     6    2    5 2   
     7    3    4 1   
     8    3    8 2   
     9    4   35 1   
    10    4   36 1   
    11    4   37 1   
    12    5    6 1   
    13    5    7 1   
    14    6   38 1   
    15    6   39 1   
    16    6   40 1   
    17    7    8 1   
    18    7   41 1   
    19    8    9 1   
    20    9   10 1   
    21    9   42 1   
    22    9   43 1   
    23   10   11 2   
    24   10   13 1   
    25   11   12 ar  
    26   11   16 ar  
    27   12   19 ar  
    28   12   44 1   
    29   13   14 2   
    30   13   15 1   
    31   15   16 2   
    32   16   17 ar  
    33   17   18 ar  
    34   17   45 1   
    35   18   19 ar  
    36   18   46 1   
    37   19   20 1   
    38   20   21 2   
    39   20   22 2   
    40   20   23 1   
    41   23   24 1   
    42   23   25 1   
    43   24   47 1   
    44   24   48 1   
    45   24   49 1   
    46   25   26 ar  
    47   25   31 ar  
    48   26   27 ar  
    49   26   50 1   
    50   27   28 1   
    51   27   29 ar  
    52   29   30 ar  
    53   29   51 1   
    54   30   31 ar  
    55   30   52 1   
    56   31   53 1   
@<TRIPOS>SUBSTRUCTURE
     1 AM8         1 TEMP              0 ****  ****    0 ROOT
