@<TRIPOS>MOLECULE
AM9
   71    77     1     0     0
SMALL
bcc


@<TRIPOS>ATOM
      1 C1          0.0510    1.8930   -0.2460 ca        1 AM9      0.775900
      2 N1          1.0540    0.9730   -0.2330 nb        1 AM9     -0.732000
      3 C2          1.7460    0.8780    0.9600 ca        1 AM9      0.633800
      4 C3          1.3940    1.7120    2.0780 ca        1 AM9     -0.404200
      5 C4          0.3370    2.6230    1.9110 ca        1 AM9      0.542200
      6 N2         -0.3530    2.7370    0.7590 nb        1 AM9     -0.713000
      7 N3         -0.7270    1.9880   -1.5300 n4        1 AM9     -0.588100
      8 C5         -1.9460    1.1850   -1.4720 ca        1 AM9     -0.167400
      9 C6         -3.1170    1.7200   -0.9030 ca        1 AM9     -0.031500
     10 C7         -4.2750    0.9720   -0.8710 ca        1 AM9     -0.208000
     11 C8         -4.3180   -0.3650   -1.3780 ca        1 AM9      0.256600
     12 C9         -3.1140   -0.8720   -1.9600 ca        1 AM9     -0.208000
     13 C10        -1.9560   -0.1230   -1.9920 ca        1 AM9     -0.031500
     14 N4          2.7840   -0.0040    1.1190 na        1 AM9     -0.215100
     15 C11         3.5170   -0.1100    2.3930 cc        1 AM9      0.509400
     16 N5          3.1500    0.6980    3.4810 n         1 AM9     -0.269500
     17 C12         2.1090    1.6350    3.3720 c         1 AM9      0.734100
     18 C13         3.3940   -0.9390    0.2480 ca        1 AM9     -0.072200
     19 C14         4.4520   -1.5610    1.0190 ca        1 AM9      0.100400
     20 N6          4.5000   -1.0280    2.3330 nd        1 AM9     -0.528100
     21 C15         3.1530   -1.2970   -1.0750 ca        1 AM9     -0.105000
     22 C16         3.9740   -2.2820   -1.6300 ca        1 AM9     -0.116000
     23 C17         4.9970   -2.8890   -0.8960 ca        1 AM9     -0.117000
     24 C18         5.2520   -2.5420    0.4310 ca        1 AM9     -0.068000
     25 O1          1.7970    2.3690    4.3210 o         1 AM9     -0.558500
     26 C19         3.8910    0.5600    4.7030 ca        1 AM9      0.012600
     27 C20         4.9780    1.4260    4.9660 ca        1 AM9     -0.035300
     28 C21         5.6860    1.2760    6.1620 ca        1 AM9     -0.129500
     29 C22         5.3330    0.2920    7.0820 ca        1 AM9     -0.093000
     30 C23         4.2610   -0.5560    6.8190 ca        1 AM9     -0.129500
     31 C24         3.5260   -0.4380    5.6350 ca        1 AM9     -0.035300
     32 C25         2.3890   -1.3560    5.3890 c3        1 AM9     -0.061300
     33 C26         5.3730    2.4890    4.0120 c3        1 AM9     -0.061300
     34 N7         -5.4490   -1.1430   -1.2680 nh        1 AM9     -0.629000
     35 C27        -6.6930   -0.5130   -0.8650 c3        1 AM9      0.201800
     36 C28        -7.8740   -1.4730   -0.6270 c3        1 AM9      0.157800
     37 N8         -7.9680   -2.5100   -1.6400 n3        1 AM9     -0.728600
     38 C29        -6.7370   -3.2780   -1.6930 c3        1 AM9      0.157800
     39 C30        -5.5010   -2.4050   -1.9820 c3        1 AM9      0.201800
     40 C31        -9.1460   -3.3360   -1.4980 c3        1 AM9      0.153100
     41 H4          0.0310    3.2940    2.7440 h4        1 AM9      0.090100
     42 HN3        -0.1390    1.6590   -2.3070 hn        1 AM9      0.473300
     43 H6         -3.1240    2.7400   -0.4790 ha        1 AM9      0.153500
     44 H7         -5.1760    1.4380   -0.4390 ha        1 AM9      0.162000
     45 H9         -3.0850   -1.8810   -2.4020 ha        1 AM9      0.162000
     46 H10        -1.0460   -0.5630   -2.4360 ha        1 AM9      0.153500
     47 H15         2.3570   -0.8350   -1.6710 ha        1 AM9      0.143000
     48 H16         3.8080   -2.5850   -2.6760 ha        1 AM9      0.146000
     49 H17         5.6200   -3.6600   -1.3770 ha        1 AM9      0.153000
     50 H18         6.0600   -3.0230    1.0020 ha        1 AM9      0.169000
     51 H21         6.5340    1.9460    6.3750 ha        1 AM9      0.146000
     52 H22         5.9020    0.1850    8.0180 ha        1 AM9      0.146000
     53 H23         3.9840   -1.3310    7.5510 ha        1 AM9      0.146000
     54 H25         1.4380   -0.7780    5.2710 hc        1 AM9      0.051367
     55 H25A        2.5620   -1.9530    4.4580 hc        1 AM9      0.051367
     56 H25B        2.2570   -2.0710    6.2390 hc        1 AM9      0.051367
     57 H26         4.5160    3.1850    3.8300 hc        1 AM9      0.051367
     58 H26A        6.2300    3.0880    4.4090 hc        1 AM9      0.051367
     59 H26B        5.6850    2.0410    3.0350 hc        1 AM9      0.051367
     60 H27        -6.9930    0.2450   -1.6450 h1        1 AM9      0.056450
     61 H27A       -6.5190    0.0260    0.1120 h1        1 AM9      0.056450
     62 H28        -7.7820   -1.9070    0.4110 h1        1 AM9      0.052950
     63 H28A       -8.8160   -0.8560   -0.6620 h1        1 AM9      0.052950
     64 H29        -6.8200   -4.0250   -2.5330 h1        1 AM9      0.052950
     65 H29A       -6.5570   -3.8510   -0.7360 h1        1 AM9      0.052950
     66 H30        -5.4510   -2.2040   -3.0920 h1        1 AM9      0.056450
     67 H30A       -4.6010   -3.0190   -1.6870 h1        1 AM9      0.056450
     68 H31       -10.0530   -2.6770   -1.5410 h1        1 AM9      0.045033
     69 H31A       -9.1680   -3.9170   -0.5360 h1        1 AM9      0.045033
     70 H31B       -9.1840   -4.0570   -2.3560 h1        1 AM9      0.045033
     71 H32        -0.9810    2.9750   -1.6830 hn        1 AM9      0.473300
@<TRIPOS>BOND
     1    1    2 ar  
     2    1    6 ar  
     3    1    7 1   
     4    2    3 ar  
     5    3    4 ar  
     6    3   14 1   
     7    4    5 ar  
     8    4   17 1   
     9    5    6 ar  
    10    5   41 1   
    11    7    8 1   
    12    7   42 1   
    13    7   71 1   
    14    8    9 ar  
    15    8   13 ar  
    16    9   10 ar  
    17    9   43 1   
    18   10   11 ar  
    19   10   44 1   
    20   11   12 ar  
    21   11   34 1   
    22   12   13 ar  
    23   12   45 1   
    24   13   46 1   
    25   14   15 1   
    26   14   18 1   
    27   15   16 1   
    28   15   20 2   
    29   16   17 1   
    30   16   26 1   
    31   17   25 2   
    32   18   19 ar  
    33   18   21 ar  
    34   19   20 1   
    35   19   24 ar  
    36   21   22 ar  
    37   21   47 1   
    38   22   23 ar  
    39   22   48 1   
    40   23   24 ar  
    41   23   49 1   
    42   24   50 1   
    43   26   27 ar  
    44   26   31 ar  
    45   27   28 ar  
    46   27   33 1   
    47   28   29 ar  
    48   28   51 1   
    49   29   30 ar  
    50   29   52 1   
    51   30   31 ar  
    52   30   53 1   
    53   31   32 1   
    54   32   54 1   
    55   32   55 1   
    56   32   56 1   
    57   33   57 1   
    58   33   58 1   
    59   33   59 1   
    60   34   35 1   
    61   34   39 1   
    62   35   36 1   
    63   35   60 1   
    64   35   61 1   
    65   36   37 1   
    66   36   62 1   
    67   36   63 1   
    68   37   38 1   
    69   37   40 1   
    70   38   39 1   
    71   38   64 1   
    72   38   65 1   
    73   39   66 1   
    74   39   67 1   
    75   40   68 1   
    76   40   69 1   
    77   40   70 1   
@<TRIPOS>SUBSTRUCTURE
     1 AM9         1 TEMP              0 ****  ****    0 ROOT
