@<TRIPOS>MOLECULE
AM9
   70    76     1     0     0
SMALL
bcc


@<TRIPOS>ATOM
      1 C1         -0.0100   -0.6740    0.2210 ca        1 AM9      0.931900
      2 N1          1.3510   -0.4210    0.0880 nb        1 AM9     -0.804000
      3 C2          2.0590   -0.3050    1.2470 ca        1 AM9      0.641800
      4 C3          1.4370   -0.4140    2.5330 ca        1 AM9     -0.493200
      5 C4          0.0440   -0.6530    2.5410 ca        1 AM9      0.546200
      6 N2         -0.6920   -0.7840    1.4400 nb        1 AM9     -0.753000
      7 N3         -0.7040   -0.8780   -0.9710 nh        1 AM9     -0.701300
      8 C5         -2.1180   -0.8600   -1.0530 ca        1 AM9      0.087600
      9 C6         -2.7560    0.0420   -1.9310 ca        1 AM9     -0.100500
     10 C7         -4.1330    0.0320   -2.0820 ca        1 AM9     -0.162500
     11 C8         -4.9430   -0.8740   -1.3550 ca        1 AM9      0.144600
     12 C9         -4.2930   -1.7750   -0.4820 ca        1 AM9     -0.162500
     13 C10        -2.9120   -1.7700   -0.3320 ca        1 AM9     -0.100500
     14 N4          3.4270   -0.0650    1.2260 na        1 AM9     -0.220100
     15 C11         4.1980    0.0790    2.4520 cc        1 AM9      0.511400
     16 N5          3.5630   -0.0140    3.7010 n         1 AM9     -0.288500
     17 C12         2.1780   -0.2860    3.7900 c         1 AM9      0.751100
     18 C13         4.3500    0.0790    0.1690 ca        1 AM9     -0.058200
     19 C14         5.6380    0.3050    0.7990 ca        1 AM9      0.093400
     20 N6          5.5130    0.3000    2.2080 nd        1 AM9     -0.573100
     21 C15         4.2180    0.0380   -1.2180 ca        1 AM9     -0.100000
     22 C16         5.3730    0.2250   -1.9760 ca        1 AM9     -0.131000
     23 C17         6.6200    0.4450   -1.3790 ca        1 AM9     -0.134000
     24 C18         6.7720    0.4880    0.0030 ca        1 AM9     -0.086000
     25 O1          1.6410   -0.4040    4.9040 o         1 AM9     -0.600500
     26 C19         4.3640    0.1370    4.8780 ca        1 AM9      0.039600
     27 C20         4.6710    1.4300    5.3620 ca        1 AM9     -0.036800
     28 C21         5.4560    1.5550    6.5130 ca        1 AM9     -0.136500
     29 C22         5.9300    0.4300    7.1800 ca        1 AM9     -0.108000
     30 C23         5.6210   -0.8420    6.7070 ca        1 AM9     -0.136500
     31 C24         4.8400   -1.0090    5.5590 ca        1 AM9     -0.036800
     32 C25         4.5180   -2.3760    5.0870 c3        1 AM9     -0.060300
     33 C26         4.1790    2.6500    4.6790 c3        1 AM9     -0.060300
     34 N7         -6.3520   -0.7930   -1.4580 nh        1 AM9     -0.636000
     35 C27        -6.8890   -0.8410   -2.8100 c3        1 AM9      0.186300
     36 C28        -8.3990   -0.5330   -2.8570 c3        1 AM9      0.164800
     37 N8         -9.1710   -1.3380   -1.9220 n3        1 AM9     -0.732600
     38 C29        -8.6270   -1.2810   -0.5730 c3        1 AM9      0.164800
     39 C30        -7.1180   -1.5930   -0.5180 c3        1 AM9      0.186300
     40 C31       -10.5830   -1.0340   -1.9640 c3        1 AM9      0.157100
     41 H4         -0.4910   -0.7380    3.5100 h4        1 AM9      0.058100
     42 HN3        -0.2270   -0.6210   -1.8110 hn        1 AM9      0.450800
     43 H6         -2.1640    0.7690   -2.5100 ha        1 AM9      0.143000
     44 H7         -4.5920    0.7630   -2.7650 ha        1 AM9      0.139500
     45 H9         -4.8700   -2.5090    0.1010 ha        1 AM9      0.139500
     46 H10        -2.4490   -2.4910    0.3600 ha        1 AM9      0.143000
     47 H15         3.2480   -0.1360   -1.7040 ha        1 AM9      0.158000
     48 H16         5.2990    0.1970   -3.0740 ha        1 AM9      0.135000
     49 H17         7.5030    0.5870   -2.0210 ha        1 AM9      0.135000
     50 H18         7.7550    0.6610    0.4650 ha        1 AM9      0.152000
     51 H21         5.7000    2.5590    6.8920 ha        1 AM9      0.135000
     52 H22         6.5470    0.5450    8.0830 ha        1 AM9      0.133000
     53 H23         5.9940   -1.7300    7.2390 ha        1 AM9      0.135000
     54 H25         3.4070   -2.5180    5.0520 hc        1 AM9      0.050700
     55 H25A        4.9490   -3.1510    5.7670 hc        1 AM9      0.050700
     56 H25B        4.9300   -2.5430    4.0600 hc        1 AM9      0.050700
     57 H26         4.5660    2.6920    3.6300 hc        1 AM9      0.050700
     58 H26A        4.5160    3.5730    5.2130 hc        1 AM9      0.050700
     59 H26B        3.0610    2.6540    4.6460 hc        1 AM9      0.050700
     60 H27        -6.7110   -1.8520   -3.2790 h1        1 AM9      0.045200
     61 H27A       -6.3660   -0.0680   -3.4390 h1        1 AM9      0.045200
     62 H28        -8.7620   -0.7690   -3.8960 h1        1 AM9      0.040200
     63 H28A       -8.5490    0.5730   -2.6790 h1        1 AM9      0.040200
     64 H29        -9.1570   -2.0590    0.0450 h1        1 AM9      0.040200
     65 H29A       -8.8060   -0.2750   -0.0920 h1        1 AM9      0.040200
     66 H30        -6.9730   -2.6980   -0.7010 h1        1 AM9      0.045200
     67 H30A       -6.7590   -1.3550    0.5230 h1        1 AM9      0.045200
     68 H31       -10.8230    0.0170   -1.6440 h1        1 AM9      0.033700
     69 H31A      -10.9520   -1.1810   -3.0130 h1        1 AM9      0.033700
     70 H31B      -11.1240   -1.7460   -1.2870 h1        1 AM9      0.033700
@<TRIPOS>BOND
     1    1    2 ar  
     2    1    6 ar  
     3    1    7 1   
     4    2    3 ar  
     5    3    4 ar  
     6    3   14 1   
     7    4    5 ar  
     8    4   17 1   
     9    5    6 ar  
    10    5   41 1   
    11    7    8 1   
    12    7   42 1   
    13    8    9 ar  
    14    8   13 ar  
    15    9   10 ar  
    16    9   43 1   
    17   10   11 ar  
    18   10   44 1   
    19   11   12 ar  
    20   11   34 1   
    21   12   13 ar  
    22   12   45 1   
    23   13   46 1   
    24   14   15 1   
    25   14   18 1   
    26   15   16 1   
    27   15   20 2   
    28   16   17 1   
    29   16   26 1   
    30   17   25 2   
    31   18   19 ar  
    32   18   21 ar  
    33   19   20 1   
    34   19   24 ar  
    35   21   22 ar  
    36   21   47 1   
    37   22   23 ar  
    38   22   48 1   
    39   23   24 ar  
    40   23   49 1   
    41   24   50 1   
    42   26   27 ar  
    43   26   31 ar  
    44   27   28 ar  
    45   27   33 1   
    46   28   29 ar  
    47   28   51 1   
    48   29   30 ar  
    49   29   52 1   
    50   30   31 ar  
    51   30   53 1   
    52   31   32 1   
    53   32   54 1   
    54   32   55 1   
    55   32   56 1   
    56   33   57 1   
    57   33   58 1   
    58   33   59 1   
    59   34   35 1   
    60   34   39 1   
    61   35   36 1   
    62   35   60 1   
    63   35   61 1   
    64   36   37 1   
    65   36   62 1   
    66   36   63 1   
    67   37   38 1   
    68   37   40 1   
    69   38   39 1   
    70   38   64 1   
    71   38   65 1   
    72   39   66 1   
    73   39   67 1   
    74   40   68 1   
    75   40   69 1   
    76   40   70 1   
@<TRIPOS>SUBSTRUCTURE
     1 AM9         1 TEMP              0 ****  ****    0 ROOT
