@<TRIPOS>MOLECULE
AM9
   70    76     1     0     0
SMALL
bcc


@<TRIPOS>ATOM
      1 C1         -0.0100   -0.6720    0.2210 ca        1 AM9      0.931900
      2 N1          1.3510   -0.4200    0.0880 nb        1 AM9     -0.804000
      3 C2          2.0590   -0.3050    1.2470 ca        1 AM9      0.641800
      4 C3          1.4370   -0.4140    2.5330 ca        1 AM9     -0.493200
      5 C4          0.0430   -0.6510    2.5410 ca        1 AM9      0.546200
      6 N2         -0.6920   -0.7810    1.4400 nb        1 AM9     -0.753000
      7 N3         -0.7050   -0.8760   -0.9710 nu        1 AM9     -0.701300
      8 C5         -2.1180   -0.8580   -1.0530 ca        1 AM9      0.086600
      9 C6         -2.7560    0.0440   -1.9320 ca        1 AM9     -0.100500
     10 C7         -4.1340    0.0340   -2.0820 ca        1 AM9     -0.162500
     11 C8         -4.9430   -0.8720   -1.3550 ca        1 AM9      0.144600
     12 C9         -4.2940   -1.7720   -0.4820 ca        1 AM9     -0.162500
     13 C10        -2.9120   -1.7670   -0.3310 ca        1 AM9     -0.100500
     14 N4          3.4270   -0.0660    1.2260 na        1 AM9     -0.220100
     15 C11         4.1990    0.0770    2.4520 cc        1 AM9      0.511400
     16 N5          3.5630   -0.0150    3.7010 n         1 AM9     -0.288500
     17 C12         2.1780   -0.2860    3.7900 c         1 AM9      0.751100
     18 C13         4.3500    0.0760    0.1690 ca        1 AM9     -0.058200
     19 C14         5.6380    0.3010    0.7990 ca        1 AM9      0.093400
     20 N6          5.5140    0.2960    2.2080 nd        1 AM9     -0.573100
     21 C15         4.2180    0.0350   -1.2180 ca        1 AM9     -0.100000
     22 C16         5.3730    0.2200   -1.9760 ca        1 AM9     -0.131000
     23 C17         6.6210    0.4390   -1.3790 ca        1 AM9     -0.134000
     24 C18         6.7730    0.4820    0.0030 ca        1 AM9     -0.086000
     25 O1          1.6400   -0.4030    4.9040 o         1 AM9     -0.600500
     26 C19         4.3640    0.1350    4.8780 ca        1 AM9      0.039600
     27 C20         4.6730    1.4280    5.3620 ca        1 AM9     -0.036800
     28 C21         5.4580    1.5530    6.5120 ca        1 AM9     -0.136500
     29 C22         5.9300    0.4270    7.1800 ca        1 AM9     -0.108000
     30 C23         5.6200   -0.8440    6.7080 ca        1 AM9     -0.136500
     31 C24         4.8390   -1.0110    5.5600 ca        1 AM9     -0.036800
     32 C25         4.5140   -2.3780    5.0880 c3        1 AM9     -0.060300
     33 C26         4.1830    2.6490    4.6780 c3        1 AM9     -0.060300
     34 N7         -6.3520   -0.7900   -1.4580 nh        1 AM9     -0.636000
     35 C27        -6.8890   -0.8390   -2.8110 c3        1 AM9      0.186300
     36 C28        -8.3990   -0.5310   -2.8570 c3        1 AM9      0.164800
     37 N8         -9.1710   -1.3360   -1.9220 n3        1 AM9     -0.732600
     38 C29        -8.6280   -1.2770   -0.5730 c3        1 AM9      0.164800
     39 C30        -7.1190   -1.5900   -0.5180 c3        1 AM9      0.186300
     40 C31       -10.5830   -1.0320   -1.9640 c3        1 AM9      0.157100
     41 H4         -0.4920   -0.7350    3.5100 h4        1 AM9      0.058100
     42 HN3        -0.2270   -0.6200   -1.8110 hn        1 AM9      0.450800
     43 H6         -2.1640    0.7700   -2.5110 ha        1 AM9      0.143000
     44 H7         -4.5920    0.7650   -2.7670 ha        1 AM9      0.139500
     45 H9         -4.8710   -2.5060    0.1020 ha        1 AM9      0.139500
     46 H10        -2.4500   -2.4890    0.3610 ha        1 AM9      0.143000
     47 H15         3.2480   -0.1370   -1.7040 ha        1 AM9      0.158000
     48 H16         5.3000    0.1920   -3.0740 ha        1 AM9      0.135000
     49 H17         7.5040    0.5790   -2.0210 ha        1 AM9      0.135000
     50 H18         7.7560    0.6530    0.4650 ha        1 AM9      0.152000
     51 H21         5.7030    2.5570    6.8910 ha        1 AM9      0.135000
     52 H22         6.5480    0.5430    8.0830 ha        1 AM9      0.133000
     53 H23         5.9910   -1.7320    7.2400 ha        1 AM9      0.135000
     54 H25         4.9270   -2.5460    4.0620 hc        1 AM9      0.050700
     55 H25A        4.9450   -3.1520    5.7690 hc        1 AM9      0.050700
     56 H25B        3.4040   -2.5180    5.0530 hc        1 AM9      0.050700
     57 H26         3.0640    2.6540    4.6440 hc        1 AM9      0.050700
     58 H26A        4.5700    2.6900    3.6290 hc        1 AM9      0.050700
     59 H26B        4.5200    3.5720    5.2110 hc        1 AM9      0.050700
     60 H27        -6.7110   -1.8510   -3.2790 h1        1 AM9      0.045200
     61 H27A       -6.3660   -0.0670   -3.4400 h1        1 AM9      0.045200
     62 H28        -8.5490    0.5750   -2.6810 h1        1 AM9      0.040200
     63 H28A       -8.7620   -0.7680   -3.8960 h1        1 AM9      0.040200
     64 H29        -9.1580   -2.0540    0.0460 h1        1 AM9      0.040200
     65 H29A       -8.8060   -0.2700   -0.0930 h1        1 AM9      0.040200
     66 H30        -6.9740   -2.6940   -0.7000 h1        1 AM9      0.045200
     67 H30A       -6.7600   -1.3510    0.5230 h1        1 AM9      0.045200
     68 H31       -10.9520   -1.1790   -3.0130 h1        1 AM9      0.033700
     69 H31A      -10.8240    0.0200   -1.6450 h1        1 AM9      0.033700
     70 H31B      -11.1250   -1.7430   -1.2870 h1        1 AM9      0.033700
@<TRIPOS>BOND
     1    1    2 ar  
     2    1    6 ar  
     3    1    7 1   
     4    2    3 ar  
     5    3    4 ar  
     6    3   14 1   
     7    4    5 ar  
     8    4   17 1   
     9    5    6 ar  
    10    5   41 1   
    11    7    8 1   
    12    7   42 1   
    13    8    9 ar  
    14    8   13 ar  
    15    9   10 ar  
    16    9   43 1   
    17   10   11 ar  
    18   10   44 1   
    19   11   12 ar  
    20   11   34 1   
    21   12   13 ar  
    22   12   45 1   
    23   13   46 1   
    24   14   15 1   
    25   14   18 1   
    26   15   16 1   
    27   15   20 2   
    28   16   17 1   
    29   16   26 1   
    30   17   25 2   
    31   18   19 ar  
    32   18   21 ar  
    33   19   20 1   
    34   19   24 ar  
    35   21   22 ar  
    36   21   47 1   
    37   22   23 ar  
    38   22   48 1   
    39   23   24 ar  
    40   23   49 1   
    41   24   50 1   
    42   26   27 ar  
    43   26   31 ar  
    44   27   28 ar  
    45   27   33 1   
    46   28   29 ar  
    47   28   51 1   
    48   29   30 ar  
    49   29   52 1   
    50   30   31 ar  
    51   30   53 1   
    52   31   32 1   
    53   32   54 1   
    54   32   55 1   
    55   32   56 1   
    56   33   57 1   
    57   33   58 1   
    58   33   59 1   
    59   34   35 1   
    60   34   39 1   
    61   35   36 1   
    62   35   60 1   
    63   35   61 1   
    64   36   37 1   
    65   36   62 1   
    66   36   63 1   
    67   37   38 1   
    68   37   40 1   
    69   38   39 1   
    70   38   64 1   
    71   38   65 1   
    72   39   66 1   
    73   39   67 1   
    74   40   68 1   
    75   40   69 1   
    76   40   70 1   
@<TRIPOS>SUBSTRUCTURE
     1 AM9         1 TEMP              0 ****  ****    0 ROOT
