@<TRIPOS>MOLECULE
AM9
   70    76     1     0     0
SMALL
bcc


@<TRIPOS>ATOM
      1 C1          0.6940   -0.7050   -0.4080 ca        1 AM9      0.931900
      2 N1         -0.5200   -1.3750   -0.3080 nb        1 AM9     -0.804000
      3 C2         -1.6350   -0.5960   -0.2170 ca        1 AM9      0.641800
      4 C3         -1.5640    0.8350   -0.2030 ca        1 AM9     -0.493200
      5 C4         -0.2720    1.4030   -0.2910 ca        1 AM9      0.546200
      6 N2          0.8460    0.6880   -0.3910 nb        1 AM9     -0.753000
      7 N3          1.8160   -1.5120   -0.5890 nh        1 AM9     -0.701300
      8 C5          3.1410   -1.0400   -0.4230 ca        1 AM9      0.086600
      9 C6          3.9980   -1.6740    0.5020 ca        1 AM9     -0.100500
     10 C7          5.3190   -1.2760    0.6340 ca        1 AM9     -0.162500
     11 C8          5.8470   -0.2200   -0.1470 ca        1 AM9      0.144600
     12 C9          4.9820    0.4030   -1.0730 ca        1 AM9     -0.162500
     13 C10         3.6570    0.0050   -1.2100 ca        1 AM9     -0.100500
     14 N4         -2.8980   -1.1660   -0.1260 na        1 AM9     -0.220100
     15 C11        -4.0990   -0.3510   -0.0110 cc        1 AM9      0.511400
     16 N5         -4.0030    1.0490    0.0190 n         1 AM9     -0.288500
     17 C12        -2.7480    1.6900   -0.1000 c         1 AM9      0.751100
     18 C13        -3.3380   -2.5070   -0.1280 ca        1 AM9     -0.058200
     19 C14        -4.7840   -2.4460   -0.0120 ca        1 AM9      0.093400
     20 N6         -5.2250   -1.1040    0.0580 nd        1 AM9     -0.573100
     21 C15        -2.6670   -3.7250   -0.2150 ca        1 AM9     -0.100000
     22 C16        -3.4400   -4.8840   -0.1860 ca        1 AM9     -0.131000
     23 C17        -4.8350   -4.8380   -0.0740 ca        1 AM9     -0.134000
     24 C18        -5.5230   -3.6320    0.0140 ca        1 AM9     -0.086000
     25 O1         -2.6860    2.9310   -0.1110 o         1 AM9     -0.600500
     26 C19        -5.2120    1.8060    0.1350 ca        1 AM9      0.039600
     27 C20        -5.7880    2.0250    1.4090 ca        1 AM9     -0.036800
     28 C21        -6.9710    2.7660    1.5010 ca        1 AM9     -0.136500
     29 C22        -7.5770    3.2870    0.3620 ca        1 AM9     -0.108000
     30 C23        -7.0050    3.0770   -0.8890 ca        1 AM9     -0.136500
     31 C24        -5.8250    2.3400   -1.0230 ca        1 AM9     -0.036800
     32 C25        -5.2330    2.1440   -2.3680 c3        1 AM9     -0.060300
     33 C26        -5.1670    1.4890    2.6430 c3        1 AM9     -0.060300
     34 N7          7.1700    0.2250    0.0810 nh        1 AM9     -0.636000
     35 C27         8.1990   -0.8030    0.0310 c3        1 AM9      0.186300
     36 C28         9.5750   -0.2850    0.4970 c3        1 AM9      0.164800
     37 N8          9.9780    0.9390   -0.1780 n3        1 AM9     -0.732600
     38 C29         8.9440    1.9620   -0.1200 c3        1 AM9      0.164800
     39 C30         7.5660    1.4520   -0.5900 c3        1 AM9      0.186300
     40 C31        11.2620    1.4230    0.2740 c3        1 AM9      0.157100
     41 H4         -0.1570    2.5070   -0.2760 h4        1 AM9      0.058100
     42 HN3         1.6890   -2.4900   -0.4220 hn        1 AM9      0.450800
     43 H6          3.6250   -2.4950    1.1350 ha        1 AM9      0.143000
     44 H7          5.9490   -1.7870    1.3790 ha        1 AM9      0.139500
     45 H9          5.3400    1.2230   -1.7150 ha        1 AM9      0.139500
     46 H10         3.0200    0.5200   -1.9460 ha        1 AM9      0.143000
     47 H15        -1.5730   -3.7800   -0.3050 ha        1 AM9      0.158000
     48 H16        -2.9380   -5.8610   -0.2540 ha        1 AM9      0.135000
     49 H17        -5.4020   -5.7820   -0.0550 ha        1 AM9      0.135000
     50 H18        -6.6180   -3.6040    0.1010 ha        1 AM9      0.152000
     51 H21        -7.4240    2.9370    2.4890 ha        1 AM9      0.135000
     52 H22        -8.5070    3.8670    0.4510 ha        1 AM9      0.133000
     53 H23        -7.4850    3.4940   -1.7880 ha        1 AM9      0.135000
     54 H25        -5.1930    1.0560   -2.6230 hc        1 AM9      0.050700
     55 H25A       -5.8340    2.6650   -3.1530 hc        1 AM9      0.050700
     56 H25B       -4.1910    2.5550   -2.3930 hc        1 AM9      0.050700
     57 H26        -4.1300    1.8920    2.7640 hc        1 AM9      0.050700
     58 H26A       -5.7590    1.7720    3.5480 hc        1 AM9      0.050700
     59 H26B       -5.1100    0.3720    2.5980 hc        1 AM9      0.050700
     60 H27         7.9060   -1.6470    0.7140 h1        1 AM9      0.045200
     61 H27A        8.3040   -1.2190   -1.0130 h1        1 AM9      0.045200
     62 H28         9.5510   -0.1560    1.6190 h1        1 AM9      0.040200
     63 H28A       10.3360   -1.0790    0.2550 h1        1 AM9      0.040200
     64 H29         8.8350    2.3880    0.9200 h1        1 AM9      0.040200
     65 H29A        9.2480    2.7990   -0.8080 h1        1 AM9      0.040200
     66 H30         7.5960    1.3190   -1.7110 h1        1 AM9      0.045200
     67 H30A        6.8080    2.2480   -0.3460 h1        1 AM9      0.045200
     68 H31        12.0250    0.6160    0.1210 h1        1 AM9      0.033700
     69 H31A       11.5490    2.3140   -0.3450 h1        1 AM9      0.033700
     70 H31B       11.2700    1.7240    1.3580 h1        1 AM9      0.033700
@<TRIPOS>BOND
     1    1    2 ar  
     2    1    6 ar  
     3    1    7 1   
     4    2    3 ar  
     5    3    4 ar  
     6    3   14 1   
     7    4    5 ar  
     8    4   17 1   
     9    5    6 ar  
    10    5   41 1   
    11    7    8 1   
    12    7   42 1   
    13    8    9 ar  
    14    8   13 ar  
    15    9   10 ar  
    16    9   43 1   
    17   10   11 ar  
    18   10   44 1   
    19   11   12 ar  
    20   11   34 1   
    21   12   13 ar  
    22   12   45 1   
    23   13   46 1   
    24   14   15 1   
    25   14   18 1   
    26   15   16 1   
    27   15   20 2   
    28   16   17 1   
    29   16   26 1   
    30   17   25 2   
    31   18   19 ar  
    32   18   21 ar  
    33   19   20 1   
    34   19   24 ar  
    35   21   22 ar  
    36   21   47 1   
    37   22   23 ar  
    38   22   48 1   
    39   23   24 ar  
    40   23   49 1   
    41   24   50 1   
    42   26   27 ar  
    43   26   31 ar  
    44   27   28 ar  
    45   27   33 1   
    46   28   29 ar  
    47   28   51 1   
    48   29   30 ar  
    49   29   52 1   
    50   30   31 ar  
    51   30   53 1   
    52   31   32 1   
    53   32   54 1   
    54   32   55 1   
    55   32   56 1   
    56   33   57 1   
    57   33   58 1   
    58   33   59 1   
    59   34   35 1   
    60   34   39 1   
    61   35   36 1   
    62   35   60 1   
    63   35   61 1   
    64   36   37 1   
    65   36   62 1   
    66   36   63 1   
    67   37   38 1   
    68   37   40 1   
    69   38   39 1   
    70   38   64 1   
    71   38   65 1   
    72   39   66 1   
    73   39   67 1   
    74   40   68 1   
    75   40   69 1   
    76   40   70 1   
@<TRIPOS>SUBSTRUCTURE
     1 AM9         1 TEMP              0 ****  ****    0 ROOT
