@<TRIPOS>MOLECULE
AM9
   70    63     1     0     0
SMALL
bcc


@<TRIPOS>ATOM
      1 C1          0.3810   -0.0260   -1.0980 c1        1 AM9      0.213000
      2 N1          1.7500    0.0250   -1.0930 n2        1 AM9     -0.278000
      3 C2          2.4310   -0.0260    0.0900 c1        1 AM9      0.250000
      4 C3          1.7500   -0.1260    1.2590 c1        1 AM9     -0.342000
      5 C4          0.3640   -0.1770    1.2500 c1        1 AM9      0.081000
      6 N2         -0.3050   -0.1270    0.0800 n1        1 AM9     -0.227000
      7 N3         -0.3700   -0.0150   -2.3200 n2        1 AM9     -0.222000
      8 C5         -1.8050   -0.1030   -2.2830 c2        1 AM9      0.005000
      9 C6         -2.5670    1.0500   -2.1470 c2        1 AM9     -0.072000
     10 C7         -3.9550    0.9780   -2.2090 c1        1 AM9     -0.176000
     11 C8         -4.5800   -0.2470   -2.4080 c1        1 AM9      0.063000
     12 C9         -3.8170   -1.4000   -2.5440 c1        1 AM9     -0.149000
     13 C10        -2.4300   -1.3280   -2.4820 c1        1 AM9     -0.129000
     14 N4          3.8770   -0.0210    0.0930 n2        1 AM9     -0.163000
     15 C11         4.5720   -0.1190    1.2910 c1        1 AM9      0.178000
     16 N5          3.8540   -0.1660    2.5410 n2        1 AM9     -0.222000
     17 C12         2.4910   -0.2000    2.5420 c2        1 AM9      0.388000
     18 C13         4.7860   -0.0630   -0.9260 c1        1 AM9     -0.013000
     19 C14         6.0440   -0.1860   -0.3690 c1        1 AM9     -0.046000
     20 N6          5.9030   -0.2200    1.0000 n1        1 AM9     -0.146000
     21 C15         4.6390   -0.0030   -2.3200 c1        1 AM9     -0.100000
     22 C16         5.7580   -0.0680   -3.1400 c1        1 AM9     -0.127500
     23 C17         7.0290   -0.1930   -2.5780 c1        1 AM9     -0.127500
     24 C18         7.1760   -0.2520   -1.1990 c1        1 AM9     -0.086000
     25 O1          1.8880   -0.3540    3.5840 o         1 AM9     -0.325000
     26 C19         4.5720   -0.1580    3.7800 c2        1 AM9      0.047000
     27 C20         4.8770    1.0470    4.3970 c2        1 AM9     -0.030000
     28 C21         5.5680    1.0550    5.6010 c1        1 AM9     -0.136000
     29 C22         5.9540   -0.1410    6.1860 c1        1 AM9     -0.127500
     30 C23         5.6500   -1.3470    5.5690 c1        1 AM9     -0.127500
     31 C24         4.9590   -1.3550    4.3660 c1        1 AM9     -0.029000
     32 C25         4.6020   -2.6670    3.7090 c3        1 AM9     -0.185000
     33 C26         4.4580    2.3490    3.7580 c3        1 AM9     -0.186000
     34 N7         -6.0090   -0.3370   -2.3550 n3        1 AM9     -0.238000
     35 C27        -6.4810    0.2810   -1.1660 c3        1 AM9     -0.050500
     36 C28        -7.9930    0.3520   -1.1130 c3        1 AM9     -0.072000
     37 N8         -8.5500    0.9280   -2.2870 n3        1 AM9     -0.258000
     38 C29        -8.0780    0.3090   -3.4760 c3        1 AM9     -0.072000
     39 C30        -6.5660    0.2380   -3.5290 c3        1 AM9     -0.050500
     40 C31        -9.9710    0.8340   -2.2340 c3        1 AM9     -0.119000
     41 H4         -0.1270   -0.2490    2.0900 ha        1 AM9      0.195000
     42 HN3         0.0640    0.0350   -3.1230 hn        1 AM9      0.246000
     43 H6         -2.1290    1.9100   -2.0070 ha        1 AM9      0.153000
     44 H7         -4.4910    1.7890   -2.1130 ha        1 AM9      0.139000
     45 H9         -4.2560   -2.2610   -2.6840 ha        1 AM9      0.140000
     46 H10        -1.8950   -2.1390   -2.5790 ha        1 AM9      0.133000
     47 H15         3.7520    0.0840   -2.7130 ha        1 AM9      0.158000
     48 H16         5.6550   -0.0270   -4.1080 ha        1 AM9      0.134500
     49 H17         7.8160   -0.2390   -3.1540 ha        1 AM9      0.134500
     50 H18         8.0640   -0.3390   -0.8060 ha        1 AM9      0.152000
     51 H21         5.7820    1.9020    6.0350 ha        1 AM9      0.135000
     52 H22         6.4400   -0.1360    7.0320 ha        1 AM9      0.134500
     53 H23         5.9220   -2.1890    5.9810 ha        1 AM9      0.134500
     54 H25         3.6480   -2.8490    3.8400 hc        1 AM9      0.089667
     55 H25A        4.7950   -2.6160    2.7500 hc        1 AM9      0.089667
     56 H25B        5.1300   -3.3890    4.1110 hc        1 AM9      0.089667
     57 H26         3.5190    2.5300    3.9710 hc        1 AM9      0.090333
     58 H26A        5.0170    3.0770    4.1030 hc        1 AM9      0.090333
     59 H26B        4.5660    2.2860    2.7870 hc        1 AM9      0.090333
     60 H27        -6.1190    1.1910   -1.1170 h1        1 AM9      0.084500
     61 H27A       -6.1610   -0.2290   -0.3950 h1        1 AM9      0.084500
     62 H28        -8.2580    0.8910   -0.3390 h1        1 AM9      0.079500
     63 H28A       -8.3490   -0.5540   -1.0050 h1        1 AM9      0.079500
     64 H29        -8.3980    0.8210   -4.2470 h1        1 AM9      0.079500
     65 H29A       -8.4400   -0.6000   -3.5250 h1        1 AM9      0.079500
     66 H30        -6.3020   -0.3000   -4.3010 h1        1 AM9      0.084500
     67 H30A       -6.2090    1.1450   -3.6370 h1        1 AM9      0.084500
     68 H31       -10.2320   -0.1030   -2.0890 h1        1 AM9      0.073000
     69 H31A      -10.3510    1.1510   -3.0800 h1        1 AM9      0.073000
     70 H31B      -10.3080    1.3860   -1.4960 h1        1 AM9      0.073000
@<TRIPOS>BOND
     1    1    2 1   
     2    1    6 1   
     3    2    3 1   
     4    4    5 1   
     5    4   17 1   
     6    5   41 1   
     7    7    8 1   
     8    7   42 1   
     9    8    9 1   
    10    8   13 1   
    11    9   10 1   
    12    9   43 1   
    13   10   44 1   
    14   11   12 1   
    15   11   34 1   
    16   12   45 1   
    17   13   46 1   
    18   14   15 1   
    19   14   18 1   
    20   15   20 1   
    21   16   17 1   
    22   16   26 1   
    23   17   25 1   
    24   18   21 1   
    25   19   24 1   
    26   21   47 1   
    27   22   23 1   
    28   22   48 1   
    29   23   49 1   
    30   24   50 1   
    31   26   27 1   
    32   26   31 1   
    33   27   28 1   
    34   27   33 1   
    35   28   51 1   
    36   29   30 1   
    37   29   52 1   
    38   30   53 1   
    39   31   32 1   
    40   32   54 1   
    41   32   55 1   
    42   32   56 1   
    43   33   57 1   
    44   33   58 1   
    45   33   59 1   
    46   34   35 1   
    47   34   39 1   
    48   35   36 1   
    49   35   60 1   
    50   35   61 1   
    51   36   37 1   
    52   36   62 1   
    53   36   63 1   
    54   37   38 1   
    55   37   40 1   
    56   38   39 1   
    57   38   64 1   
    58   38   65 1   
    59   39   66 1   
    60   39   67 1   
    61   40   68 1   
    62   40   69 1   
    63   40   70 1   
@<TRIPOS>SUBSTRUCTURE
     1 AM9         1 TEMP              0 ****  ****    0 ROOT
