@<TRIPOS>MOLECULE
AMA
   40    37     1     0     0
SMALL
bcc


@<TRIPOS>ATOM
      1 N1         -1.6990   -0.4210   -3.5020 n1        1 AMA     -0.172000
      2 C2         -0.3340   -0.4700   -3.4910 c1        1 AMA     -0.162000
      3 C2A         0.4350   -0.4400   -4.8010 c3        1 AMA     -0.117000
      4 C3          0.3500   -0.5540   -2.2800 c1        1 AMA      0.074000
      5 O3          1.7160   -0.4630   -2.2600 o         1 AMA     -0.308000
      6 C4         -0.3420   -0.5860   -1.1120 c2        1 AMA     -0.120000
      7 C4A         0.4070   -0.5870    0.2290 c3        1 AMA     -0.028000
      8 C5         -1.7130   -0.5370   -1.1280 c1        1 AMA     -0.083000
      9 C6         -2.3900   -0.4540   -2.3320 c1        1 AMA     -0.122000
     10 C5A        -2.4950   -0.6630    0.1850 c3        1 AMA      0.094000
     11 OP4        -3.7050   -1.4310   -0.0450 os        1 AMA     -0.738000
     12 P          -4.9720   -1.2140    0.9700 p5        1 AMA      1.554500
     13 OP1        -4.6700   -1.8510    2.2820 o         1 AMA     -0.936833
     14 OP2        -6.2120   -1.8480    0.3740 o         1 AMA     -0.936833
     15 OP3        -5.2130    0.3000    1.1750 o         1 AMA     -0.936833
     16 N           0.5860    0.8160    0.7050 n3        1 AMA     -0.328000
     17 CA          1.8010    0.8970    1.5540 c3        1 AMA      0.004000
     18 C           2.1150   -0.4510    2.1040 c2        1 AMA      0.325000
     19 O           3.2220   -1.0000    1.8220 o         1 AMA     -0.604500
     20 CB2         2.9660    1.3770    0.7150 c3        1 AMA     -0.186000
     21 CB1         1.5500    1.8790    2.7180 c3        1 AMA     -0.216000
     22 CG          2.5090    1.5480    3.8910 c2        1 AMA      0.318000
     23 OD1         3.7170    1.9920    3.8780 o         1 AMA     -0.628500
     24 OD2         2.0920    0.8640    4.8810 o         1 AMA     -0.628500
     25 OXT         1.3610   -0.9670    2.9730 o         1 AMA     -0.604500
     26 H2A1       -0.1720   -0.2470   -5.5220 hc        1 AMA      0.047667
     27 H2A2        0.8540   -1.3080   -4.9520 hc        1 AMA      0.047667
     28 H2A3        1.1350    0.2660   -4.7600 hc        1 AMA      0.047667
     29 HO3         2.0640   -1.1980   -2.5980 ho        1 AMA      0.289000
     30 H4A1        1.3010   -1.0150    0.1120 h1        1 AMA      0.085000
     31 H4A2       -0.1160   -1.0960    0.8960 h1        1 AMA      0.085000
     32 H6         -3.3660   -0.3180   -2.3360 ha        1 AMA      0.261000
     33 H5A1       -1.9100   -1.1440    0.8940 h1        1 AMA      0.056000
     34 H5A2       -2.7330    0.2260    0.5110 h1        1 AMA      0.056000
     35 HN         -0.1200    1.0600    1.1780 hn        1 AMA      0.185000
     36 HB21        2.7000    2.1860    0.2080 hc        1 AMA      0.058333
     37 HB22        3.7380    1.5980    1.3140 hc        1 AMA      0.058333
     38 HB23        3.2230    0.6820    0.1010 hc        1 AMA      0.058333
     39 HB11        0.6170    1.7930    3.0260 hc        1 AMA      0.076000
     40 HB12        1.7040    2.7760    2.4220 hc        1 AMA      0.076000
@<TRIPOS>BOND
     1    1    9 1   
     2    2    3 1   
     3    2    4 1   
     4    3   26 1   
     5    3   27 1   
     6    3   28 1   
     7    4    6 1   
     8    5   29 1   
     9    6    7 1   
    10    6    8 1   
    11    7   16 1   
    12    7   30 1   
    13    7   31 1   
    14    8   10 1   
    15    9   32 1   
    16   10   11 1   
    17   10   33 1   
    18   10   34 1   
    19   11   12 1   
    20   12   13 1   
    21   12   14 1   
    22   12   15 1   
    23   16   17 1   
    24   16   35 1   
    25   17   18 1   
    26   17   20 1   
    27   17   21 1   
    28   18   19 1   
    29   18   25 1   
    30   20   36 1   
    31   20   37 1   
    32   20   38 1   
    33   21   22 1   
    34   21   39 1   
    35   21   40 1   
    36   22   23 1   
    37   22   24 1   
@<TRIPOS>SUBSTRUCTURE
     1 AMA         1 TEMP              0 ****  ****    0 ROOT
