@<TRIPOS>MOLECULE
AMA
   41    41     1     0     0
SMALL
bcc


@<TRIPOS>ATOM
      1 N1          0.0570    0.0370   -0.0880 nb        1 AMA     -0.670000
      2 C2          1.4030    0.1140    0.0900 ca        1 AMA      0.303600
      3 C2A         2.3030    0.2040   -1.0960 c3        1 AMA     -0.114400
      4 C3          1.9840    0.1310    1.3850 ca        1 AMA      0.047800
      5 O3          3.3450    0.2820    1.4360 oh        1 AMA     -0.540100
      6 C4          1.1520    0.0670    2.5270 ca        1 AMA     -0.225300
      7 C4A         1.7320    0.1510    3.9020 c3        1 AMA      0.168100
      8 C5         -0.2330   -0.0090    2.3350 ca        1 AMA     -0.092600
      9 C6         -0.7160   -0.0250    0.9970 ca        1 AMA      0.370200
     10 C5A        -1.2210   -0.0470    3.4640 c3        1 AMA      0.213700
     11 OP4        -2.5040   -0.2350    3.0160 os        1 AMA     -0.557200
     12 P          -3.5920   -0.1150    4.3930 p5        1 AMA      1.308900
     13 OP1        -4.9330   -0.3870    3.7770 o         1 AMA     -0.927500
     14 OP2        -2.9990   -1.1840    5.2710 o         1 AMA     -0.927500
     15 OP3        -3.3110    1.2990    4.8270 o         1 AMA     -0.927500
     16 N           1.9660   -1.1870    4.5170 ny        1 AMA     -0.766000
     17 CA          3.1850   -1.2310    5.4630 c3        1 AMA      0.051200
     18 C           4.4360   -0.9280    4.5460 c         1 AMA      0.920600
     19 O           4.4720   -1.5470    3.4370 o         1 AMA     -0.818800
     20 CB2         3.0370   -0.1940    6.5580 c3        1 AMA     -0.096100
     21 CB1         3.2720   -2.6510    6.0250 c3        1 AMA     -0.212400
     22 CG          4.2000   -2.8870    7.2410 c         1 AMA      0.932600
     23 OD1         4.9700   -3.8880    7.1750 o         1 AMA     -0.846800
     24 OD2         4.0930   -2.1630    8.2710 o         1 AMA     -0.846800
     25 OXT         5.2600   -0.0600    4.9100 o         1 AMA     -0.818800
     26 H2A1        1.8350   -0.2330   -2.0110 hc        1 AMA      0.029367
     27 H2A2        3.2580   -0.3370   -0.8790 hc        1 AMA      0.029367
     28 H2A3        2.5470    1.2770   -1.3000 hc        1 AMA      0.029367
     29 HO3         3.6980   -0.2100    2.2050 ho        1 AMA      0.473000
     30 H4A1        2.7220    0.6960    3.8710 hx        1 AMA      0.104700
     31 H4A2        1.0280    0.7220    4.5760 hx        1 AMA      0.104700
     32 H6         -1.8150   -0.0930    0.8520 h4        1 AMA      0.072100
     33 H5A1       -1.1590    0.9330    4.0340 h1        1 AMA      0.038700
     34 H5A2       -0.9410   -0.8800    4.1770 h1        1 AMA      0.038700
     35 HN          1.1260   -1.4850    5.0170 hn        1 AMA      0.444300
     36 HB21        3.9660   -0.2550    7.1870 hc        1 AMA      0.058700
     37 HB22        2.1590   -0.4130    7.2100 hc        1 AMA      0.058700
     38 HB23        2.9560    0.8370    6.1400 hc        1 AMA      0.058700
     39 HB11        3.6180   -3.3330    5.2050 hc        1 AMA      0.042200
     40 HB12        2.2590   -2.9880    6.3760 hc        1 AMA      0.042200
     41 H2          2.1780   -1.8620    3.7710 hn        1 AMA      0.444300
@<TRIPOS>BOND
     1    1    2 ar  
     2    1    9 ar  
     3    2    3 1   
     4    2    4 ar  
     5    3   26 1   
     6    3   27 1   
     7    3   28 1   
     8    4    5 1   
     9    4    6 ar  
    10    5   29 1   
    11    6    7 1   
    12    6    8 ar  
    13    7   16 1   
    14    7   30 1   
    15    7   31 1   
    16    8    9 ar  
    17    8   10 1   
    18    9   32 1   
    19   10   11 1   
    20   10   33 1   
    21   10   34 1   
    22   11   12 1   
    23   12   13 1   
    24   12   14 1   
    25   12   15 1   
    26   16   17 1   
    27   16   35 1   
    28   16   41 1   
    29   17   18 1   
    30   17   20 1   
    31   17   21 1   
    32   18   19 1   
    33   18   25 1   
    34   20   36 1   
    35   20   37 1   
    36   20   38 1   
    37   21   22 1   
    38   21   39 1   
    39   21   40 1   
    40   22   23 1   
    41   22   24 1   
@<TRIPOS>SUBSTRUCTURE
     1 AMA         1 TEMP              0 ****  ****    0 ROOT
