@<TRIPOS>MOLECULE
AMA
   41    41     1     0     0
SMALL
bcc


@<TRIPOS>ATOM
      1 N1          0.0460    0.0310   -0.0850 nb        1 AMA     -0.670000
      2 C2          1.3930    0.0980    0.0870 ca        1 AMA      0.303600
      3 C2A         2.2880    0.1750   -1.1030 c3        1 AMA     -0.114400
      4 C3          1.9790    0.1170    1.3790 ca        1 AMA      0.047800
      5 O3          3.3430    0.2570    1.4230 oh        1 AMA     -0.540100
      6 C4          1.1520    0.0640    2.5260 ca        1 AMA     -0.225300
      7 C4A         1.7390    0.1500    3.8970 c3        1 AMA      0.168100
      8 C5         -0.2340   -0.0010    2.3400 ca        1 AMA     -0.092600
      9 C6         -0.7230   -0.0200    1.0050 ca        1 AMA      0.370200
     10 C5A        -1.2170   -0.0250    3.4740 c3        1 AMA      0.213700
     11 OP4        -2.5040   -0.2040    3.0320 os        1 AMA     -0.557200
     12 P          -3.5840   -0.0700    4.4130 p5        1 AMA      1.308900
     13 OP1        -4.9310   -0.3340    3.8050 o         1 AMA     -0.927500
     14 OP2        -2.9950   -1.1400    5.2930 o         1 AMA     -0.927500
     15 OP3        -3.2900    1.3430    4.8410 o         1 AMA     -0.927500
     16 N           1.9650   -1.1860    4.5180 n4        1 AMA     -0.766000
     17 CA          3.1870   -1.2360    5.4590 c3        1 AMA      0.051200
     18 C           4.4360   -0.9490    4.5340 c         1 AMA      0.920600
     19 O           4.4620   -1.5730    3.4280 o         1 AMA     -0.818800
     20 CB2         3.0540   -0.1930    6.5490 c3        1 AMA     -0.096100
     21 CB1         3.2650   -2.6540    6.0270 c3        1 AMA     -0.212400
     22 CG          4.1970   -2.8920    7.2400 c         1 AMA      0.932600
     23 OD1         4.9580   -3.9000    7.1750 o         1 AMA     -0.847300
     24 OD2         4.1000   -2.1630    8.2670 o         1 AMA     -0.847300
     25 OXT         5.2700   -0.0860    4.8900 o         1 AMA     -0.818800
     26 H2A1        1.8130   -0.2640   -2.0140 hc        1 AMA      0.029367
     27 H2A2        3.2400   -0.3720   -0.8880 hc        1 AMA      0.029367
     28 H2A3        2.5400    1.2440   -1.3140 hc        1 AMA      0.029367
     29 HO3         3.6940   -0.2350    2.1940 ho        1 AMA      0.473000
     30 H4A1        1.0430    0.7310    4.5720 hx        1 AMA      0.104700
     31 H4A2        2.7340    0.6870    3.8600 hx        1 AMA      0.104700
     32 H6         -1.8240   -0.0790    0.8650 h4        1 AMA      0.072100
     33 H5A1       -1.1450    0.9570    4.0380 h1        1 AMA      0.039200
     34 H5A2       -0.9410   -0.8570    4.1890 h1        1 AMA      0.039200
     35 HN          1.1240   -1.4760    5.0230 hn        1 AMA      0.444300
     36 HB21        2.9790    0.8370    6.1260 hc        1 AMA      0.058700
     37 HB22        2.1760   -0.4020    7.2060 hc        1 AMA      0.058700
     38 HB23        3.9840   -0.2590    7.1740 hc        1 AMA      0.058700
     39 HB11        3.6020   -3.3440    5.2090 hc        1 AMA      0.042200
     40 HB12        2.2510   -2.9810    6.3840 hc        1 AMA      0.042200
     41 H2          2.1670   -1.8670    3.7740 hn        1 AMA      0.444300
@<TRIPOS>BOND
     1    1    2 ar  
     2    1    9 ar  
     3    2    3 1   
     4    2    4 ar  
     5    3   26 1   
     6    3   27 1   
     7    3   28 1   
     8    4    5 1   
     9    4    6 ar  
    10    5   29 1   
    11    6    7 1   
    12    6    8 ar  
    13    7   16 1   
    14    7   30 1   
    15    7   31 1   
    16    8    9 ar  
    17    8   10 1   
    18    9   32 1   
    19   10   11 1   
    20   10   33 1   
    21   10   34 1   
    22   11   12 1   
    23   12   13 1   
    24   12   14 1   
    25   12   15 1   
    26   16   17 1   
    27   16   35 1   
    28   16   41 1   
    29   17   18 1   
    30   17   20 1   
    31   17   21 1   
    32   18   19 1   
    33   18   25 1   
    34   20   36 1   
    35   20   37 1   
    36   20   38 1   
    37   21   22 1   
    38   21   39 1   
    39   21   40 1   
    40   22   23 1   
    41   22   24 1   
@<TRIPOS>SUBSTRUCTURE
     1 AMA         1 TEMP              0 ****  ****    0 ROOT
