@<TRIPOS>MOLECULE
AMA
   40    40     1     0     0
SMALL
bcc


@<TRIPOS>ATOM
      1 N1          2.7280    1.0950    2.7410 nb        1 AMA     -0.700000
      2 C2          3.1980    0.9490    1.4760 ca        1 AMA      0.257600
      3 C2A         4.5990    1.3420    1.1480 c3        1 AMA     -0.094400
      4 C3          2.3890    0.4240    0.4310 ca        1 AMA      0.070800
      5 O3          3.0280    0.2890   -0.7690 oh        1 AMA     -0.552100
      6 C4          1.0390    0.0700    0.6860 ca        1 AMA     -0.138300
      7 C4A         0.1880   -0.4590   -0.4430 c3        1 AMA      0.205100
      8 C5          0.5780    0.1790    2.0070 ca        1 AMA     -0.127600
      9 C6          1.4740    0.7050    2.9810 ca        1 AMA      0.348200
     10 C5A        -0.7940   -0.2460    2.4870 c3        1 AMA      0.240700
     11 OP4        -1.0840    0.2280    3.7440 os        1 AMA     -0.581200
     12 P          -1.7410   -0.8610    4.9270 p5        1 AMA      1.322900
     13 OP1        -1.6960   -2.2070    4.2510 o         1 AMA     -0.939500
     14 OP2        -0.7820   -0.6810    6.0770 o         1 AMA     -0.939500
     15 OP3        -3.1240   -0.3110    5.1650 o         1 AMA     -0.939500
     16 N           0.2440    0.3560   -1.6460 n3        1 AMA     -0.828200
     17 CA         -0.0980   -0.3390   -2.8950 c3        1 AMA      0.106200
     18 C           0.8670   -1.5350   -3.2260 c         1 AMA      0.911600
     19 O           0.4600   -2.4210   -4.0410 o         1 AMA     -0.874300
     20 CB2        -1.5330   -0.8890   -2.8990 c3        1 AMA     -0.106100
     21 CB1         0.0480    0.6250   -4.0970 c3        1 AMA     -0.158400
     22 CG         -0.9340    1.7850   -4.2240 c         1 AMA      0.900600
     23 OD1        -1.5520    2.2570   -3.2240 o         1 AMA     -0.890800
     24 OD2        -1.0910    2.2920   -5.3880 o         1 AMA     -0.890800
     25 OXT         2.0350   -1.5970   -2.7330 o         1 AMA     -0.874300
     26 H2A1        5.1370    0.4630    0.7150 hc        1 AMA      0.010700
     27 H2A2        4.5860    2.1490    0.3740 hc        1 AMA      0.010700
     28 H2A3        5.1630    1.7080    2.0390 hc        1 AMA      0.010700
     29 HO3         2.4380   -0.1570   -1.4200 ho        1 AMA      0.503000
     30 H4A1        0.5810   -1.4890   -0.7000 h1        1 AMA      0.045700
     31 H4A2       -0.8690   -0.5880   -0.0650 h1        1 AMA      0.045700
     32 H6          1.1090    0.8050    4.0240 h4        1 AMA      0.063100
     33 H5A1       -1.5410    0.1700    1.7430 h1        1 AMA      0.027700
     34 H5A2       -0.8480   -1.3760    2.4690 h1        1 AMA      0.027700
     35 HN         -0.3440    1.1680   -1.5630 hn        1 AMA      0.386800
     36 HB21       -2.2630   -0.0500   -2.7990 hc        1 AMA      0.025033
     37 HB22       -1.7130   -1.4250   -3.8610 hc        1 AMA      0.025033
     38 HB23       -1.6770   -1.6110   -2.0610 hc        1 AMA      0.025033
     39 HB11        1.0780    1.0650   -4.0830 hc        1 AMA      0.033200
     40 HB12       -0.0410   -0.0020   -5.0230 hc        1 AMA      0.033200
@<TRIPOS>BOND
     1    1    2 ar  
     2    1    9 ar  
     3    2    3 1   
     4    2    4 ar  
     5    3   26 1   
     6    3   27 1   
     7    3   28 1   
     8    4    5 1   
     9    4    6 ar  
    10    5   29 1   
    11    6    7 1   
    12    6    8 ar  
    13    7   16 1   
    14    7   30 1   
    15    7   31 1   
    16    8    9 ar  
    17    8   10 1   
    18    9   32 1   
    19   10   11 1   
    20   10   33 1   
    21   10   34 1   
    22   11   12 1   
    23   12   13 1   
    24   12   14 1   
    25   12   15 1   
    26   16   17 1   
    27   16   35 1   
    28   17   18 1   
    29   17   20 1   
    30   17   21 1   
    31   18   19 1   
    32   18   25 1   
    33   20   36 1   
    34   20   37 1   
    35   20   38 1   
    36   21   22 1   
    37   21   39 1   
    38   21   40 1   
    39   22   23 1   
    40   22   24 1   
@<TRIPOS>SUBSTRUCTURE
     1 AMA         1 TEMP              0 ****  ****    0 ROOT
