@<TRIPOS>MOLECULE
AMA
   41    41     1     0     0
SMALL
bcc


@<TRIPOS>ATOM
      1 N1          0.0630    0.0330   -0.0910 nb        1 AMA     -0.670000
      2 C2          1.4080    0.1110    0.0890 ca        1 AMA      0.303600
      3 C2A         2.3100    0.2000   -1.0960 c3        1 AMA     -0.114400
      4 C3          1.9870    0.1290    1.3850 ca        1 AMA      0.047800
      5 O3          3.3490    0.2810    1.4380 oh        1 AMA     -0.540100
      6 C4          1.1540    0.0660    2.5260 ca        1 AMA     -0.225300
      7 C4A         1.7320    0.1510    3.9010 c3        1 AMA      0.168100
      8 C5         -0.2310   -0.0110    2.3320 ca        1 AMA     -0.092600
      9 C6         -0.7120   -0.0290    0.9930 ca        1 AMA      0.370200
     10 C5A        -1.2200   -0.0490    3.4590 c3        1 AMA      0.213700
     11 OP4        -2.5030   -0.2370    3.0090 os        1 AMA     -0.557200
     12 P          -3.5930   -0.1180    4.3850 p5        1 AMA      1.308900
     13 OP1        -4.9330   -0.3910    3.7670 o         1 AMA     -0.927500
     14 OP2        -3.0000   -1.1860    5.2630 o         1 AMA     -0.927500
     15 OP3        -3.3140    1.2960    4.8190 o         1 AMA     -0.927500
     16 N           1.9660   -1.1850    4.5180 n4        1 AMA     -0.766000
     17 CA          3.1820   -1.2280    5.4670 c3        1 AMA      0.051200
     18 C           4.4340   -0.9250    4.5510 c         1 AMA      0.920600
     19 O           4.4730   -1.5450    3.4420 o         1 AMA     -0.818800
     20 CB2         3.0330   -0.1900    6.5600 c3        1 AMA     -0.096100
     21 CB1         3.2690   -2.6470    6.0300 c3        1 AMA     -0.212400
     22 CG          4.1960   -2.8810    7.2480 c         1 AMA      0.932600
     23 OD1         4.9660   -3.8820    7.1840 o         1 AMA     -0.846800
     24 OD2         4.0860   -2.1560    8.2770 o         1 AMA     -0.846800
     25 OXT         5.2580   -0.0570    4.9150 o         1 AMA     -0.818800
     26 H2A1        1.8440   -0.2390   -2.0100 hc        1 AMA      0.029367
     27 H2A2        2.5540    1.2720   -1.3000 hc        1 AMA      0.029367
     28 H2A3        3.2650   -0.3400   -0.8770 hc        1 AMA      0.029367
     29 HO3         3.7000   -0.2100    2.2090 ho        1 AMA      0.473000
     30 H4A1        2.7210    0.6970    3.8720 hx        1 AMA      0.104700
     31 H4A2        1.0260    0.7230    4.5740 hx        1 AMA      0.104700
     32 H6         -1.8110   -0.0980    0.8470 h4        1 AMA      0.072100
     33 H5A1       -1.1600    0.9320    4.0280 h1        1 AMA      0.039200
     34 H5A2       -0.9420   -0.8800    4.1740 h1        1 AMA      0.039200
     35 HN          2.1790   -1.8610    3.7740 hn        1 AMA      0.444300
     36 HB21        3.9600   -0.2490    7.1910 hc        1 AMA      0.058700
     37 HB22        2.1530   -0.4090    7.2110 hc        1 AMA      0.058700
     38 HB23        2.9520    0.8410    6.1400 hc        1 AMA      0.058700
     39 HB11        2.2560   -2.9840    6.3800 hc        1 AMA      0.042200
     40 HB12        3.6170   -3.3310    5.2120 hc        1 AMA      0.042200
     41 H2          1.1240   -1.4840    5.0180 hn        1 AMA      0.444300
@<TRIPOS>BOND
     1    1    2 ar  
     2    1    9 ar  
     3    2    3 1   
     4    2    4 ar  
     5    3   26 1   
     6    3   27 1   
     7    3   28 1   
     8    4    5 1   
     9    4    6 ar  
    10    5   29 1   
    11    6    7 1   
    12    6    8 ar  
    13    7   16 1   
    14    7   30 1   
    15    7   31 1   
    16    8    9 ar  
    17    8   10 1   
    18    9   32 1   
    19   10   11 1   
    20   10   33 1   
    21   10   34 1   
    22   11   12 1   
    23   12   13 1   
    24   12   14 1   
    25   12   15 1   
    26   16   17 1   
    27   16   35 1   
    28   16   41 1   
    29   17   18 1   
    30   17   20 1   
    31   17   21 1   
    32   18   19 1   
    33   18   25 1   
    34   20   36 1   
    35   20   37 1   
    36   20   38 1   
    37   21   22 1   
    38   21   39 1   
    39   21   40 1   
    40   22   23 1   
    41   22   24 1   
@<TRIPOS>SUBSTRUCTURE
     1 AMA         1 TEMP              0 ****  ****    0 ROOT
