@<TRIPOS>MOLECULE
AMB
   18    17     1     0     0
SMALL
bcc


@<TRIPOS>ATOM
      1 CB          0.1500    0.2310   -0.9270 c2        1 AMB     -0.204200
      2 CG         -0.6190   -0.8660   -0.9110 c2        1 AMB     -0.021900
      3 OD         -0.1300   -2.0630   -0.4000 os        1 AMB     -0.398900
      4 CE         -0.9980   -3.1750   -0.6090 c3        1 AMB      0.122700
      5 C           1.8310    1.8810    0.0490 c         1 AMB      0.942600
      6 O           1.3100    2.7880   -0.6170 o         1 AMB     -0.757300
      7 OXT         2.5690    1.9290    1.0660 o         1 AMB     -0.757300
      8 N           1.9880   -0.5920    0.5530 n4        1 AMB     -0.822600
      9 CA          1.5560    0.3810   -0.4940 c3        1 AMB     -0.031300
     10 HB         -0.2660    1.1830   -1.3170 ha        1 AMB      0.201000
     11 HG         -1.6580   -0.8820   -1.2740 h4        1 AMB      0.149000
     12 HE3        -0.4560   -4.0350   -0.1400 h1        1 AMB      0.046700
     13 HE2        -1.1470   -3.3500   -1.7020 h1        1 AMB      0.046700
     14 HE1        -1.9790   -3.0020   -0.1040 h1        1 AMB      0.046700
     15 H2          2.3970   -1.4250    0.1410 hn        1 AMB      0.447133
     16 H1          1.1830   -0.8650    1.1190 hn        1 AMB      0.447133
     17 HA          2.2400    0.2560   -1.3830 hx        1 AMB      0.095700
     18 HN3         2.6740   -0.0880    1.1540 hn        1 AMB      0.447133
@<TRIPOS>BOND
     1    1    2 2   
     2    1    9 1   
     3    1   10 1   
     4    2    3 1   
     5    2   11 1   
     6    3    4 1   
     7    4   12 1   
     8    4   13 1   
     9    4   14 1   
    10    5    6 1   
    11    5    7 1   
    12    5    9 1   
    13    8    9 1   
    14    8   15 1   
    15    8   16 1   
    16    8   18 1   
    17    9   17 1   
@<TRIPOS>SUBSTRUCTURE
     1 AMB         1 TEMP              0 ****  ****    0 ROOT
