@<TRIPOS>MOLECULE
AMB
   18    17     1     0     0
SMALL
bcc


@<TRIPOS>ATOM
      1 CB          0.1430    0.2110   -0.9500 c2        1 AMB     -0.204200
      2 CG         -0.6020   -0.9020   -0.9310 c2        1 AMB     -0.021900
      3 OD         -0.0980   -2.0800   -0.3890 os        1 AMB     -0.398900
      4 CE         -0.9360   -3.2140   -0.5980 c3        1 AMB      0.122700
      5 C           1.7690    1.9130    0.0290 c         1 AMB      0.942600
      6 O           1.2420    2.7970   -0.6620 o         1 AMB     -0.757300
      7 OXT         2.4860    1.9950    1.0600 o         1 AMB     -0.757300
      8 N           1.9670   -0.5470    0.5810 n4        1 AMB     -0.822600
      9 CA          1.5370    0.3990   -0.4920 c3        1 AMB     -0.031300
     10 HB         -0.2850    1.1470   -1.3640 ha        1 AMB      0.201000
     11 HG         -1.6330   -0.9470   -1.3130 h4        1 AMB      0.149000
     12 HE3        -1.9320   -3.0550   -0.1180 h1        1 AMB      0.046700
     13 HE2        -1.0580   -3.4100   -1.6910 h1        1 AMB      0.046700
     14 HE1        -0.3870   -4.0530   -0.1030 h1        1 AMB      0.046700
     15 H2          2.4010   -1.3780    0.1930 hn        1 AMB      0.447133
     16 H1          1.1570   -0.8260    1.1360 hn        1 AMB      0.447133
     17 HA          2.2410    0.2720   -1.3650 hx        1 AMB      0.095700
     18 HN3         2.6310   -0.0180    1.1870 hn        1 AMB      0.447133
@<TRIPOS>BOND
     1    1    2 2   
     2    1    9 1   
     3    1   10 1   
     4    2    3 1   
     5    2   11 1   
     6    3    4 1   
     7    4   12 1   
     8    4   13 1   
     9    4   14 1   
    10    5    6 1   
    11    5    7 1   
    12    5    9 1   
    13    8    9 1   
    14    8   15 1   
    15    8   16 1   
    16    8   18 1   
    17    9   17 1   
@<TRIPOS>SUBSTRUCTURE
     1 AMB         1 TEMP              0 ****  ****    0 ROOT
