@<TRIPOS>MOLECULE
AMB
   17    16     1     0     0
SMALL
bcc


@<TRIPOS>ATOM
      1 CB         -1.1530   -0.8520    0.6650 c2        1 AMB     -0.127200
      2 CG         -1.0380   -0.9650    1.9940 c2        1 AMB     -0.045900
      3 OD         -0.5840    0.0300    2.8490 os        1 AMB     -0.375900
      4 CE          0.8270    0.2390    2.7940 c3        1 AMB      0.092700
      5 C           0.6390   -0.1640   -0.9040 c         1 AMB      0.891600
      6 O           0.5180   -0.6250   -2.0720 o         1 AMB     -0.835800
      7 OXT         1.7350   -0.0170   -0.2960 o         1 AMB     -0.835800
      8 N          -1.7000    0.7840   -1.0790 n3        1 AMB     -0.878800
      9 CA         -0.6710    0.2950   -0.1630 c3        1 AMB      0.038700
     10 HB         -1.6030   -1.6850    0.1000 ha        1 AMB      0.117000
     11 HG         -1.3730   -1.8500    2.5580 h4        1 AMB      0.105000
     12 HE3         0.9740    1.2540    3.2370 h1        1 AMB      0.044700
     13 HE2         1.3310   -0.5330    3.4270 h1        1 AMB      0.044700
     14 HE1         1.2160    0.1980    1.7420 h1        1 AMB      0.044700
     15 H2         -1.2680    1.4790   -1.6630 hn        1 AMB      0.329300
     16 H1         -1.9600    0.0260   -1.6890 hn        1 AMB      0.329300
     17 HA         -0.3970    1.1560    0.5150 h1        1 AMB      0.059700
@<TRIPOS>BOND
     1    1    2 2   
     2    1    9 1   
     3    1   10 1   
     4    2    3 1   
     5    2   11 1   
     6    3    4 1   
     7    4   12 1   
     8    4   13 1   
     9    4   14 1   
    10    5    6 1   
    11    5    7 1   
    12    5    9 1   
    13    8    9 1   
    14    8   15 1   
    15    8   16 1   
    16    9   17 1   
@<TRIPOS>SUBSTRUCTURE
     1 AMB         1 TEMP              0 ****  ****    0 ROOT
