@<TRIPOS>MOLECULE
AMB
   17    13     1     0     0
SMALL
bcc


@<TRIPOS>ATOM
      1 CB         -0.5810    0.6050    0.6920 c1        1 AMB     -0.049000
      2 CG         -1.2550   -0.2120   -0.1410 c1        1 AMB     -0.049000
      3 OD         -0.5520   -1.0640   -1.0100 o         1 AMB     -0.421500
      4 CE         -1.3790   -1.9410   -1.7420 c3        1 AMB      0.182400
      5 C           1.4340    1.8390   -0.0210 c1        1 AMB      0.607600
      6 O           2.2000    1.7240   -1.0130 o         1 AMB     -0.806500
      7 OXT         1.0880    2.9820    0.3780 os        1 AMB     -0.568000
      8 N           1.4050    0.6050    2.0330 nh        1 AMB     -0.802600
      9 CA          0.9300    0.6050    0.6920 c2        1 AMB     -0.094100
     10 HB         -1.0690    1.1970    1.2960 ha        1 AMB      0.053500
     11 HG         -2.2310   -0.2120   -0.1410 ha        1 AMB      0.053500
     12 HE3        -1.9860   -1.4230   -2.3040 h1        1 AMB      0.044700
     13 HE2        -0.8260   -2.5160   -2.3050 h1        1 AMB      0.044700
     14 HE1        -1.8970   -2.4910   -1.1250 h1        1 AMB      0.044700
     15 H2          1.1490   -0.1670    2.4460 hn        1 AMB      0.329300
     16 H1          2.3150    0.6630    2.0340 hn        1 AMB      0.329300
     17 HA          1.2560   -0.1920    0.2320 h4        1 AMB      0.099000
@<TRIPOS>BOND
     1    1    2 3   
     2    1   10 1   
     3    2   11 1   
     4    3    4 1   
     5    4   12 1   
     6    4   13 1   
     7    4   14 1   
     8    5    6 2   
     9    5    9 2   
    10    8    9 1   
    11    8   15 1   
    12    8   16 1   
    13    9   17 1   
@<TRIPOS>SUBSTRUCTURE
     1 AMB         1 TEMP              0 ****  ****    0 ROOT
