@<TRIPOS>MOLECULE
AMB
   18    17     1     0     0
SMALL
bcc


@<TRIPOS>ATOM
      1 CB          0.1740    0.2170   -0.9630 c2        1 AMB     -0.204200
      2 CG         -0.6020   -0.8740   -0.9420 c2        1 AMB     -0.021900
      3 OD         -0.1380   -2.0610   -0.3820 os        1 AMB     -0.398900
      4 CE         -1.0060   -3.1720   -0.5890 c3        1 AMB      0.122700
      5 C           1.8370    1.8820    0.0170 c         1 AMB      0.942600
      6 O           1.3430    2.7740   -0.6890 o         1 AMB     -0.757300
      7 OXT         2.5450    1.9540    1.0540 o         1 AMB     -0.757300
      8 N           1.9600   -0.5770    0.5940 nz        1 AMB     -0.822600
      9 CA          1.5680    0.3700   -0.4920 c3        1 AMB     -0.031300
     10 HB         -0.2230    1.1610   -1.3910 ha        1 AMB      0.201000
     11 HG         -1.6300   -0.8940   -1.3340 h4        1 AMB      0.149000
     12 HE3        -0.4850   -4.0220   -0.0810 h1        1 AMB      0.046700
     13 HE2        -1.1220   -3.3760   -1.6810 h1        1 AMB      0.046700
     14 HE1        -2.0010   -2.9800   -0.1200 h1        1 AMB      0.046700
     15 H2          2.3750   -1.4230    0.2180 hn        1 AMB      0.447133
     16 H1          1.1370   -0.8280    1.1430 hn        1 AMB      0.447133
     17 HA          2.2770    0.2150   -1.3560 hx        1 AMB      0.095700
     18 HN3         2.6330   -0.0610    1.2020 hn        1 AMB      0.447133
@<TRIPOS>BOND
     1    1    2 2   
     2    1    9 1   
     3    1   10 1   
     4    2    3 1   
     5    2   11 1   
     6    3    4 1   
     7    4   12 1   
     8    4   13 1   
     9    4   14 1   
    10    5    6 1   
    11    5    7 1   
    12    5    9 1   
    13    8    9 1   
    14    8   15 1   
    15    8   16 1   
    16    8   18 1   
    17    9   17 1   
@<TRIPOS>SUBSTRUCTURE
     1 AMB         1 TEMP              0 ****  ****    0 ROOT
