@<TRIPOS>MOLECULE
AMC
   24    24     1     0     0
SMALL
bcc


@<TRIPOS>ATOM
      1 C1          0.0370    0.0260    0.0140 c3        1 AMC     -0.091700
      2 C2          1.5590    0.0220    0.0290 c3        1 AMC     -0.078900
      3 C3          2.0840   -0.0530    1.4500 c3        1 AMC     -0.077900
      4 C4          1.5310   -1.2580    2.1800 c3        1 AMC     -0.085400
      5 C5          0.0180   -1.2710    2.1520 c3        1 AMC     -0.077900
      6 C6         -0.5090   -1.2050    0.7340 c3        1 AMC     -0.078900
      7 CM         -0.5120    0.0120   -1.4150 c3        1 AMC      0.097800
      8 N          -0.2000    1.2610   -2.1710 n4        1 AMC     -0.838600
      9 H1         -0.3330    0.9420    0.5550 hc        1 AMC      0.072700
     10 H21         1.9580    0.9530   -0.4530 hc        1 AMC      0.046700
     11 H22         1.9390   -0.8580   -0.5550 hc        1 AMC      0.046700
     12 H31         1.8040    0.8830    2.0020 hc        1 AMC      0.060700
     13 H32         3.2040   -0.1070    1.4240 hc        1 AMC      0.060700
     14 H41         1.9250   -2.1980    1.7100 hc        1 AMC      0.061700
     15 H42         1.8860   -1.2430    3.2450 hc        1 AMC      0.061700
     16 H51        -0.3610   -2.2090    2.6380 hc        1 AMC      0.060700
     17 H52        -0.3790   -0.4030    2.7430 hc        1 AMC      0.060700
     18 H61        -0.2050   -2.1300    0.1760 hc        1 AMC      0.046700
     19 H62        -1.6300   -1.1650    0.7500 hc        1 AMC      0.046700
     20 HM1        -0.0690   -0.8540   -1.9880 hx        1 AMC      0.111700
     21 HM2        -1.6350   -0.1010   -1.3910 hx        1 AMC      0.111700
     22 HN1        -0.5950    2.0730   -1.6850 hn        1 AMC      0.460800
     23 HN2        -0.5930    1.2100   -3.1150 hn        1 AMC      0.460800
     24 HN3         0.8170    1.3840   -2.2350 hn        1 AMC      0.460800
@<TRIPOS>BOND
     1    1    2 1   
     2    1    6 1   
     3    1    7 1   
     4    1    9 1   
     5    2    3 1   
     6    2   10 1   
     7    2   11 1   
     8    3    4 1   
     9    3   12 1   
    10    3   13 1   
    11    4    5 1   
    12    4   14 1   
    13    4   15 1   
    14    5    6 1   
    15    5   16 1   
    16    5   17 1   
    17    6   18 1   
    18    6   19 1   
    19    7    8 1   
    20    7   20 1   
    21    7   21 1   
    22    8   22 1   
    23    8   23 1   
    24    8   24 1   
@<TRIPOS>SUBSTRUCTURE
     1 AMC         1 TEMP              0 ****  ****    0 ROOT
