@<TRIPOS>MOLECULE
AMC
   24    24     1     0     0
SMALL
bcc


@<TRIPOS>ATOM
      1 C1         -0.2870    0.2910   -0.3590 c3        1 AMC     -0.091700
      2 C2          1.2380    0.2700   -0.3550 c3        1 AMC     -0.078900
      3 C3          1.8110    0.2370    1.0440 c3        1 AMC     -0.077900
      4 C4          1.2130   -0.8690    1.8870 c3        1 AMC     -0.085400
      5 C5         -0.3120   -0.8480    1.8810 c3        1 AMC     -0.077900
      6 C6         -0.8840   -0.8140    0.4850 c3        1 AMC     -0.078900
      7 CM         -0.7860    0.1330   -1.8080 c3        1 AMC      0.097800
      8 N          -1.5770    1.2890   -2.1760 n4        1 AMC     -0.838600
      9 H1         -0.5880    1.1410   -0.0170 hc        1 AMC      0.072700
     10 H21         1.5680    1.0730   -0.8140 hc        1 AMC      0.046700
     11 H22         1.5460   -0.5250   -0.8430 hc        1 AMC      0.046700
     12 H31         1.6350    1.0950    1.4780 hc        1 AMC      0.060700
     13 H32         2.7880    0.1020    0.9870 hc        1 AMC      0.060700
     14 H41         1.5310   -0.7680    2.8220 hc        1 AMC      0.061700
     15 H42         1.5170   -1.7280    1.5420 hc        1 AMC      0.061700
     16 H51        -0.6190   -0.0560    2.3670 hc        1 AMC      0.060700
     17 H52        -0.6420   -1.6480    2.3390 hc        1 AMC      0.060700
     18 H61        -1.8580   -0.6790    0.5430 hc        1 AMC      0.046700
     19 H62        -0.7070   -1.6830    0.0470 hc        1 AMC      0.046700
     20 HM1        -0.0190    0.0570   -2.4110 hx        1 AMC      0.111700
     21 HM2        -1.3350   -0.6740   -1.8770 hx        1 AMC      0.111700
     22 HN1        -2.3370    1.3180   -1.6580 hn        1 AMC      0.460800
     23 HN2        -1.0820    2.0580   -2.0400 hn        1 AMC      0.460800
     24 HN3        -1.8140    1.2300   -3.0650 hn        1 AMC      0.460800
@<TRIPOS>BOND
     1    1    2 1   
     2    1    6 1   
     3    1    7 1   
     4    1    9 1   
     5    2    3 1   
     6    2   10 1   
     7    2   11 1   
     8    3    4 1   
     9    3   12 1   
    10    3   13 1   
    11    4    5 1   
    12    4   14 1   
    13    4   15 1   
    14    5    6 1   
    15    5   16 1   
    16    5   17 1   
    17    6   18 1   
    18    6   19 1   
    19    7    8 1   
    20    7   20 1   
    21    7   21 1   
    22    8   22 1   
    23    8   23 1   
    24    8   24 1   
@<TRIPOS>SUBSTRUCTURE
     1 AMC         1 TEMP              0 ****  ****    0 ROOT
