@<TRIPOS>MOLECULE
AMC
   24    24     1     0     0
SMALL
bcc


@<TRIPOS>ATOM
      1 C1          0.5100    0.2300    0.2470 c3        1 AMC     -0.091700
      2 C2          0.0380   -1.1110   -0.2950 c3        1 AMC     -0.078900
      3 C3         -1.3730   -1.4140    0.1730 c3        1 AMC     -0.077900
      4 C4         -2.3320   -0.3060   -0.2080 c3        1 AMC     -0.085400
      5 C5         -1.8570    1.0340    0.3120 c3        1 AMC     -0.077900
      6 C6         -0.4510    1.3430   -0.1610 c3        1 AMC     -0.078900
      7 CM          1.8980    0.5950   -0.2850 c3        1 AMC      0.097800
      8 N           2.9700   -0.3220    0.2040 n4        1 AMC     -0.838600
      9 H1          0.5360    0.1830    1.3730 hc        1 AMC      0.072700
     10 H21         0.0610   -1.0930   -1.4160 hc        1 AMC      0.046700
     11 H22         0.7160   -1.9350    0.0510 hc        1 AMC      0.046700
     12 H31        -1.3770   -1.5490    1.2870 hc        1 AMC      0.060700
     13 H32        -1.7110   -2.3810   -0.2850 hc        1 AMC      0.060700
     14 H41        -3.3470   -0.5320    0.2120 hc        1 AMC      0.061700
     15 H42        -2.4340   -0.2640   -1.3250 hc        1 AMC      0.061700
     16 H51        -1.8870    1.0370    1.4330 hc        1 AMC      0.060700
     17 H52        -2.5480    1.8430   -0.0450 hc        1 AMC      0.060700
     18 H61        -0.1120    2.3160    0.2820 hc        1 AMC      0.046700
     19 H62        -0.4460    1.4510   -1.2780 hc        1 AMC      0.046700
     20 HM1         2.1700    1.6410    0.0410 hx        1 AMC      0.111700
     21 HM2         1.9000    0.5510   -1.4130 hx        1 AMC      0.111700
     22 HN1         3.0070   -0.3040    1.2290 hn        1 AMC      0.460800
     23 HN2         3.8790   -0.0350   -0.1700 hn        1 AMC      0.460800
     24 HN3         2.7690   -1.2830   -0.0960 hn        1 AMC      0.460800
@<TRIPOS>BOND
     1    1    2 1   
     2    1    6 1   
     3    1    7 1   
     4    1    9 1   
     5    2    3 1   
     6    2   10 1   
     7    2   11 1   
     8    3    4 1   
     9    3   12 1   
    10    3   13 1   
    11    4    5 1   
    12    4   14 1   
    13    4   15 1   
    14    5    6 1   
    15    5   16 1   
    16    5   17 1   
    17    6   18 1   
    18    6   19 1   
    19    7    8 1   
    20    7   20 1   
    21    7   21 1   
    22    8   22 1   
    23    8   23 1   
    24    8   24 1   
@<TRIPOS>SUBSTRUCTURE
     1 AMC         1 TEMP              0 ****  ****    0 ROOT
