@<TRIPOS>MOLECULE
AMC
   24    24     1     0     0
SMALL
bcc


@<TRIPOS>ATOM
      1 C1          0.0390    0.0280    0.0140 c3        1 AMC     -0.091700
      2 C2          1.5610    0.0160    0.0290 c3        1 AMC     -0.078900
      3 C3          2.0850   -0.0620    1.4500 c3        1 AMC     -0.077900
      4 C4          1.5250   -1.2640    2.1810 c3        1 AMC     -0.085400
      5 C5          0.0110   -1.2680    2.1520 c3        1 AMC     -0.077900
      6 C6         -0.5150   -1.1990    0.7340 c3        1 AMC     -0.078900
      7 CM         -0.5100    0.0170   -1.4150 c3        1 AMC      0.097800
      8 N          -0.1910    1.2640   -2.1720 n4        1 AMC     -0.838600
      9 H1         -0.3260    0.9470    0.5540 hc        1 AMC      0.072700
     10 H21         1.9650    0.9440   -0.4530 hc        1 AMC      0.046700
     11 H22         1.9360   -0.8670   -0.5540 hc        1 AMC      0.046700
     12 H31         3.2040   -0.1230    1.4250 hc        1 AMC      0.060700
     13 H32         1.8100    0.8760    2.0020 hc        1 AMC      0.060700
     14 H41         1.8790   -1.2500    3.2450 hc        1 AMC      0.061700
     15 H42         1.9140   -2.2050    1.7100 hc        1 AMC      0.061700
     16 H51        -0.3800   -0.3980    2.7420 hc        1 AMC      0.060700
     17 H52        -0.3720   -2.2040    2.6390 hc        1 AMC      0.060700
     18 H61        -0.2160   -2.1260    0.1770 hc        1 AMC      0.046700
     19 H62        -1.6350   -1.1530    0.7500 hc        1 AMC      0.046700
     20 HM1        -0.0710   -0.8510   -1.9880 hx        1 AMC      0.111700
     21 HM2        -1.6330   -0.0890   -1.3920 hx        1 AMC      0.111700
     22 HN1         0.8270    1.3820   -2.2350 hn        1 AMC      0.460800
     23 HN2        -0.5840    1.2160   -3.1160 hn        1 AMC      0.460800
     24 HN3        -0.5820    2.0790   -1.6860 hn        1 AMC      0.460800
@<TRIPOS>BOND
     1    1    2 1   
     2    1    6 1   
     3    1    7 1   
     4    1    9 1   
     5    2    3 1   
     6    2   10 1   
     7    2   11 1   
     8    3    4 1   
     9    3   12 1   
    10    3   13 1   
    11    4    5 1   
    12    4   14 1   
    13    4   15 1   
    14    5    6 1   
    15    5   16 1   
    16    5   17 1   
    17    6   18 1   
    18    6   19 1   
    19    7    8 1   
    20    7   20 1   
    21    7   21 1   
    22    8   22 1   
    23    8   23 1   
    24    8   24 1   
@<TRIPOS>SUBSTRUCTURE
     1 AMC         1 TEMP              0 ****  ****    0 ROOT
