@<TRIPOS>MOLECULE
AMD
   48    50     1     0     0
SMALL
bcc


@<TRIPOS>ATOM
      1 P           0.8390    1.0360   -0.0790 p5        1 AMD      1.449800
      2 O1P         2.1610    0.4170    0.0050 o         1 AMD     -0.803500
      3 O2P         0.1060    1.9080    0.8610 o         1 AMD     -0.803500
      4 O3P        -0.3060   -0.1210   -0.5930 os        1 AMD     -0.524500
      5 O5'         0.7870    1.8670   -1.5040 os        1 AMD     -0.570200
      6 C5'        -0.3930    2.5450   -1.8000 c3        1 AMD      0.182400
      7 C4'        -0.1440    4.0600   -1.8510 c3        1 AMD      0.077100
      8 O4'        -1.4090    4.7360   -1.9170 os        1 AMD     -0.419600
      9 C1'        -1.6650    5.4630   -0.7060 c3        1 AMD      0.253800
     10 N9         -2.6870    4.8160    0.0920 na        1 AMD     -0.285000
     11 C4         -4.0530    5.1410    0.0680 ca        1 AMD      0.447800
     12 N3         -4.7290    6.1630   -0.5390 nb        1 AMD     -0.725000
     13 C2         -6.0590    6.1260   -0.3010 ca        1 AMD      0.660900
     14 N1         -6.7960    5.2510    0.4370 nb        1 AMD     -0.796000
     15 C6         -6.1210    4.2380    1.0720 ca        1 AMD      0.719200
     16 N6         -6.7830    3.3650    1.9220 nh        1 AMD     -0.938500
     17 C5         -4.7050    4.1320    0.8990 ca        1 AMD     -0.212200
     18 N7         -3.7510    3.2200    1.3780 nc        1 AMD     -0.577100
     19 C8         -2.5780    3.6370    0.8790 cd        1 AMD      0.438700
     20 C2'        -0.3140    5.6250    0.0240 c3        1 AMD     -0.107400
     21 C3'         0.6150    4.5950   -0.6190 c3        1 AMD      0.105100
     22 O3'         1.8100    5.2580   -1.0000 oh        1 AMD     -0.610800
     23 N          -1.8390   -3.0540    1.0550 n3        1 AMD     -0.915800
     24 CA         -1.6310   -2.0900   -0.0100 c3        1 AMD      0.117500
     25 CB         -2.9300   -1.3760   -0.4110 c3        1 AMD     -0.169400
     26 CG         -3.9380   -2.3260   -0.9800 c         1 AMD      0.640100
     27 OD1        -4.2600   -2.4400   -2.1650 o         1 AMD     -0.512000
     28 OD2        -4.6510   -3.1470   -0.1510 oh        1 AMD     -0.595100
     29 C          -0.5990   -1.0240    0.3330 c         1 AMD      0.637100
     30 O           0.0160   -0.9130    1.4050 o         1 AMD     -0.588000
     31 H5'1       -1.1870    2.3180   -1.0350 h1        1 AMD      0.039200
     32 H5'2       -0.7490    2.2130   -2.8160 h1        1 AMD      0.039200
     33 H4'         0.3930    4.3340   -2.7990 h1        1 AMD      0.071700
     34 H1'        -2.0840    6.4560   -1.0490 h2        1 AMD      0.101700
     35 H2         -6.6500    6.9310   -0.7860 h5        1 AMD      0.038100
     36 H61        -7.7690    3.2970    1.8380 hn        1 AMD      0.422800
     37 H62        -6.2960    2.5270    2.1410 hn        1 AMD      0.422800
     38 H8         -1.5950    3.1410    1.0520 h5        1 AMD      0.154800
     39 H2'1       -0.3910    5.4510    1.1240 hc        1 AMD      0.075200
     40 H2'2        0.0720    6.6610   -0.1470 hc        1 AMD      0.075200
     41 H3'         0.8430    3.7460    0.0910 h1        1 AMD      0.110700
     42 HO'3        2.4160    4.5650   -1.2930 ho        1 AMD      0.415000
     43 HA         -1.2420   -2.6390   -0.9210 h1        1 AMD      0.095700
     44 HB1        -2.6710   -0.6070   -1.1910 hc        1 AMD      0.098700
     45 HB2        -3.3770   -0.8430    0.4690 hc        1 AMD      0.098700
     46 HN2        -1.0590   -3.6820    1.1010 hn        1 AMD      0.363300
     47 H21        -1.9120   -2.5810    1.9370 hn        1 AMD      0.363300
     48 H          -4.2870   -3.1100    0.7440 ho        1 AMD      0.439000
@<TRIPOS>BOND
     1    1    2 1   
     2    1    3 1   
     3    1    4 1   
     4    1    5 1   
     5    4   29 1   
     6    5    6 1   
     7    6    7 1   
     8    6   31 1   
     9    6   32 1   
    10    7    8 1   
    11    7   21 1   
    12    7   33 1   
    13    8    9 1   
    14    9   10 1   
    15    9   20 1   
    16    9   34 1   
    17   10   11 1   
    18   10   19 1   
    19   11   12 ar  
    20   11   17 ar  
    21   12   13 ar  
    22   13   14 ar  
    23   13   35 1   
    24   14   15 ar  
    25   15   16 1   
    26   15   17 ar  
    27   16   36 1   
    28   16   37 1   
    29   17   18 1   
    30   18   19 2   
    31   19   38 1   
    32   20   21 1   
    33   20   39 1   
    34   20   40 1   
    35   21   22 1   
    36   21   41 1   
    37   22   42 1   
    38   23   24 1   
    39   23   46 1   
    40   23   47 1   
    41   24   25 1   
    42   24   29 1   
    43   24   43 1   
    44   25   26 1   
    45   25   44 1   
    46   25   45 1   
    47   26   27 2   
    48   26   28 1   
    49   28   48 1   
    50   29   30 2   
@<TRIPOS>SUBSTRUCTURE
     1 AMD         1 TEMP              0 ****  ****    0 ROOT
