@<TRIPOS>MOLECULE
AMD
   47    43     1     0     0
SMALL
bcc


@<TRIPOS>ATOM
      1 P          -0.1630    2.7440    1.9310 p3        1 AMD      2.572000
      2 O1P         0.4720    4.0440    1.5790 o         1 AMD     -1.109000
      3 O2P         0.8090    1.9120    2.7810 os        1 AMD     -1.172000
      4 O3P        -1.4980    3.0120    2.7610 os        1 AMD     -0.702000
      5 O5'        -0.5230    1.9350    0.5730 os        1 AMD     -0.731000
      6 C5'         0.4650    1.1530   -0.0110 c3        1 AMD      0.039000
      7 C4'        -0.1640    0.1370   -0.8840 c3        1 AMD     -0.039000
      8 O4'         0.3110    0.2270   -2.0850 os        1 AMD     -0.284000
      9 C1'         0.3330   -1.2190   -2.6110 c3        1 AMD      0.161000
     10 N9          1.4860   -1.4880   -3.1330 n3        1 AMD     -0.197000
     11 C4          1.5080   -2.2040   -4.3110 c1        1 AMD      0.046000
     12 N3          0.5380   -2.8600   -4.9910 n1        1 AMD     -0.195000
     13 C2          0.8480   -3.5580   -6.1220 c1        1 AMD     -0.016000
     14 N1          2.1400   -3.5960   -6.5710 n1        1 AMD     -0.275000
     15 C6          3.1010   -2.9490   -5.9000 c1        1 AMD      0.182000
     16 N6          4.3880   -3.2370   -6.4540 n2        1 AMD     -0.331000
     17 C5          2.7860   -2.2410   -4.7520 c1        1 AMD     -0.212000
     18 N7          3.5640   -1.5500   -3.8530 n1        1 AMD     -0.154000
     19 C8          2.7560   -1.0900   -2.8600 c1        1 AMD      0.001000
     20 C2'         0.0800   -2.1270   -1.3720 c3        1 AMD     -0.193000
     21 C3'         0.2080   -1.3510   -0.3590 c3        1 AMD      0.001000
     22 O3'        -0.7100   -1.7530    0.7010 oh        1 AMD     -0.341000
     23 N          -2.0660    1.3430    5.7240 n3        1 AMD     -0.340000
     24 CA         -2.5400    2.4890    4.9870 c3        1 AMD     -0.004000
     25 CB         -3.0330    3.5490    5.9590 c3        1 AMD     -0.255000
     26 CG         -4.3510    3.1090    6.5660 c2        1 AMD      0.327000
     27 OD1        -4.4330    2.9130    7.7940 o         1 AMD     -0.592500
     28 OD2        -5.4030    3.0720    5.8440 o         1 AMD     -0.592500
     29 C          -1.4220    3.0510    4.1600 c2        1 AMD      0.348000
     30 O          -0.4430    3.5420    4.7080 o         1 AMD     -0.421000
     31 H5'1        1.0630    1.7230   -0.5480 h1        1 AMD      0.069500
     32 H5'2        0.9750    0.7120    0.6790 h1        1 AMD      0.069500
     33 H4'        -1.1550    0.2600   -0.8960 h1        1 AMD      0.113000
     34 H1'        -0.3510   -1.3430   -3.2520 h2        1 AMD      0.131000
     35 H2          0.1410   -4.0330   -6.6150 ha        1 AMD      0.167000
     36 H61         4.4840   -3.9260   -7.0770 hn        1 AMD      0.209500
     37 H62         5.1310   -2.7250   -6.2050 hn        1 AMD      0.209500
     38 H8          3.0470   -0.6260   -2.0610 DU        1 AMD      0.301000
     39 H2'1       -0.8190   -2.4970   -1.4020 hc        1 AMD      0.111000
     40 H2'2        0.7200   -2.8200   -1.3390 hc        1 AMD      0.111000
     41 H3'         1.1270   -1.3710   -0.0340 h1        1 AMD      0.156000
     42 HO'3       -0.3020   -2.3130    1.2470 ho        1 AMD      0.240000
     43 H          -1.5040    0.8140    5.1650 hn        1 AMD      0.158000
     44 HN2        -2.7880    0.8350    6.0050 hn        1 AMD      0.158000
     45 HA         -3.2810    2.2150    4.3960 h1        1 AMD      0.111000
     46 HB1        -2.3720    3.6710    6.6670 hc        1 AMD      0.084500
     47 HB2        -3.1630    4.4150    5.4710 hc        1 AMD      0.084500
@<TRIPOS>BOND
     1    1    2 1   
     2    1    4 1   
     3    1    5 1   
     4    4   29 1   
     5    5    6 1   
     6    6    7 1   
     7    6   31 1   
     8    6   32 1   
     9    7    8 1   
    10    7   21 1   
    11    7   33 1   
    12    8    9 1   
    13    9   10 1   
    14    9   20 1   
    15    9   34 1   
    16   10   11 1   
    17   10   19 1   
    18   11   17 1   
    19   12   13 1   
    20   13   35 1   
    21   14   15 1   
    22   15   17 1   
    23   16   36 1   
    24   16   37 1   
    25   18   19 1   
    26   20   21 1   
    27   20   39 1   
    28   20   40 1   
    29   21   22 1   
    30   21   41 1   
    31   22   42 1   
    32   23   24 1   
    33   23   43 1   
    34   23   44 1   
    35   24   25 1   
    36   24   29 1   
    37   24   45 1   
    38   25   26 1   
    39   25   46 1   
    40   25   47 1   
    41   26   27 1   
    42   26   28 1   
    43   29   30 1   
@<TRIPOS>SUBSTRUCTURE
     1 AMD         1 TEMP              0 ****  ****    0 ROOT
