@<TRIPOS>MOLECULE
AMD
   49    51     1     0     0
SMALL
bcc


@<TRIPOS>ATOM
      1 P          -1.5930    2.1820    2.1550 p5        1 AMD      1.509800
      2 O1P        -0.4010    1.9560    2.9670 o         1 AMD     -0.831500
      3 O2P        -2.9920    2.4640    2.5490 o         1 AMD     -0.831500
      4 O3P        -1.6460    0.9750    0.9740 os        1 AMD     -0.539500
      5 O5'        -1.2350    3.3520    1.0500 os        1 AMD     -0.580200
      6 C5'         0.0710    3.3290    0.5570 c3        1 AMD      0.182400
      7 C4'         0.1440    3.7150   -0.9210 c3        1 AMD      0.082100
      8 O4'        -0.7650    2.9410   -1.7200 os        1 AMD     -0.401600
      9 C1'        -1.7230    3.7870   -2.3690 c3        1 AMD      0.250800
     10 N9         -3.0270    3.6550   -1.7230 na        1 AMD     -0.275000
     11 C4         -3.5530    4.4490   -0.6790 ca        1 AMD      0.488800
     12 N3         -3.3940    5.7520   -0.3470 nb        1 AMD     -0.658000
     13 C2         -4.0930    6.1380    0.7540 ca        1 AMD      0.664900
     14 N1         -4.8660    5.3880    1.5840 nb        1 AMD     -0.705000
     15 C6         -5.0020    4.0740    1.2550 ca        1 AMD      0.577200
     16 N6         -5.6220    3.1440    2.2080 n4        1 AMD     -0.837300
     17 C5         -4.4550    3.5490    0.0740 ca        1 AMD     -0.110200
     18 N7         -4.4790    2.2810   -0.5240 nc        1 AMD     -0.598100
     19 C8         -3.6120    2.3660   -1.5430 cd        1 AMD      0.508700
     20 C2'        -1.1210    5.2020   -2.3850 c3        1 AMD     -0.104400
     21 C3'        -0.1520    5.2070   -1.1970 c3        1 AMD      0.118100
     22 O3'         1.0160    5.8990   -1.6010 oh        1 AMD     -0.594800
     23 N          -1.7080   -2.6840    0.9650 n3        1 AMD     -0.913800
     24 CA         -1.8950   -1.3660    0.3980 c3        1 AMD      0.119500
     25 CB         -3.1720   -1.2720   -0.4590 c3        1 AMD     -0.178400
     26 CG         -2.8640   -1.4580   -1.9130 c         1 AMD      0.642100
     27 OD1        -3.1200   -0.6520   -2.8130 o         1 AMD     -0.527000
     28 OD2        -2.2640   -2.6000   -2.3470 oh        1 AMD     -0.577100
     29 C          -1.9530   -0.2400    1.4190 c         1 AMD      0.639100
     30 O          -2.2560   -0.3000    2.6200 o         1 AMD     -0.584000
     31 H5'1        0.6960    4.0790    1.1240 h1        1 AMD      0.044200
     32 H5'2        0.5110    2.3010    0.6950 h1        1 AMD      0.044200
     33 H4'         1.1700    3.4490   -1.3060 h1        1 AMD      0.074700
     34 H1'        -1.8520    3.3510   -3.4040 h2        1 AMD      0.101700
     35 H2         -3.9960    7.2090    1.0360 h5        1 AMD      0.071100
     36 H61        -6.1430    3.6380    2.9320 hn        1 AMD      0.485467
     37 H62        -6.2300    2.4990    1.7020 hn        1 AMD      0.485467
     38 H8         -3.3500    1.5250   -2.2160 h5        1 AMD      0.120800
     39 H2'1       -0.5490    5.3320   -3.3400 hc        1 AMD      0.090200
     40 H2'2       -1.8710    6.0230   -2.3220 hc        1 AMD      0.090200
     41 H3'        -0.6040    5.6940   -0.2930 h1        1 AMD      0.076700
     42 HO'3        1.5850    5.9560   -0.8250 ho        1 AMD      0.409000
     43 HA         -1.0000   -1.1480   -0.2640 h1        1 AMD      0.101700
     44 HB1        -3.9330   -2.0360   -0.1510 hc        1 AMD      0.095700
     45 HB2        -3.6310   -0.2550   -0.3290 hc        1 AMD      0.095700
     46 HN2        -0.8050   -2.7520    1.3930 hn        1 AMD      0.370300
     47 H63        -4.8210    2.6060    2.6470 hn        1 AMD      0.485467
     48 H21        -2.4090   -2.8760    1.6550 hn        1 AMD      0.370300
     49 H          -2.0610   -3.1750   -1.5920 ho        1 AMD      0.448000
@<TRIPOS>BOND
     1    1    2 1   
     2    1    3 1   
     3    1    4 1   
     4    1    5 1   
     5    4   29 1   
     6    5    6 1   
     7    6    7 1   
     8    6   31 1   
     9    6   32 1   
    10    7    8 1   
    11    7   21 1   
    12    7   33 1   
    13    8    9 1   
    14    9   10 1   
    15    9   20 1   
    16    9   34 1   
    17   10   11 1   
    18   10   19 1   
    19   11   12 ar  
    20   11   17 ar  
    21   12   13 ar  
    22   13   14 ar  
    23   13   35 1   
    24   14   15 ar  
    25   15   16 1   
    26   15   17 ar  
    27   16   36 1   
    28   16   37 1   
    29   16   47 1   
    30   17   18 1   
    31   18   19 2   
    32   19   38 1   
    33   20   21 1   
    34   20   39 1   
    35   20   40 1   
    36   21   22 1   
    37   21   41 1   
    38   22   42 1   
    39   23   24 1   
    40   23   46 1   
    41   23   48 1   
    42   24   25 1   
    43   24   29 1   
    44   24   43 1   
    45   25   26 1   
    46   25   44 1   
    47   25   45 1   
    48   26   27 2   
    49   26   28 1   
    50   28   49 1   
    51   29   30 2   
@<TRIPOS>SUBSTRUCTURE
     1 AMD         1 TEMP              0 ****  ****    0 ROOT
