@<TRIPOS>MOLECULE
AMD
   47    49     1     0     0
SMALL
bcc


@<TRIPOS>ATOM
      1 P           1.6540    2.1520    0.3150 p5        1 AMD      1.464800
      2 O1P         0.4660    1.6640    1.0540 o         1 AMD     -0.825500
      3 O2P         2.4720    3.3300    0.6200 o         1 AMD     -0.825500
      4 O3P         2.5570    0.8540   -0.2300 os        1 AMD     -0.552500
      5 O5'         1.0190    2.4700   -1.1920 os        1 AMD     -0.574200
      6 C5'         0.0140    1.6270   -1.6470 c3        1 AMD      0.188400
      7 C4'        -1.2950    2.4200   -1.8050 c3        1 AMD      0.076100
      8 O4'        -2.3890    1.5080   -2.0000 os        1 AMD     -0.422600
      9 C1'        -3.3190    1.5820   -0.9100 c3        1 AMD      0.256800
     10 N9         -3.2570    0.3960   -0.0800 na        1 AMD     -0.286000
     11 C4         -4.1800   -0.6610   -0.1180 ca        1 AMD      0.437800
     12 N3         -5.3570   -0.8160   -0.8000 nb        1 AMD     -0.729000
     13 C2         -5.9500   -2.0050   -0.5550 ca        1 AMD      0.648900
     14 N1         -5.5640   -3.0360    0.2470 nb        1 AMD     -0.801000
     15 C6         -4.3990   -2.8760    0.9560 ca        1 AMD      0.708200
     16 N6         -3.9780   -3.8360    1.8690 nh        1 AMD     -0.929500
     17 C5         -3.6490   -1.6690    0.7960 ca        1 AMD     -0.200200
     18 N7         -2.4360   -1.2250    1.3430 nc        1 AMD     -0.567100
     19 C8         -2.2180   -0.0180    0.8000 cd        1 AMD      0.453700
     20 C2'        -3.0280    2.8920   -0.1440 c3        1 AMD     -0.109400
     21 C3'        -1.6190    3.2950   -0.5760 c3        1 AMD      0.103100
     22 O3'        -1.6270    4.6720   -0.9160 oh        1 AMD     -0.621800
     23 N           5.6030   -0.6220    0.7270 n3        1 AMD     -0.906800
     24 CA          4.2490   -0.8540    0.2470 c3        1 AMD      0.143500
     25 CB          3.6090   -2.1820    0.6730 c3        1 AMD     -0.226400
     26 CG          4.4750   -3.3970    0.3050 c         1 AMD      0.907600
     27 OD1         5.6440   -3.4870    0.7950 o         1 AMD     -0.858300
     28 OD2         3.9790   -4.2800   -0.4500 o         1 AMD     -0.858300
     29 C           3.3370    0.2740    0.6950 c         1 AMD      0.685100
     30 O           3.1890    0.7670    1.8270 o         1 AMD     -0.615000
     31 H5'1        0.3050    1.2280   -2.6590 h1        1 AMD      0.039700
     32 H5'2       -0.1460    0.7660   -0.9400 h1        1 AMD      0.039700
     33 H4'        -1.2590    3.0480   -2.7360 h1        1 AMD      0.059700
     34 H1'        -4.3380    1.5990   -1.3990 h2        1 AMD      0.089700
     35 H2         -6.9020   -2.1790   -1.0990 h5        1 AMD      0.028100
     36 H61        -3.0180   -3.7710    2.1280 hn        1 AMD      0.418300
     37 H62        -4.3240   -4.7580    1.7410 hn        1 AMD      0.418300
     38 H8         -1.3210    0.6220    0.9980 h5        1 AMD      0.170800
     39 H2'1       -3.7710    3.6690   -0.4520 hc        1 AMD      0.067700
     40 H2'2       -3.0800    2.7670    0.9630 hc        1 AMD      0.067700
     41 H3'        -0.8640    3.0940    0.2440 h1        1 AMD      0.123700
     42 HO'3       -0.6990    4.9130   -1.0380 ho        1 AMD      0.422000
     43 HA          4.2930   -0.8300   -0.8830 h1        1 AMD      0.078700
     44 HB1         3.4550   -2.1870    1.7810 hc        1 AMD      0.044200
     45 HB2         2.6120   -2.2780    0.1750 hc        1 AMD      0.044200
     46 H           5.5850   -0.5220    1.7260 hn        1 AMD      0.361800
     47 HN2         6.1540   -1.4400    0.5120 hn        1 AMD      0.361800
@<TRIPOS>BOND
     1    1    2 1   
     2    1    3 1   
     3    1    4 1   
     4    1    5 1   
     5    4   29 1   
     6    5    6 1   
     7    6    7 1   
     8    6   31 1   
     9    6   32 1   
    10    7    8 1   
    11    7   21 1   
    12    7   33 1   
    13    8    9 1   
    14    9   10 1   
    15    9   20 1   
    16    9   34 1   
    17   10   11 1   
    18   10   19 1   
    19   11   12 ar  
    20   11   17 ar  
    21   12   13 ar  
    22   13   14 ar  
    23   13   35 1   
    24   14   15 ar  
    25   15   16 1   
    26   15   17 ar  
    27   16   36 1   
    28   16   37 1   
    29   17   18 1   
    30   18   19 2   
    31   19   38 1   
    32   20   21 1   
    33   20   39 1   
    34   20   40 1   
    35   21   22 1   
    36   21   41 1   
    37   22   42 1   
    38   23   24 1   
    39   23   46 1   
    40   23   47 1   
    41   24   25 1   
    42   24   29 1   
    43   24   43 1   
    44   25   26 1   
    45   25   44 1   
    46   25   45 1   
    47   26   27 1   
    48   26   28 1   
    49   29   30 2   
@<TRIPOS>SUBSTRUCTURE
     1 AMD         1 TEMP              0 ****  ****    0 ROOT
