@<TRIPOS>MOLECULE
AMD
   48    50     1     0     0
SMALL
bcc


@<TRIPOS>ATOM
      1 P           0.8360    1.0290   -0.0840 p5        1 AMD      1.449800
      2 O1P         2.1560    0.4050   -0.0040 o         1 AMD     -0.803500
      3 O2P         0.1010    1.8870    0.8660 o         1 AMD     -0.803500
      4 O3P        -0.3100   -0.1160   -0.6220 os        1 AMD     -0.524500
      5 O5'         0.7940    1.8840   -1.4950 os        1 AMD     -0.570200
      6 C5'        -0.3830    2.5700   -1.7860 c3        1 AMD      0.182400
      7 C4'        -0.1300    4.0850   -1.8100 c3        1 AMD      0.077100
      8 O4'        -1.3930    4.7660   -1.8710 os        1 AMD     -0.419600
      9 C1'        -1.6540    5.4730   -0.6490 c3        1 AMD      0.253800
     10 N9         -2.6810    4.8140    0.1320 na        1 AMD     -0.285000
     11 C4         -4.0470    5.1430    0.1060 ca        1 AMD      0.447800
     12 N3         -4.7170    6.1770   -0.4870 nb        1 AMD     -0.725000
     13 C2         -6.0480    6.1380   -0.2560 ca        1 AMD      0.660900
     14 N1         -6.7910    5.2530    0.4630 nb        1 AMD     -0.796000
     15 C6         -6.1220    4.2280    1.0850 ca        1 AMD      0.719200
     16 N6         -6.7900    3.3420    1.9160 nv        1 AMD     -0.938500
     17 C5         -4.7050    4.1220    0.9170 ca        1 AMD     -0.212200
     18 N7         -3.7560    3.2000    1.3850 nc        1 AMD     -0.577100
     19 C8         -2.5790    3.6220    0.9000 cd        1 AMD      0.438700
     20 C2'        -0.3060    5.6190    0.0910 c3        1 AMD     -0.107400
     21 C3'         0.6240    4.5980   -0.5650 c3        1 AMD      0.105100
     22 O3'         1.8230    5.2630   -0.9280 oh        1 AMD     -0.610800
     23 N          -1.8610   -3.0700    0.9690 n8        1 AMD     -0.915800
     24 CA         -1.6440   -2.0900   -0.0790 c3        1 AMD      0.117500
     25 CB         -2.9390   -1.3650   -0.4750 c3        1 AMD     -0.169400
     26 CG         -3.9470   -2.3030   -1.0650 c         1 AMD      0.640100
     27 OD1        -4.2620   -2.3960   -2.2530 o         1 AMD     -0.512000
     28 OD2        -4.6670   -3.1340   -0.2540 oh        1 AMD     -0.595100
     29 C          -0.6110   -1.0340    0.2860 c         1 AMD      0.637100
     30 O           0.0000   -0.9420    1.3630 o         1 AMD     -0.588000
     31 H5'1       -0.7350    2.2560   -2.8080 h1        1 AMD      0.039200
     32 H5'2       -1.1810    2.3320   -1.0290 h1        1 AMD      0.039200
     33 H4'         0.4130    4.3740   -2.7500 h1        1 AMD      0.071700
     34 H1'        -2.0690    6.4720   -0.9770 h2        1 AMD      0.101700
     35 H2         -6.6350    6.9530   -0.7310 h5        1 AMD      0.038100
     36 H61        -6.3070    2.5000    2.1230 hn        1 AMD      0.422800
     37 H62        -7.7760    3.2780    1.8250 hn        1 AMD      0.422800
     38 H8         -1.5980    3.1210    1.0700 h5        1 AMD      0.154800
     39 H2'1        0.0840    6.6560   -0.0610 hc        1 AMD      0.075200
     40 H2'2       -0.3890    5.4260    1.1870 hc        1 AMD      0.075200
     41 H3'         0.8460    3.7360    0.1320 h1        1 AMD      0.110700
     42 HO'3        2.4280    4.5740   -1.2300 ho        1 AMD      0.415000
     43 HA         -1.2520   -2.6260   -0.9970 h1        1 AMD      0.095700
     44 HB1        -3.3880   -0.8440    0.4110 hc        1 AMD      0.098700
     45 HB2        -2.6730   -0.5850   -1.2420 hc        1 AMD      0.098700
     46 HN2        -4.3080   -3.1120    0.6440 ho        1 AMD      0.439000
     47 H21        -1.0830   -3.7010    1.0090 hn        1 AMD      0.363300
     48 H          -1.9380   -2.6110    1.8590 hn        1 AMD      0.363300
@<TRIPOS>BOND
     1    1    2 1   
     2    1    3 1   
     3    1    4 1   
     4    1    5 1   
     5    4   29 1   
     6    5    6 1   
     7    6    7 1   
     8    6   31 1   
     9    6   32 1   
    10    7    8 1   
    11    7   21 1   
    12    7   33 1   
    13    8    9 1   
    14    9   10 1   
    15    9   20 1   
    16    9   34 1   
    17   10   11 1   
    18   10   19 1   
    19   11   12 ar  
    20   11   17 ar  
    21   12   13 ar  
    22   13   14 ar  
    23   13   35 1   
    24   14   15 ar  
    25   15   16 1   
    26   15   17 ar  
    27   16   36 1   
    28   16   37 1   
    29   17   18 1   
    30   18   19 2   
    31   19   38 1   
    32   20   21 1   
    33   20   39 1   
    34   20   40 1   
    35   21   22 1   
    36   21   41 1   
    37   22   42 1   
    38   23   24 1   
    39   23   47 1   
    40   23   48 1   
    41   24   25 1   
    42   24   29 1   
    43   24   43 1   
    44   25   26 1   
    45   25   44 1   
    46   25   45 1   
    47   26   27 2   
    48   26   28 1   
    49   28   46 1   
    50   29   30 2   
@<TRIPOS>SUBSTRUCTURE
     1 AMD         1 TEMP              0 ****  ****    0 ROOT
