@<TRIPOS>MOLECULE
AME
   24    22     1     0     0
SMALL
bcc


@<TRIPOS>ATOM
      1 CT2        -3.8180    0.5550    1.6940 c3        1 AME     -0.243000
      2 CT1        -2.3080    0.6490    1.6690 c2        1 AME      0.285000
      3 OT         -1.6880    0.7480    2.7080 o         1 AME     -0.417000
      4 CB          0.3070    0.1240   -0.9120 c3        1 AME     -0.140000
      5 CG          1.5480   -0.7100   -0.6780 c3        1 AME     -0.260000
      6 SD          2.1980   -1.2530   -2.2350 ss        1 AME     -0.018000
      7 CE          3.5830   -2.3240   -1.9560 c3        1 AME     -0.322000
      8 C           0.2570    2.0930    0.5770 c1        1 AME      0.328000
      9 O          -0.2520    3.0020   -0.1310 o         1 AME     -0.573000
     10 OXT         1.1450    2.3770    1.4220 os        1 AME     -0.561000
     11 N          -1.6160    0.6070    0.4310 n         1 AME     -0.332000
     12 CA         -0.1970    0.6600    0.4090 c3        1 AME     -0.070000
     13 HT23       -4.1020   -0.2720    1.2520 hc        1 AME      0.089000
     14 HT22       -4.1290    0.5520    2.6240 hc        1 AME      0.089000
     15 HT21       -4.2010    1.3250    1.2240 hc        1 AME      0.089000
     16 HB2         0.5230    0.8700   -1.5060 hc        1 AME      0.077000
     17 HB1        -0.3850   -0.4310   -1.3240 hc        1 AME      0.077000
     18 HG2         1.3190   -1.4880   -0.1300 h1        1 AME      0.133500
     19 HG1         2.2200   -0.1710   -0.2140 h1        1 AME      0.133500
     20 HE3         3.3390   -3.0100   -1.2990 h1        1 AME      0.098000
     21 HE2         3.8380   -2.7550   -2.7980 h1        1 AME      0.098000
     22 HE1         4.3380   -1.8000   -1.6150 h1        1 AME      0.098000
     23 HN1        -2.0810    0.5340   -0.3500 hn        1 AME      0.239000
     24 HA          0.1610    0.1170    1.1390 h1        1 AME      0.103000
@<TRIPOS>BOND
     1    1    2 1   
     2    1   13 1   
     3    1   14 1   
     4    1   15 1   
     5    2    3 1   
     6    2   11 1   
     7    4    5 1   
     8    4   12 1   
     9    4   16 1   
    10    4   17 1   
    11    5    6 1   
    12    5   18 1   
    13    5   19 1   
    14    6    7 1   
    15    7   20 1   
    16    7   21 1   
    17    7   22 1   
    18    8    9 1   
    19    8   12 1   
    20   11   12 1   
    21   11   23 1   
    22   12   24 1   
@<TRIPOS>SUBSTRUCTURE
     1 AME         1 TEMP              0 ****  ****    0 ROOT
