@<TRIPOS>MOLECULE
AME
   25    24     1     0     0
SMALL
bcc


@<TRIPOS>ATOM
      1 CT2         0.5910    0.3710    0.0440 c3        1 AME     -0.189100
      2 CT1         0.9010   -0.7300   -0.9110 c         1 AME      0.564100
      3 OT          0.3650   -1.8350   -0.9680 o         1 AME     -0.486100
      4 CB          4.4780   -0.5140   -2.1530 c3        1 AME     -0.084400
      5 CG          4.6640   -1.9840   -2.4190 c3        1 AME     -0.021300
      6 SD          3.5270   -2.4790   -3.6960 ss        1 AME     -0.334200
      7 CE          3.3270   -4.2010   -3.4130 c3        1 AME     -0.036000
      8 C           3.3830    1.3730   -0.8840 c         1 AME      0.928600
      9 O           4.2900    1.6660   -0.0870 o         1 AME     -0.764800
     10 OXT         2.5150    2.1030   -1.4300 o         1 AME     -0.764800
     11 N           1.9740   -0.4680   -1.9150 n4        1 AME     -0.679800
     12 CA          3.2940   -0.1850   -1.2580 c3        1 AME     -0.057500
     13 HT23        0.5090    1.3590   -0.4860 hc        1 AME      0.112033
     14 HT22       -0.3600    0.1370    0.5810 hc        1 AME      0.112033
     15 HT21        1.4310    0.4690    0.7810 hc        1 AME      0.112033
     16 HB2         5.3840   -0.1160   -1.6100 hc        1 AME      0.097200
     17 HB1         4.4070    0.0500   -3.1220 hc        1 AME      0.097200
     18 HG2         4.4940   -2.5890   -1.4960 h1        1 AME      0.076200
     19 HG1         5.7080   -2.1790   -2.7670 h1        1 AME      0.076200
     20 HE3         2.6100   -4.5620   -4.1870 h1        1 AME      0.072700
     21 HE2         2.9130   -4.4110   -2.4020 h1        1 AME      0.072700
     22 HE1         4.2900   -4.7460   -3.5280 h1        1 AME      0.072700
     23 HN1         2.0650   -1.2630   -2.5820 hn        1 AME      0.470800
     24 HA          3.3510   -0.7820   -0.3080 hx        1 AME      0.084700
     25 H2          1.7310    0.4080   -2.4210 hn        1 AME      0.470800
@<TRIPOS>BOND
     1    1    2 1   
     2    1   13 1   
     3    1   14 1   
     4    1   15 1   
     5    2    3 2   
     6    2   11 1   
     7    4    5 1   
     8    4   12 1   
     9    4   16 1   
    10    4   17 1   
    11    5    6 1   
    12    5   18 1   
    13    5   19 1   
    14    6    7 1   
    15    7   20 1   
    16    7   21 1   
    17    7   22 1   
    18    8    9 1   
    19    8   10 1   
    20    8   12 1   
    21   11   12 1   
    22   11   23 1   
    23   11   25 1   
    24   12   24 1   
@<TRIPOS>SUBSTRUCTURE
     1 AME         1 TEMP              0 ****  ****    0 ROOT
