@<TRIPOS>MOLECULE
AME
   25    24     1     0     0
SMALL
bcc


@<TRIPOS>ATOM
      1 CT2         0.2480    0.3450   -0.2830 c3        1 AME     -0.196100
      2 CT1         1.0030   -0.8040   -0.8630 c         1 AME      0.565100
      3 OT          0.8500   -1.9930   -0.5960 o         1 AME     -0.485100
      4 CB          4.5430   -0.4910   -2.1300 c3        1 AME     -0.085400
      5 CG          4.7440   -1.9680   -2.3340 c3        1 AME     -0.020300
      6 SD          3.6210   -2.5270   -3.6000 ss        1 AME     -0.336200
      7 CE          3.3900   -4.2250   -3.2110 c3        1 AME     -0.037000
      8 C           3.4240    1.4350   -0.9430 c         1 AME      0.929600
      9 O           4.3930    1.7910   -0.2520 o         1 AME     -0.765300
     10 OXT         2.4840    2.1170   -1.4310 o         1 AME     -0.765300
     11 N           2.0380   -0.4770   -1.8870 ny        1 AME     -0.681800
     12 CA          3.3560   -0.1370   -1.2480 c3        1 AME     -0.054500
     13 HT23       -0.5910    0.6160   -0.9740 hc        1 AME      0.111700
     14 HT22        0.9070    1.2520   -0.1590 hc        1 AME      0.111700
     15 HT21       -0.1720    0.0420    0.7070 hc        1 AME      0.111700
     16 HB2         5.4450   -0.0590   -1.6040 hc        1 AME      0.097700
     17 HB1         4.4660    0.0320   -3.1210 hc        1 AME      0.097700
     18 HG2         5.7920   -2.1680   -2.6690 h1        1 AME      0.077700
     19 HG1         4.5720   -2.5370   -1.3890 h1        1 AME      0.077700
     20 HE3         4.3490   -4.7870   -3.2620 h1        1 AME      0.073367
     21 HE2         2.6920   -4.6280   -3.9800 h1        1 AME      0.073367
     22 HE1         2.9450   -4.3630   -2.2010 h1        1 AME      0.073367
     23 HN1         1.7470    0.3840   -2.3900 hn        1 AME      0.470300
     24 HA          3.4240   -0.6880   -0.2700 hx        1 AME      0.089700
     25 H2          2.1670   -1.2710   -2.5510 hn        1 AME      0.470300
@<TRIPOS>BOND
     1    1    2 1   
     2    1   13 1   
     3    1   14 1   
     4    1   15 1   
     5    2    3 2   
     6    2   11 1   
     7    4    5 1   
     8    4   12 1   
     9    4   16 1   
    10    4   17 1   
    11    5    6 1   
    12    5   18 1   
    13    5   19 1   
    14    6    7 1   
    15    7   20 1   
    16    7   21 1   
    17    7   22 1   
    18    8    9 1   
    19    8   10 1   
    20    8   12 1   
    21   11   12 1   
    22   11   23 1   
    23   11   25 1   
    24   12   24 1   
@<TRIPOS>SUBSTRUCTURE
     1 AME         1 TEMP              0 ****  ****    0 ROOT
