@<TRIPOS>MOLECULE
AME
   24    23     1     0     0
SMALL
bcc


@<TRIPOS>ATOM
      1 CT2        -2.2850    2.8790    0.6820 c3        1 AME     -0.175100
      2 CT1        -1.3930    1.8710   -0.0160 c         1 AME      0.640100
      3 OT         -0.7250    2.2240   -1.0180 o         1 AME     -0.667100
      4 CB          0.7130   -0.8020    0.2690 c3        1 AME     -0.066400
      5 CG          1.6610    0.1580   -0.3990 c3        1 AME      0.009700
      6 SD          3.2630   -0.0130    0.3590 ss        1 AME     -0.347200
      7 CE          4.1910    1.2010   -0.4980 c3        1 AME     -0.033000
      8 C          -1.5760   -1.8360    0.1370 c         1 AME      0.913600
      9 O          -2.4950   -1.7960    1.0020 o         1 AME     -0.828300
     10 OXT        -1.2630   -2.8440   -0.5480 o         1 AME     -0.828300
     11 N          -1.3180    0.6200    0.5340 n         1 AME     -0.517900
     12 CA         -0.7420   -0.5260   -0.1370 c3        1 AME     -0.045300
     13 HT23       -1.9740    3.0080    1.7460 hc        1 AME      0.050033
     14 HT22       -3.3470    2.5370    0.6540 hc        1 AME      0.050033
     15 HT21       -2.2020    3.8590    0.1560 hc        1 AME      0.050033
     16 HB2         0.8250   -0.7460    1.3830 hc        1 AME      0.063700
     17 HB1         0.9440   -1.8560   -0.0470 hc        1 AME      0.063700
     18 HG2         1.7380   -0.0640   -1.4900 h1        1 AME      0.066200
     19 HG1         1.3040    1.2120   -0.2930 h1        1 AME      0.066200
     20 HE3         3.7450    2.2140   -0.3840 h1        1 AME      0.050033
     21 HE2         4.2620    0.9720   -1.5850 h1        1 AME      0.050033
     22 HE1         5.2130    1.1980   -0.0580 h1        1 AME      0.050033
     23 HN1        -1.9900    0.3690    1.2340 hn        1 AME      0.327500
     24 HA         -0.7640   -0.3440   -1.2510 h1        1 AME      0.058700
@<TRIPOS>BOND
     1    1    2 1   
     2    1   13 1   
     3    1   14 1   
     4    1   15 1   
     5    2    3 2   
     6    2   11 1   
     7    4    5 1   
     8    4   12 1   
     9    4   16 1   
    10    4   17 1   
    11    5    6 1   
    12    5   18 1   
    13    5   19 1   
    14    6    7 1   
    15    7   20 1   
    16    7   21 1   
    17    7   22 1   
    18    8    9 1   
    19    8   10 1   
    20    8   12 1   
    21   11   12 1   
    22   11   23 1   
    23   12   24 1   
@<TRIPOS>SUBSTRUCTURE
     1 AME         1 TEMP              0 ****  ****    0 ROOT
