@<TRIPOS>MOLECULE
AME
   25    24     1     0     0
SMALL
bcc


@<TRIPOS>ATOM
      1 CT2         0.2600    0.4260   -0.3410 c3        1 AME     -0.196100
      2 CT1         1.0010   -0.7510   -0.8810 c         1 AME      0.565100
      3 OT          0.8280   -1.9290   -0.5800 o         1 AME     -0.485100
      4 CB          4.5530   -0.5290   -2.1330 c3        1 AME     -0.085400
      5 CG          4.7320   -2.0150   -2.2930 c3        1 AME     -0.020300
      6 SD          3.6090   -2.5920   -3.5500 ss        1 AME     -0.336200
      7 CE          3.3510   -4.2750   -3.1160 c3        1 AME     -0.037000
      8 C           3.4570    1.4480   -1.0100 c         1 AME      0.929600
      9 O           4.4260    1.8090   -0.3240 o         1 AME     -0.765300
     10 OXT         2.5300    2.1290   -1.5240 o         1 AME     -0.765300
     11 N           2.0480   -0.4710   -1.9070 n4        1 AME     -0.681800
     12 CA          3.3660   -0.1320   -1.2690 c3        1 AME     -0.054500
     13 HT23        0.9320    1.3260   -0.2380 hc        1 AME      0.111700
     14 HT22       -0.5700    0.6890   -1.0440 hc        1 AME      0.111700
     15 HT21       -0.1710    0.1590    0.6550 hc        1 AME      0.111700
     16 HB2         5.4580   -0.0960   -1.6140 hc        1 AME      0.097700
     17 HB1         4.4900   -0.0340   -3.1390 hc        1 AME      0.097700
     18 HG2         4.5460   -2.5530   -1.3330 h1        1 AME      0.077200
     19 HG1         5.7790   -2.2390   -2.6150 h1        1 AME      0.077200
     20 HE3         2.6510   -4.6890   -3.8780 h1        1 AME      0.073367
     21 HE2         2.8980   -4.3780   -2.1050 h1        1 AME      0.073367
     22 HE1         4.3020   -4.8510   -3.1440 h1        1 AME      0.073367
     23 HN1         2.1690   -1.2850   -2.5460 hn        1 AME      0.470300
     24 HA          3.4200   -0.6540   -0.2750 hx        1 AME      0.089700
     25 H2          1.7730    0.3800   -2.4370 hn        1 AME      0.470300
@<TRIPOS>BOND
     1    1    2 1   
     2    1   13 1   
     3    1   14 1   
     4    1   15 1   
     5    2    3 2   
     6    2   11 1   
     7    4    5 1   
     8    4   12 1   
     9    4   16 1   
    10    4   17 1   
    11    5    6 1   
    12    5   18 1   
    13    5   19 1   
    14    6    7 1   
    15    7   20 1   
    16    7   21 1   
    17    7   22 1   
    18    8    9 1   
    19    8   10 1   
    20    8   12 1   
    21   11   12 1   
    22   11   23 1   
    23   11   25 1   
    24   12   24 1   
@<TRIPOS>SUBSTRUCTURE
     1 AME         1 TEMP              0 ****  ****    0 ROOT
