@<TRIPOS>MOLECULE
AMF
   50    51     1     0     0
SMALL
bcc


@<TRIPOS>ATOM
      1 O4         -3.9480    1.0300    2.2950 oh        1 AMF     -0.599800
      2 C4         -3.2340    0.2400    1.3580 c3        1 AMF      0.120100
      3 C5         -2.9380    1.1700    0.1510 c3        1 AMF      0.205500
      4 C6         -1.9900    2.2880    0.5930 c3        1 AMF     -0.017300
      5 S1         -0.3760    1.8350    0.0170 ss        1 AMF     -0.295300
      6 C3         -4.0820   -0.9640    0.9230 c3        1 AMF      0.108100
      7 O3         -4.2090   -1.7930    2.0660 oh        1 AMF     -0.608800
      8 C2         -3.3890   -1.7060   -0.2250 c3        1 AMF      0.090100
      9 O2         -4.2770   -2.7290   -0.6360 oh        1 AMF     -0.606800
     10 C1         -3.1460   -0.7090   -1.3970 c3        1 AMF      0.396300
     11 O1         -2.6170   -1.5170   -2.4320 oh        1 AMF     -0.594800
     12 N1         -2.3760    0.4740   -1.0120 nh        1 AMF     -0.751600
     13 C7         -0.9530    0.5370   -1.0520 c2        1 AMF      0.657100
     14 N2         -0.2130   -0.1830   -1.8290 n2        1 AMF     -0.644900
     15 C8          1.1990    0.0210   -1.9600 c3        1 AMF      0.127800
     16 C9          2.0460   -0.1930   -0.7050 c3        1 AMF     -0.102400
     17 C10         3.5120   -0.0090   -1.0300 c3        1 AMF     -0.076400
     18 C11         4.3730   -0.2210    0.1980 c3        1 AMF     -0.079400
     19 C12         5.8400   -0.0360   -0.1230 c3        1 AMF     -0.079400
     20 C13         6.7020   -0.2480    1.1030 c3        1 AMF     -0.079400
     21 C14         8.1700   -0.0640    0.7840 c3        1 AMF     -0.080400
     22 C15         9.0310   -0.2740    2.0020 c3        1 AMF     -0.092100
     23 H4         -4.2260    0.4280    3.0000 ho        1 AMF      0.429000
     24 HA         -2.2760   -0.1230    1.8250 h1        1 AMF      0.065700
     25 H5         -3.9190    1.6200   -0.1830 h1        1 AMF      0.095700
     26 H3         -5.1040   -0.6240    0.5960 h1        1 AMF      0.063700
     27 H61C       -2.2980    3.2630    0.1460 h1        1 AMF      0.095200
     28 H62C       -1.9880    2.3930    1.7040 h1        1 AMF      0.095200
     29 HB         -4.6430   -2.6050    1.7710 ho        1 AMF      0.430000
     30 H2         -2.4170   -2.1580    0.1130 h1        1 AMF      0.073700
     31 HC         -3.8760   -3.1540   -1.4070 ho        1 AMF      0.434000
     32 H81C        1.5260   -0.7220   -2.7450 h1        1 AMF      0.056200
     33 H82C        1.4100    1.0570   -2.3600 h1        1 AMF      0.056200
     34 H91C        1.7390    0.5370    0.0930 hc        1 AMF      0.054200
     35 H92C        1.8750   -1.2240   -0.3000 hc        1 AMF      0.054200
     36 H101        3.8150   -0.7340   -1.8310 hc        1 AMF      0.040700
     37 H102        3.6830    1.0240   -1.4350 hc        1 AMF      0.040700
     38 H111        4.0690    0.5030    0.9990 hc        1 AMF      0.041200
     39 H112        4.2030   -1.2530    0.6030 hc        1 AMF      0.041200
     40 H121        6.1440   -0.7600   -0.9260 hc        1 AMF      0.039700
     41 H122        6.0100    0.9960   -0.5280 hc        1 AMF      0.039700
     42 H131        6.3980    0.4750    1.9050 hc        1 AMF      0.039700
     43 H132        6.5320   -1.2810    1.5080 hc        1 AMF      0.039700
     44 H141        8.4710   -0.7870   -0.0200 hc        1 AMF      0.038700
     45 H142        8.3370    0.9690    0.3770 hc        1 AMF      0.038700
     46 H151        8.7630    0.4540    2.8050 hc        1 AMF      0.032700
     47 H152        8.8970   -1.3060    2.4070 hc        1 AMF      0.032700
     48 H153       10.1090   -0.1340    1.7450 hc        1 AMF      0.032700
     49 H154       -2.2860   -0.9520   -3.1420 ho        1 AMF      0.440000
     50 H155       -4.1490   -0.3020   -1.7440 h2        1 AMF      0.061700
@<TRIPOS>BOND
     1    1    2 1   
     2    1   23 1   
     3    2    3 1   
     4    2    6 1   
     5    2   24 1   
     6    3    4 1   
     7    3   12 1   
     8    3   25 1   
     9    4    5 1   
    10    4   27 1   
    11    4   28 1   
    12    5   13 1   
    13    6    7 1   
    14    6    8 1   
    15    6   26 1   
    16    7   29 1   
    17    8    9 1   
    18    8   10 1   
    19    8   30 1   
    20    9   31 1   
    21   10   11 1   
    22   10   12 1   
    23   10   50 1   
    24   11   49 1   
    25   12   13 1   
    26   13   14 2   
    27   14   15 1   
    28   15   16 1   
    29   15   32 1   
    30   15   33 1   
    31   16   17 1   
    32   16   34 1   
    33   16   35 1   
    34   17   18 1   
    35   17   36 1   
    36   17   37 1   
    37   18   19 1   
    38   18   38 1   
    39   18   39 1   
    40   19   20 1   
    41   19   40 1   
    42   19   41 1   
    43   20   21 1   
    44   20   42 1   
    45   20   43 1   
    46   21   22 1   
    47   21   44 1   
    48   21   45 1   
    49   22   46 1   
    50   22   47 1   
    51   22   48 1   
@<TRIPOS>SUBSTRUCTURE
     1 AMF         1 TEMP              0 ****  ****    0 ROOT
