@<TRIPOS>MOLECULE
AMF
   50    51     1     0     0
SMALL
bcc


@<TRIPOS>ATOM
      1 O4          0.7420   -0.9390   -0.4580 oh        1 AMF     -0.599800
      2 C4          2.0390   -0.4510   -0.1620 c3        1 AMF      0.120100
      3 C5          2.1020   -0.3060    1.3830 c3        1 AMF      0.205500
      4 C6          1.9980   -1.6910    2.0260 c3        1 AMF     -0.017300
      5 S1          3.6440   -2.1540    2.4910 ss        1 AMF     -0.295300
      6 C3          2.2660    0.9050   -0.8460 c3        1 AMF      0.108100
      7 O3          2.2900    0.6470   -2.2400 oh        1 AMF     -0.608800
      8 C2          3.5890    1.5170   -0.3720 c3        1 AMF      0.090100
      9 O2          3.6710    2.8020   -0.9610 oh        1 AMF     -0.606800
     10 C1          3.5600    1.6430    1.1800 c3        1 AMF      0.396300
     11 O1          4.7650    2.3180    1.4920 oh        1 AMF     -0.594800
     12 N1          3.3050    0.3770    1.8680 nh        1 AMF     -0.751600
     13 C7          4.3310   -0.5320    2.2550 c2        1 AMF      0.657100
     14 N2          5.5560   -0.1920    2.4900 n2        1 AMF     -0.644900
     15 C8          6.5210   -1.1020    3.0330 c3        1 AMF      0.127800
     16 C9          6.8660   -2.3270    2.1850 c3        1 AMF     -0.102400
     17 C10         7.9450   -3.1420    2.8650 c3        1 AMF     -0.076400
     18 C11         8.3080   -4.3590    2.0420 c3        1 AMF     -0.079400
     19 C12         9.3860   -5.1780    2.7190 c3        1 AMF     -0.079400
     20 C13         9.7500   -6.3950    1.8960 c3        1 AMF     -0.079400
     21 C14        10.8290   -7.2150    2.5720 c3        1 AMF     -0.080400
     22 C15        11.1940   -8.4280    1.7570 c3        1 AMF     -0.092100
     23 H4          0.6610   -0.9300   -1.4220 ho        1 AMF      0.429000
     24 HA          2.8100   -1.1880   -0.5230 h1        1 AMF      0.065700
     25 H5          1.2190    0.3240    1.7030 h1        1 AMF      0.095700
     26 H3          1.4160    1.6070   -0.6120 h1        1 AMF      0.063700
     27 H61C        1.5760   -2.4340    1.3090 h1        1 AMF      0.095200
     28 H62C        1.3390   -1.6570    2.9260 h1        1 AMF      0.095200
     29 HB          2.5450    1.4760   -2.6690 ho        1 AMF      0.430000
     30 H2          4.4640    0.8910   -0.6980 h1        1 AMF      0.073700
     31 HC          4.4690    3.2200   -0.6080 ho        1 AMF      0.434000
     32 H81C        6.1940   -1.4570    4.0550 h1        1 AMF      0.056200
     33 H82C        7.4560   -0.4840    3.1680 h1        1 AMF      0.056200
     34 H91C        5.9490   -2.9610    2.0370 hc        1 AMF      0.054200
     35 H92C        7.2190   -2.0040    1.1710 hc        1 AMF      0.054200
     36 H101        7.5910   -3.4660    3.8790 hc        1 AMF      0.040700
     37 H102        8.8570   -2.5070    3.0190 hc        1 AMF      0.040700
     38 H111        8.6620   -4.0360    1.0280 hc        1 AMF      0.041200
     39 H112        7.3960   -4.9940    1.8860 hc        1 AMF      0.041200
     40 H121       10.2980   -4.5430    2.8750 hc        1 AMF      0.039700
     41 H122        9.0310   -5.5020    3.7330 hc        1 AMF      0.039700
     42 H131        8.8380   -7.0300    1.7400 hc        1 AMF      0.039700
     43 H132       10.1050   -6.0710    0.8820 hc        1 AMF      0.039700
     44 H141       10.4720   -7.5360    3.5870 hc        1 AMF      0.038700
     45 H142       11.7390   -6.5770    2.7290 hc        1 AMF      0.038700
     46 H151       11.9900   -9.0170    2.2730 hc        1 AMF      0.032700
     47 H152       11.5740   -8.1270    0.7510 hc        1 AMF      0.032700
     48 H153       10.3050   -9.0880    1.6110 hc        1 AMF      0.032700
     49 H154        4.9070    2.2950    2.4480 ho        1 AMF      0.440000
     50 H155        2.6920    2.3140    1.4760 h2        1 AMF      0.061700
@<TRIPOS>BOND
     1    1    2 1   
     2    1   23 1   
     3    2    3 1   
     4    2    6 1   
     5    2   24 1   
     6    3    4 1   
     7    3   12 1   
     8    3   25 1   
     9    4    5 1   
    10    4   27 1   
    11    4   28 1   
    12    5   13 1   
    13    6    7 1   
    14    6    8 1   
    15    6   26 1   
    16    7   29 1   
    17    8    9 1   
    18    8   10 1   
    19    8   30 1   
    20    9   31 1   
    21   10   11 1   
    22   10   12 1   
    23   10   50 1   
    24   11   49 1   
    25   12   13 1   
    26   13   14 2   
    27   14   15 1   
    28   15   16 1   
    29   15   32 1   
    30   15   33 1   
    31   16   17 1   
    32   16   34 1   
    33   16   35 1   
    34   17   18 1   
    35   17   36 1   
    36   17   37 1   
    37   18   19 1   
    38   18   38 1   
    39   18   39 1   
    40   19   20 1   
    41   19   40 1   
    42   19   41 1   
    43   20   21 1   
    44   20   42 1   
    45   20   43 1   
    46   21   22 1   
    47   21   44 1   
    48   21   45 1   
    49   22   46 1   
    50   22   47 1   
    51   22   48 1   
@<TRIPOS>SUBSTRUCTURE
     1 AMF         1 TEMP              0 ****  ****    0 ROOT
