@<TRIPOS>MOLECULE
AMF
   50    51     1     0     0
SMALL
bcc


@<TRIPOS>ATOM
      1 O4          0.7350   -1.0350   -0.5060 oh        1 AMF     -0.599800
      2 C4          2.0260   -0.5310   -0.2080 c3        1 AMF      0.120100
      3 C5          2.0810   -0.3770    1.3360 c3        1 AMF      0.205500
      4 C6          1.9890   -1.7590    1.9870 c3        1 AMF     -0.017300
      5 S1          3.6390   -2.2010    2.4610 ss        1 AMF     -0.295300
      6 C3          2.2410    0.8230   -0.8990 c3        1 AMF      0.108100
      7 O3          2.2730    0.5570   -2.2920 oh        1 AMF     -0.608800
      8 C2          3.5560    1.4520   -0.4240 c3        1 AMF      0.090100
      9 O2          3.6260    2.7340   -1.0200 oh        1 AMF     -0.606800
     10 C1          3.5190    1.5870    1.1270 c3        1 AMF      0.396300
     11 O1          4.7150    2.2770    1.4400 oh        1 AMF     -0.594800
     12 N1          3.2750    0.3230    1.8210 nh        1 AMF     -0.751600
     13 C7          4.3090   -0.5740    2.2170 c2        1 AMF      0.657100
     14 N2          5.5300   -0.2180    2.4550 n2        1 AMF     -0.644900
     15 C8          6.5020   -1.1150    3.0070 c3        1 AMF      0.127800
     16 C9          6.8620   -2.3420    2.1690 c3        1 AMF     -0.102400
     17 C10         7.9480   -3.1410    2.8570 c3        1 AMF     -0.076400
     18 C11         8.3260   -4.3600    2.0440 c3        1 AMF     -0.079400
     19 C12         9.4110   -5.1620    2.7300 c3        1 AMF     -0.079400
     20 C13         9.7900   -6.3810    1.9170 c3        1 AMF     -0.079400
     21 C14        10.8760   -7.1850    2.6020 c3        1 AMF     -0.080400
     22 C15        11.2550   -8.4000    1.7970 c3        1 AMF     -0.092100
     23 H4          0.6580   -1.0320   -1.4710 ho        1 AMF      0.429000
     24 HA          2.8060   -1.2620   -0.5620 h1        1 AMF      0.065700
     25 H5          1.1910    0.2460    1.6490 h1        1 AMF      0.095700
     26 H3          1.3830    1.5170   -0.6730 h1        1 AMF      0.063700
     27 H61C        1.5780   -2.5110    1.2720 h1        1 AMF      0.095200
     28 H62C        1.3270   -1.7270    2.8840 h1        1 AMF      0.095200
     29 HB          2.5210    1.3860   -2.7250 ho        1 AMF      0.430000
     30 H2          4.4380    0.8340   -0.7430 h1        1 AMF      0.073700
     31 HC          4.4180    3.1630   -0.6670 ho        1 AMF      0.434000
     32 H81C        7.4310   -0.4860    3.1400 h1        1 AMF      0.056200
     33 H82C        6.1760   -1.4660    4.0310 h1        1 AMF      0.056200
     34 H91C        5.9530   -2.9870    2.0230 hc        1 AMF      0.054200
     35 H92C        7.2150   -2.0230    1.1540 hc        1 AMF      0.054200
     36 H101        8.8530   -2.4950    3.0090 hc        1 AMF      0.040700
     37 H102        7.5960   -3.4610    3.8730 hc        1 AMF      0.040700
     38 H111        8.6790   -4.0410    1.0280 hc        1 AMF      0.041200
     39 H112        7.4210   -5.0060    1.8910 hc        1 AMF      0.041200
     40 H121        9.0580   -5.4810    3.7460 hc        1 AMF      0.039700
     41 H122       10.3160   -4.5160    2.8830 hc        1 AMF      0.039700
     42 H131        8.8850   -7.0270    1.7640 hc        1 AMF      0.039700
     43 H132       10.1430   -6.0620    0.9020 hc        1 AMF      0.039700
     44 H141       10.5210   -7.5020    3.6180 hc        1 AMF      0.038700
     45 H142       11.7790   -6.5370    2.7560 hc        1 AMF      0.038700
     46 H151       10.3740   -9.0700    1.6540 hc        1 AMF      0.032700
     47 H152       12.0560   -8.9770    2.3190 hc        1 AMF      0.032700
     48 H153       11.6350   -8.1030    0.7890 hc        1 AMF      0.032700
     49 H154        4.8530    2.2610    2.3970 ho        1 AMF      0.440000
     50 H155        2.6420    2.2500    1.4150 h2        1 AMF      0.061700
@<TRIPOS>BOND
     1    1    2 1   
     2    1   23 1   
     3    2    3 1   
     4    2    6 1   
     5    2   24 1   
     6    3    4 1   
     7    3   12 1   
     8    3   25 1   
     9    4    5 1   
    10    4   27 1   
    11    4   28 1   
    12    5   13 1   
    13    6    7 1   
    14    6    8 1   
    15    6   26 1   
    16    7   29 1   
    17    8    9 1   
    18    8   10 1   
    19    8   30 1   
    20    9   31 1   
    21   10   11 1   
    22   10   12 1   
    23   10   50 1   
    24   11   49 1   
    25   12   13 1   
    26   13   14 2   
    27   14   15 1   
    28   15   16 1   
    29   15   32 1   
    30   15   33 1   
    31   16   17 1   
    32   16   34 1   
    33   16   35 1   
    34   17   18 1   
    35   17   36 1   
    36   17   37 1   
    37   18   19 1   
    38   18   38 1   
    39   18   39 1   
    40   19   20 1   
    41   19   40 1   
    42   19   41 1   
    43   20   21 1   
    44   20   42 1   
    45   20   43 1   
    46   21   22 1   
    47   21   44 1   
    48   21   45 1   
    49   22   46 1   
    50   22   47 1   
    51   22   48 1   
@<TRIPOS>SUBSTRUCTURE
     1 AMF         1 TEMP              0 ****  ****    0 ROOT
