@<TRIPOS>MOLECULE
AMF
   50    50     1     0     0
SMALL
bcc


@<TRIPOS>ATOM
      1 O4         -5.3360   -0.0900   -4.3840 oh        1 AMF     -0.327000
      2 C4         -3.8720   -0.0740   -4.3540 c3        1 AMF      0.041000
      3 C5         -3.4260   -0.0600   -2.9490 c3        1 AMF      0.021000
      4 C6         -3.7080   -1.3260   -2.3370 c3        1 AMF     -0.273000
      5 S1         -2.5190   -1.4790   -1.1900 ss        1 AMF      0.119000
      6 C3         -3.3900    1.1090   -5.1110 c3        1 AMF     -0.003000
      7 O3         -3.7080    0.9450   -6.4590 oh        1 AMF     -0.336000
      8 C2         -1.7920    1.3210   -4.9730 c3        1 AMF     -0.002000
      9 O2         -1.4560    2.5050   -5.5460 oh        1 AMF     -0.336000
     10 C1         -1.3290    1.3250   -3.5270 c3        1 AMF      0.146000
     11 O1          0.0770    1.3400   -3.5010 oh        1 AMF     -0.335000
     12 N1         -1.7930    0.1700   -2.7990 n3        1 AMF     -0.315000
     13 C7         -1.4400   -0.2710   -1.5350 c2        1 AMF      0.026000
     14 N2         -0.2940   -0.0710   -0.9420 n1        1 AMF     -0.272000
     15 C8          0.1250   -0.9380    0.1090 c2        1 AMF     -0.068000
     16 C9          1.2780   -0.3100    0.8450 c3        1 AMF     -0.182000
     17 C10         1.4960   -1.0280    2.1390 c3        1 AMF     -0.155000
     18 C11         2.7160   -0.4140    2.8700 c3        1 AMF     -0.157000
     19 C12         2.6900   -0.8470    4.3640 c3        1 AMF     -0.158000
     20 C13         3.8080   -0.1390    5.1240 c3        1 AMF     -0.158000
     21 C14         3.7120   -0.4960    6.6320 c3        1 AMF     -0.159000
     22 C15         4.7630    0.2830    7.4040 c3        1 AMF     -0.210000
     23 H4         -5.6180   -0.6470   -5.0410 ho        1 AMF      0.229000
     24 HA         -3.5370   -0.8840   -4.7860 h1        1 AMF      0.109000
     25 H5         -3.9080    0.6600   -2.4560 h1        1 AMF      0.102000
     26 H3         -3.8460    1.9070   -4.7730 h1        1 AMF      0.103000
     27 H61C       -3.5470   -2.0130   -3.0120 h1        1 AMF      0.132500
     28 H62C       -4.5410   -1.2330   -1.8680 h1        1 AMF      0.132500
     29 HB         -4.2330    1.5800   -6.7080 ho        1 AMF      0.229000
     30 H2         -1.3320    0.5940   -5.4500 h1        1 AMF      0.118000
     31 HC         -0.9900    2.3520   -6.2920 ho        1 AMF      0.230000
     32 H81C       -0.6160   -1.0830    0.7270 ha        1 AMF      0.094500
     33 H82C        0.4040   -1.7860   -0.2650 ha        1 AMF      0.094500
     34 H91C        1.0770    0.6230    1.0240 hc        1 AMF      0.092500
     35 H92C        2.0790   -0.3710    0.3030 hc        1 AMF      0.092500
     36 H101        0.7060   -0.9380    2.6970 hc        1 AMF      0.080500
     37 H102        1.6610   -1.9570    1.9660 hc        1 AMF      0.080500
     38 H111        3.5510   -0.7350    2.4470 hc        1 AMF      0.080500
     39 H112        2.6750    0.5610    2.8120 hc        1 AMF      0.080500
     40 H121        2.8180   -1.8080    4.4230 hc        1 AMF      0.079000
     41 H122        1.8420   -0.6130    4.7500 hc        1 AMF      0.079000
     42 H131        4.6770   -0.4300    4.7740 hc        1 AMF      0.079000
     43 H132        3.7170    0.8430    5.0100 hc        1 AMF      0.079000
     44 H141        2.8180   -0.2620    6.9690 hc        1 AMF      0.078000
     45 H142        3.8630   -1.4530    6.7500 hc        1 AMF      0.078000
     46 H151        4.6700    0.0920    8.3690 hc        1 AMF      0.072000
     47 H152        5.6700    0.0110    7.0980 hc        1 AMF      0.072000
     48 H153        4.6380    1.2420    7.2460 hc        1 AMF      0.072000
     49 H154        0.3630    2.1740   -3.5010 ho        1 AMF      0.244000
     50 H155       -1.6620    2.1260   -3.0910 h2        1 AMF      0.081000
@<TRIPOS>BOND
     1    1    2 1   
     2    1   23 1   
     3    2    3 1   
     4    2    6 1   
     5    2   24 1   
     6    3    4 1   
     7    3   12 1   
     8    3   25 1   
     9    4    5 1   
    10    4   27 1   
    11    4   28 1   
    12    5   13 1   
    13    6    7 1   
    14    6    8 1   
    15    6   26 1   
    16    7   29 1   
    17    8    9 1   
    18    8   10 1   
    19    8   30 1   
    20    9   31 1   
    21   10   11 1   
    22   10   12 1   
    23   10   50 1   
    24   11   49 1   
    25   12   13 1   
    26   13   14 1   
    27   15   16 1   
    28   15   32 1   
    29   15   33 1   
    30   16   17 1   
    31   16   34 1   
    32   16   35 1   
    33   17   18 1   
    34   17   36 1   
    35   17   37 1   
    36   18   19 1   
    37   18   38 1   
    38   18   39 1   
    39   19   20 1   
    40   19   40 1   
    41   19   41 1   
    42   20   21 1   
    43   20   42 1   
    44   20   43 1   
    45   21   22 1   
    46   21   44 1   
    47   21   45 1   
    48   22   46 1   
    49   22   47 1   
    50   22   48 1   
@<TRIPOS>SUBSTRUCTURE
     1 AMF         1 TEMP              0 ****  ****    0 ROOT
