@<TRIPOS>MOLECULE
AMF
   50    51     1     0     0
SMALL
bcc


@<TRIPOS>ATOM
      1 O4          0.7380   -1.0200   -0.5050 oh        1 AMF     -0.599800
      2 C4          2.0320   -0.5210   -0.2090 c3        1 AMF      0.120100
      3 C5          2.0880   -0.3620    1.3340 c3        1 AMF      0.205500
      4 C6          1.9910   -1.7420    1.9900 c3        1 AMF     -0.017300
      5 S1          3.6400   -2.1900    2.4630 ss        1 AMF     -0.295300
      6 C3          2.2520    0.8310   -0.9040 c3        1 AMF      0.108100
      7 O3          2.2820    0.5610   -2.2960 oh        1 AMF     -0.608800
      8 C2          3.5690    1.4560   -0.4320 c3        1 AMF      0.090100
      9 O2          3.6440    2.7360   -1.0320 oh        1 AMF     -0.606800
     10 C1          3.5340    1.5950    1.1190 c3        1 AMF      0.396300
     11 O1          4.7330    2.2810    1.4290 oh        1 AMF     -0.594800
     12 N1          3.2850    0.3340    1.8170 nh        1 AMF     -0.751600
     13 C7          4.3170   -0.5650    2.2140 c2        1 AMF      0.657100
     14 N2          5.5390   -0.2140    2.4500 n2        1 AMF     -0.644900
     15 C8          6.5080   -1.1130    3.0030 c3        1 AMF      0.127800
     16 C9          6.8630   -2.3440    2.1690 c3        1 AMF     -0.102400
     17 C10         7.9450   -3.1450    2.8580 c3        1 AMF     -0.076400
     18 C11         8.3190   -4.3680    2.0480 c3        1 AMF     -0.079400
     19 C12         9.4010   -5.1720    2.7360 c3        1 AMF     -0.079400
     20 C13         9.7760   -6.3940    1.9250 c3        1 AMF     -0.079400
     21 C14        10.8580   -7.2000    2.6120 c3        1 AMF     -0.080400
     22 C15        11.2340   -8.4180    1.8080 c3        1 AMF     -0.092100
     23 H4          0.6610   -1.0200   -1.4700 ho        1 AMF      0.429000
     24 HA          2.8090   -1.2560   -0.5620 h1        1 AMF      0.065700
     25 H5          1.2010    0.2650    1.6460 h1        1 AMF      0.095700
     26 H3          1.3960    1.5280   -0.6800 h1        1 AMF      0.063700
     27 H61C        1.3300   -1.7050    2.8870 h1        1 AMF      0.095200
     28 H62C        1.5770   -2.4940    1.2770 h1        1 AMF      0.095200
     29 HB          2.5330    1.3870   -2.7320 ho        1 AMF      0.430000
     30 H2          4.4490    0.8330   -0.7500 h1        1 AMF      0.073700
     31 HC          4.4380    3.1630   -0.6800 ho        1 AMF      0.434000
     32 H81C        7.4390   -0.4880    3.1350 h1        1 AMF      0.056200
     33 H82C        6.1810   -1.4600    4.0290 h1        1 AMF      0.056200
     34 H91C        5.9510   -2.9850    2.0240 hc        1 AMF      0.054200
     35 H92C        7.2160   -2.0280    1.1530 hc        1 AMF      0.054200
     36 H101        8.8530   -2.5020    3.0090 hc        1 AMF      0.040700
     37 H102        7.5920   -3.4620    3.8750 hc        1 AMF      0.040700
     38 H111        8.6740   -4.0510    1.0320 hc        1 AMF      0.041200
     39 H112        7.4110   -5.0100    1.8960 hc        1 AMF      0.041200
     40 H121        9.0460   -5.4890    3.7510 hc        1 AMF      0.039700
     41 H122       10.3080   -4.5300    2.8880 hc        1 AMF      0.039700
     42 H131       10.1310   -6.0780    0.9090 hc        1 AMF      0.039700
     43 H132        8.8690   -7.0370    1.7720 hc        1 AMF      0.039700
     44 H141       10.5010   -7.5150    3.6280 hc        1 AMF      0.038700
     45 H142       11.7630   -6.5560    2.7660 hc        1 AMF      0.038700
     46 H151       12.0320   -8.9980    2.3320 hc        1 AMF      0.032700
     47 H152       10.3500   -9.0850    1.6650 hc        1 AMF      0.032700
     48 H153       11.6160   -8.1230    0.8010 hc        1 AMF      0.032700
     49 H154        4.8720    2.2670    2.3850 ho        1 AMF      0.440000
     50 H155        2.6600    2.2630    1.4060 h2        1 AMF      0.061700
@<TRIPOS>BOND
     1    1    2 1   
     2    1   23 1   
     3    2    3 1   
     4    2    6 1   
     5    2   24 1   
     6    3    4 1   
     7    3   12 1   
     8    3   25 1   
     9    4    5 1   
    10    4   27 1   
    11    4   28 1   
    12    5   13 1   
    13    6    7 1   
    14    6    8 1   
    15    6   26 1   
    16    7   29 1   
    17    8    9 1   
    18    8   10 1   
    19    8   30 1   
    20    9   31 1   
    21   10   11 1   
    22   10   12 1   
    23   10   50 1   
    24   11   49 1   
    25   12   13 1   
    26   13   14 2   
    27   14   15 1   
    28   15   16 1   
    29   15   32 1   
    30   15   33 1   
    31   16   17 1   
    32   16   34 1   
    33   16   35 1   
    34   17   18 1   
    35   17   36 1   
    36   17   37 1   
    37   18   19 1   
    38   18   38 1   
    39   18   39 1   
    40   19   20 1   
    41   19   40 1   
    42   19   41 1   
    43   20   21 1   
    44   20   42 1   
    45   20   43 1   
    46   21   22 1   
    47   21   44 1   
    48   21   45 1   
    49   22   46 1   
    50   22   47 1   
    51   22   48 1   
@<TRIPOS>SUBSTRUCTURE
     1 AMF         1 TEMP              0 ****  ****    0 ROOT
