@<TRIPOS>MOLECULE
AMG
   27    27     1     0     0
SMALL
bcc


@<TRIPOS>ATOM
      1 C1          1.1180   -0.7300   -0.0890 c3        1 AMG      0.305900
      2 C2          0.3450   -0.6300   -1.4150 c3        1 AMG      0.094100
      3 C3         -0.5950    0.5840   -1.3970 c3        1 AMG      0.077100
      4 C4         -1.4950    0.5390   -0.1510 c3        1 AMG      0.127100
      5 C5         -0.6190    0.4240    1.1020 c3        1 AMG      0.106100
      6 C6         -1.4680    0.1860    2.3550 c3        1 AMG      0.142400
      7 O1          1.9830    0.3900   -0.0220 os        1 AMG     -0.465600
      8 O2          1.2190   -0.5620   -2.5210 oh        1 AMG     -0.593800
      9 O3         -1.4580    0.5740   -2.5220 oh        1 AMG     -0.607800
     10 O4         -2.3790   -0.5670   -0.1910 oh        1 AMG     -0.594800
     11 O5          0.2870   -0.6830    1.0470 os        1 AMG     -0.435600
     12 O6         -0.6690    0.2020    3.5180 oh        1 AMG     -0.599800
     13 H1          1.6780   -1.7040   -0.0020 h2        1 AMG      0.090700
     14 H2         -0.2540   -1.5730   -1.5640 h1        1 AMG      0.108700
     15 H3          0.0110    1.5320   -1.3960 h1        1 AMG      0.061700
     16 H4         -2.0970    1.4900   -0.0980 h1        1 AMG      0.057700
     17 H5         -0.0130    1.3680    1.2040 h1        1 AMG      0.066700
     18 H61        -2.1950    1.0310    2.4820 h1        1 AMG      0.065700
     19 H62        -2.0180   -0.7870    2.2590 h1        1 AMG      0.065700
     20 H71         3.4980    1.2840    0.9580 h1        1 AMG      0.042367
     21 H72         2.4450    0.1970    2.0070 h1        1 AMG      0.042367
     22 H73         3.6430   -0.5460    0.8330 h1        1 AMG      0.042367
     23 HO2         1.8450    0.1560   -2.3520 ho        1 AMG      0.420000
     24 HO3        -0.9140    0.3460   -3.2890 ho        1 AMG      0.425000
     25 HO4        -2.8180   -0.5370   -1.0540 ho        1 AMG      0.423000
     26 HO6        -0.0320   -0.5190    3.4310 ho        1 AMG      0.411000
     27 C7          2.9500    0.3110    1.0160 c3        1 AMG      0.121700
@<TRIPOS>BOND
     1    1    2 1   
     2    1    7 1   
     3    1   11 1   
     4    1   13 1   
     5    2    3 1   
     6    2    8 1   
     7    2   14 1   
     8    3    4 1   
     9    3    9 1   
    10    3   15 1   
    11    4    5 1   
    12    4   10 1   
    13    4   16 1   
    14    5    6 1   
    15    5   11 1   
    16    5   17 1   
    17    6   12 1   
    18    6   18 1   
    19    6   19 1   
    20    7   27 1   
    21    8   23 1   
    22    9   24 1   
    23   10   25 1   
    24   12   26 1   
    25   20   27 1   
    26   21   27 1   
    27   22   27 1   
@<TRIPOS>SUBSTRUCTURE
     1 AMG         1 TEMP              0 ****  ****    0 ROOT
