@<TRIPOS>MOLECULE
AMG
   27    27     1     0     0
SMALL
bcc


@<TRIPOS>ATOM
      1 C1         -0.4590    0.0910   -1.1010 c3        1 AMG      0.292900
      2 C2          1.0530    0.1250   -1.1430 c3        1 AMG      0.135100
      3 C3          1.6550    0.1330    0.2130 c3        1 AMG      0.111100
      4 C4          1.1310   -0.9640    1.0710 c3        1 AMG      0.084100
      5 C5         -0.3770   -0.9920    1.1070 c3        1 AMG      0.116100
      6 C6         -0.8600    0.2070    1.8460 c3        1 AMG      0.090400
      7 C7         -2.0820    0.6680   -2.6680 c3        1 AMG      0.117700
      8 O1         -0.9390   -0.0820   -2.3900 os        1 AMG     -0.400600
      9 O2          1.5270   -1.0460   -1.8530 oh        1 AMG     -0.578800
     10 O3          1.3590    1.3980    0.8470 oh        1 AMG     -0.607800
     11 O4          1.6240   -0.7820    2.4010 oh        1 AMG     -0.611800
     12 O5         -0.9750   -0.9940   -0.2470 os        1 AMG     -0.439600
     13 O6         -2.2110    0.0090    2.2380 oh        1 AMG     -0.613800
     14 H1         -0.7880    0.9580   -0.7490 h2        1 AMG      0.063700
     15 H2          1.3450    0.9340   -1.6300 h1        1 AMG      0.103700
     16 H3          2.6040    0.0400    0.1330 h1        1 AMG      0.069700
     17 H4          1.4660   -1.8460    0.7150 h1        1 AMG      0.059700
     18 H5         -0.6760   -1.8210    1.5970 h1        1 AMG      0.095700
     19 H61        -0.3240    0.3410    2.6170 h1        1 AMG      0.049200
     20 H62        -0.8000    0.9840    1.2750 h1        1 AMG      0.049200
     21 H71        -2.3400    0.5440   -3.6340 h1        1 AMG      0.041700
     22 H72        -2.8320    0.3610   -2.0780 h1        1 AMG      0.041700
     23 H73        -1.9050    1.5850   -2.5030 h1        1 AMG      0.041700
     24 HO2         2.0210   -0.7950   -2.5360 ho        1 AMG      0.418000
     25 HO3         2.0970    1.8910    0.8860 ho        1 AMG      0.427000
     26 HO4         2.0850   -1.4810    2.6380 ho        1 AMG      0.432000
     27 HO6        -2.3990    0.5380    2.9480 ho        1 AMG      0.413000
@<TRIPOS>BOND
     1    1    2 1   
     2    1    8 1   
     3    1   12 1   
     4    1   14 1   
     5    2    3 1   
     6    2    9 1   
     7    2   15 1   
     8    3    4 1   
     9    3   10 1   
    10    3   16 1   
    11    4    5 1   
    12    4   11 1   
    13    4   17 1   
    14    5    6 1   
    15    5   12 1   
    16    5   18 1   
    17    6   13 1   
    18    6   19 1   
    19    6   20 1   
    20    7    8 1   
    21    7   21 1   
    22    7   22 1   
    23    7   23 1   
    24    9   24 1   
    25   10   25 1   
    26   11   26 1   
    27   13   27 1   
@<TRIPOS>SUBSTRUCTURE
     1 AMG         1 TEMP              0 ****  ****    0 ROOT
