@<TRIPOS>MOLECULE
AMG
   27    25     1     0     0
SMALL
bcc


@<TRIPOS>ATOM
      1 C1          0.0250    0.7080   -0.3890 c2        1 AMG     -0.316000
      2 C2          1.4230    0.4070   -0.0150 c3        1 AMG      0.059000
      3 C3          1.4880   -0.0480    1.4560 c3        1 AMG     -0.047000
      4 C4          0.7550    0.9660    2.3510 c3        1 AMG      0.059000
      5 C5         -0.5490    1.3470    1.7590 c2        1 AMG     -0.316000
      6 C6         -0.8120    4.3170    3.4840 c2        1 AMG      0.132000
      7 O1          0.4330   -2.9610    0.2610 oh        1 AMG     -0.349000
      8 O2          2.0100   -0.5630   -0.8590 oh        1 AMG     -0.333500
      9 O3          2.8300   -0.1100    1.9100 oh        1 AMG     -0.337000
     10 O4          1.5170    2.1560    2.5320 oh        1 AMG     -0.333500
     11 O5         -0.8430    1.2060    0.4780 os        1 AMG      0.127000
     12 O6         -1.9180    3.7800    3.4940 o         1 AMG     -0.303000
     13 H1          0.5240   -3.9170    0.3480 ho        1 AMG      0.206000
     14 H2         -0.3850    0.5910   -1.3950 h4        1 AMG      0.202000
     15 H3          2.0720    1.3250   -0.1480 h1        1 AMG      0.121500
     16 H4          1.0160   -1.0670    1.5560 h1        1 AMG      0.114000
     17 H5          0.5790    0.4980    3.3640 h1        1 AMG      0.121500
     18 H61        -1.3430    1.8550    2.3240 h4        1 AMG      0.202000
     19 H62        -0.6600    5.3460    3.8750 h4        1 AMG      0.086000
     20 H71        -0.9790   -1.5660   -0.0840 h1        1 AMG      0.076000
     21 H72        -1.5540   -3.0050    0.9040 h1        1 AMG      0.076000
     22 H73        -1.2920   -3.1830   -0.8990 h1        1 AMG      0.076000
     23 HO2         1.4780   -1.3700   -0.7940 ho        1 AMG      0.223500
     24 HO3         3.3430   -0.5180    1.1990 ho        1 AMG      0.226000
     25 HO4         2.4200    1.8830    2.7440 ho        1 AMG      0.223500
     26 HO6         0.0910    3.8030    3.0860 h4        1 AMG      0.086000
     27 C7         -0.9320   -2.6810    0.0330 c3        1 AMG     -0.083000
@<TRIPOS>BOND
     1    1    2 1   
     2    1   11 1   
     3    1   14 1   
     4    2    3 1   
     5    2    8 1   
     6    2   15 1   
     7    3    4 1   
     8    3    9 1   
     9    3   16 1   
    10    4    5 1   
    11    4   10 1   
    12    4   17 1   
    13    5   11 1   
    14    5   18 1   
    15    6   12 1   
    16    6   19 1   
    17    6   26 1   
    18    7   13 1   
    19    7   27 1   
    20    8   23 1   
    21    9   24 1   
    22   10   25 1   
    23   20   27 1   
    24   21   27 1   
    25   22   27 1   
@<TRIPOS>SUBSTRUCTURE
     1 AMG         1 TEMP              0 ****  ****    0 ROOT
