@<TRIPOS>MOLECULE
AMG
   27    24     1     0     0
SMALL
bcc


@<TRIPOS>ATOM
      1 C1          0.0570   -1.0150    1.0700 c2        1 AMG      0.167000
      2 C2          1.1650   -0.3830    0.2510 c3        1 AMG     -0.157000
      3 C3          2.5260   -0.8620    0.7010 c1        1 AMG      0.031000
      4 C4          1.7340    2.6100    3.4850 c3        1 AMG      0.033000
      5 C5          0.7710    3.6880    3.8190 c2        1 AMG     -0.345000
      6 C6         -0.3000    3.9770    3.0640 c2        1 AMG      0.014000
      7 O1         -0.7270   -2.5590   -1.5930 oh        1 AMG     -0.352000
      8 O2          0.9570   -0.6420   -1.1230 oh        1 AMG     -0.310000
      9 O3          2.9240   -0.6160    1.8970 oh        1 AMG     -0.150000
     10 O4          1.2330    1.6650    2.5530 oh        1 AMG     -0.367000
     11 O5         -0.0800   -0.7540    2.2680 o         1 AMG     -0.325000
     12 O6         -1.2060    4.9650    3.3340 oh        1 AMG     -0.256000
     13 H1         -0.8100   -1.6780   -1.9840 ho        1 AMG      0.214000
     14 H2         -0.6080   -1.7170    0.5180 h4        1 AMG      0.141000
     15 H3          1.0970    0.7450    0.3530 h1        1 AMG      0.165000
     16 H4          2.0500    2.0760    4.4240 h1        1 AMG      0.091000
     17 H5          2.6470    3.0380    2.9820 h1        1 AMG      0.091000
     18 H61         1.0070    4.2580    4.7300 ha        1 AMG      0.134000
     19 H62        -0.5850    3.4510    2.1360 h4        1 AMG      0.172000
     20 H71        -1.2110   -4.4760   -1.9980 h1        1 AMG      0.069333
     21 H72        -2.4180   -3.2410   -2.6140 h1        1 AMG      0.069333
     22 H73        -0.8190   -3.4630   -3.4750 h1        1 AMG      0.069333
     23 HO2         1.3730   -1.4940   -1.3230 ho        1 AMG      0.228000
     24 HO3         2.3000   -0.1250    2.4850 ho        1 AMG      0.206000
     25 HO4         0.4280    1.2820    2.9280 ho        1 AMG      0.223000
     26 HO6        -0.9380    5.4320    4.1390 ho        1 AMG      0.214000
     27 C7         -1.3320   -3.4740   -2.4810 c3        1 AMG     -0.071000
@<TRIPOS>BOND
     1    1    2 1   
     2    1   11 1   
     3    1   14 1   
     4    2    3 1   
     5    2    8 1   
     6    2   15 1   
     7    3    9 1   
     8    4    5 1   
     9    4   10 1   
    10    4   16 1   
    11    4   17 1   
    12    5    6 1   
    13    5   18 1   
    14    6   12 1   
    15    6   19 1   
    16    7   13 1   
    17    7   27 1   
    18    8   23 1   
    19    9   24 1   
    20   10   25 1   
    21   12   26 1   
    22   20   27 1   
    23   21   27 1   
    24   22   27 1   
@<TRIPOS>SUBSTRUCTURE
     1 AMG         1 TEMP              0 ****  ****    0 ROOT
