@<TRIPOS>MOLECULE
AMH
   25    25     1     0     0
SMALL
bcc


@<TRIPOS>ATOM
      1 C1         -1.0310    0.9450   -1.2820 c3        1 AMH     -0.184700
      2 C2          0.5150    0.9320   -1.2690 c3        1 AMH     -0.049900
      3 C3          1.1040    0.8760    0.1500 c3        1 AMH     -0.069400
      4 C4          0.5380   -0.2650    0.9840 c3        1 AMH     -0.091700
      5 C5         -0.9370   -0.2950    1.0060 c3        1 AMH     -0.069400
      6 C6         -1.5610   -0.2570   -0.4020 c3        1 AMH     -0.049900
      7 C7          1.0470   -1.6150    0.4040 c3        1 AMH      0.143800
      8 C8         -1.6040    2.2920   -0.8470 c         1 AMH      0.912600
      9 N           1.8220   -2.2940    1.3890 n3        1 AMH     -0.905800
     10 O1         -1.0110    3.3690   -1.1760 o         1 AMH     -0.848300
     11 O2         -2.5840    2.3320   -0.0900 o         1 AMH     -0.848300
     12 H1         -1.3910    0.8780   -2.2460 hc        1 AMH      0.030700
     13 H21         0.8200    0.1740   -1.7600 hc        1 AMH      0.024700
     14 H22         0.8350    1.7360   -1.7060 hc        1 AMH      0.024700
     15 H31         2.1320    0.7600    0.0810 hc        1 AMH      0.038950
     16 H32         0.9100    1.7290    0.6080 hc        1 AMH      0.038950
     17 H4          0.8660   -0.1730    1.9080 hc        1 AMH      0.017700
     18 H51        -1.2380   -1.1500    1.4740 hc        1 AMH      0.038950
     19 H52        -1.2640    0.4850    1.5230 hc        1 AMH      0.038950
     20 H61        -2.5260   -0.1780   -0.3130 hc        1 AMH      0.024700
     21 H62        -1.3490   -1.1210   -0.8730 hc        1 AMH      0.024700
     22 H71         0.2590   -2.1840    0.1450 h1        1 AMH      0.046200
     23 H72         1.5890   -1.4480   -0.3710 h1        1 AMH      0.046200
     24 HN1         2.6370   -2.4770    1.0530 hn        1 AMH      0.332800
     25 HN2         1.4200   -3.0490    1.6120 hn        1 AMH      0.332800
@<TRIPOS>BOND
     1    1    2 1   
     2    1    6 1   
     3    1    8 1   
     4    1   12 1   
     5    2    3 1   
     6    2   13 1   
     7    2   14 1   
     8    3    4 1   
     9    3   15 1   
    10    3   16 1   
    11    4    5 1   
    12    4    7 1   
    13    4   17 1   
    14    5    6 1   
    15    5   18 1   
    16    5   19 1   
    17    6   20 1   
    18    6   21 1   
    19    7    9 1   
    20    7   22 1   
    21    7   23 1   
    22    8   10 1   
    23    8   11 1   
    24    9   24 1   
    25    9   25 1   
@<TRIPOS>SUBSTRUCTURE
     1 AMH         1 TEMP              0 ****  ****    0 ROOT
