@<TRIPOS>MOLECULE
AMH
   26    26     1     0     0
SMALL
bcc


@<TRIPOS>ATOM
      1 C1         -0.0870   -0.0110   -0.0030 c3        1 AMH     -0.212700
      2 C2          1.4130   -0.1900    0.0990 c3        1 AMH     -0.063900
      3 C3          1.9180   -0.1310    1.5280 c3        1 AMH     -0.073900
      4 C4          1.4660    1.1760    2.1680 c3        1 AMH     -0.093700
      5 C5         -0.0530    1.2370    2.1920 c3        1 AMH     -0.073900
      6 C6         -0.5880    1.1890    0.7730 c3        1 AMH     -0.063900
      7 C7          2.0590    1.2640    3.5740 c3        1 AMH      0.098800
      8 C8         -0.4430    0.2170   -1.5110 c         1 AMH      0.921600
      9 N           1.8130    2.6020    4.1970 nz        1 AMH     -0.840600
     10 O1         -1.1630   -0.6480   -2.0670 o         1 AMH     -0.819300
     11 O2          0.0220    1.2600   -2.0480 o         1 AMH     -0.819300
     12 H1         -0.6060   -0.9390    0.3540 hc        1 AMH      0.045700
     13 H21         1.9110    0.6110   -0.5120 hc        1 AMH      0.064200
     14 H22         1.6950   -1.1790   -0.3460 hc        1 AMH      0.064200
     15 H31         3.0370   -0.1940    1.5430 hc        1 AMH      0.023950
     16 H32         1.5130   -0.9970    2.1140 hc        1 AMH      0.023950
     17 H4          1.8580    2.0240    1.5370 hc        1 AMH      0.077700
     18 H51        -0.4580    0.3730    2.7800 hc        1 AMH      0.023950
     19 H52        -0.4060    2.1820    2.6850 hc        1 AMH      0.023950
     20 H61        -1.7080    1.1640    0.8050 hc        1 AMH      0.064200
     21 H62        -0.2840    2.1200    0.2210 hc        1 AMH      0.064200
     22 H71         1.5910    0.4850    4.2410 hx        1 AMH      0.100200
     23 H72         3.1740    1.1050    3.5380 hx        1 AMH      0.100200
     24 HN1         0.8010    2.7650    4.2580 hn        1 AMH      0.454133
     25 HN2         2.2240    2.6500    5.1290 hn        1 AMH      0.454133
     26 HN3         2.2190    3.3340    3.6050 hn        1 AMH      0.454133
@<TRIPOS>BOND
     1    1    2 1   
     2    1    6 1   
     3    1    8 1   
     4    1   12 1   
     5    2    3 1   
     6    2   13 1   
     7    2   14 1   
     8    3    4 1   
     9    3   15 1   
    10    3   16 1   
    11    4    5 1   
    12    4    7 1   
    13    4   17 1   
    14    5    6 1   
    15    5   18 1   
    16    5   19 1   
    17    6   20 1   
    18    6   21 1   
    19    7    9 1   
    20    7   22 1   
    21    7   23 1   
    22    8   10 1   
    23    8   11 1   
    24    9   24 1   
    25    9   25 1   
    26    9   26 1   
@<TRIPOS>SUBSTRUCTURE
     1 AMH         1 TEMP              0 ****  ****    0 ROOT
