@<TRIPOS>MOLECULE
AMH
   26    26     1     0     0
SMALL
bcc


@<TRIPOS>ATOM
      1 C1         -0.1080    0.0080   -0.0020 c3        1 AMH     -0.212700
      2 C2          1.3890   -0.2010    0.0990 c3        1 AMH     -0.063900
      3 C3          1.8960   -0.1530    1.5280 c3        1 AMH     -0.073900
      4 C4          1.4720    1.1640    2.1680 c3        1 AMH     -0.093700
      5 C5         -0.0460    1.2570    2.1930 c3        1 AMH     -0.073900
      6 C6         -0.5820    1.2190    0.7740 c3        1 AMH     -0.063900
      7 C7          2.0680    1.2400    3.5730 c3        1 AMH      0.098800
      8 C8         -0.4600    0.2440   -1.5100 c         1 AMH      0.921600
      9 N           1.8500    2.5840    4.1950 n4        1 AMH     -0.840600
     10 O1         -1.1980   -0.6070   -2.0650 o         1 AMH     -0.819300
     11 O2          0.0270    1.2770   -2.0470 o         1 AMH     -0.819300
     12 H1         -0.6440   -0.9080    0.3560 hc        1 AMH      0.045700
     13 H21         1.6500   -1.1970   -0.3460 hc        1 AMH      0.064200
     14 H22         1.9030    0.5890   -0.5130 hc        1 AMH      0.064200
     15 H31         3.0130   -0.2390    1.5420 hc        1 AMH      0.023950
     16 H32         1.4740   -1.0090    2.1140 hc        1 AMH      0.023950
     17 H4          1.8810    2.0040    1.5360 hc        1 AMH      0.077700
     18 H51        -0.4670    0.4010    2.7820 hc        1 AMH      0.023950
     19 H52        -0.3790    2.2090    2.6860 hc        1 AMH      0.023950
     20 H61        -0.2600    2.1430    0.2210 hc        1 AMH      0.064200
     21 H62        -1.7030    1.2180    0.8070 hc        1 AMH      0.064200
     22 H71         1.5850    0.4710    4.2400 hx        1 AMH      0.100200
     23 H72         3.1790    1.0580    3.5360 hx        1 AMH      0.100200
     24 HN1         2.2630    2.6230    5.1270 hn        1 AMH      0.454133
     25 HN2         2.2700    3.3070    3.6030 hn        1 AMH      0.454133
     26 HN3         0.8410    2.7660    4.2580 hn        1 AMH      0.454133
@<TRIPOS>BOND
     1    1    2 1   
     2    1    6 1   
     3    1    8 1   
     4    1   12 1   
     5    2    3 1   
     6    2   13 1   
     7    2   14 1   
     8    3    4 1   
     9    3   15 1   
    10    3   16 1   
    11    4    5 1   
    12    4    7 1   
    13    4   17 1   
    14    5    6 1   
    15    5   18 1   
    16    5   19 1   
    17    6   20 1   
    18    6   21 1   
    19    7    9 1   
    20    7   22 1   
    21    7   23 1   
    22    8   10 1   
    23    8   11 1   
    24    9   24 1   
    25    9   25 1   
    26    9   26 1   
@<TRIPOS>SUBSTRUCTURE
     1 AMH         1 TEMP              0 ****  ****    0 ROOT
