@<TRIPOS>MOLECULE
AMH
   25    25     1     0     0
SMALL
bcc


@<TRIPOS>ATOM
      1 C1          0.0180    0.4160   -1.0910 c3        1 AMH     -0.184700
      2 C2         -1.3450    0.1410   -0.4840 c3        1 AMH     -0.061400
      3 C3         -1.4030    0.5240    0.9800 c3        1 AMH     -0.067900
      4 C4         -0.3150   -0.1800    1.7780 c3        1 AMH     -0.100700
      5 C5          1.0500    0.1310    1.1860 c3        1 AMH     -0.067900
      6 C6          1.1130   -0.2480   -0.2800 c3        1 AMH     -0.061400
      7 C7         -0.4000    0.2460    3.2500 c3        1 AMH      0.144800
      8 C8          0.0550   -0.1180   -2.5470 c         1 AMH      0.913600
      9 N           0.4570   -0.4480    4.1810 n3        1 AMH     -0.905800
     10 O1         -0.1110   -1.3570   -2.7350 o         1 AMH     -0.845800
     11 O2          0.2490    0.7210   -3.4710 o         1 AMH     -0.845800
     12 H1          0.1950    1.5250   -1.1170 hc        1 AMH      0.033700
     13 H21        -1.5760   -0.9510   -0.6060 hc        1 AMH      0.044200
     14 H22        -2.1240    0.7160   -1.0490 hc        1 AMH      0.044200
     15 H31        -2.4070    0.2560    1.4030 hc        1 AMH      0.017450
     16 H32        -1.2790    1.6330    1.0860 hc        1 AMH      0.017450
     17 H4         -0.4890   -1.2910    1.7050 hc        1 AMH      0.046700
     18 H51         1.2620    1.2260    1.3020 hc        1 AMH      0.017450
     19 H52         1.8450   -0.4270    1.7480 hc        1 AMH      0.017450
     20 H61         1.0150   -1.3610   -0.3930 hc        1 AMH      0.044200
     21 H62         2.1110    0.0460   -0.6960 hc        1 AMH      0.044200
     22 H71        -1.4620    0.1020    3.5990 h1        1 AMH      0.042200
     23 H72        -0.1650    1.3460    3.3200 h1        1 AMH      0.042200
     24 HN1         0.2950   -1.4370    4.1280 hn        1 AMH      0.336300
     25 HN2         1.4200   -0.2840    3.9530 hn        1 AMH      0.336300
@<TRIPOS>BOND
     1    1    2 1   
     2    1    6 1   
     3    1    8 1   
     4    1   12 1   
     5    2    3 1   
     6    2   13 1   
     7    2   14 1   
     8    3    4 1   
     9    3   15 1   
    10    3   16 1   
    11    4    5 1   
    12    4    7 1   
    13    4   17 1   
    14    5    6 1   
    15    5   18 1   
    16    5   19 1   
    17    6   20 1   
    18    6   21 1   
    19    7    9 1   
    20    7   22 1   
    21    7   23 1   
    22    8   10 1   
    23    8   11 1   
    24    9   24 1   
    25    9   25 1   
@<TRIPOS>SUBSTRUCTURE
     1 AMH         1 TEMP              0 ****  ****    0 ROOT
