@<TRIPOS>MOLECULE
AMH
   26    26     1     0     0
SMALL
bcc


@<TRIPOS>ATOM
      1 C1         -0.0510   -0.0230   -0.0240 c3        1 AMH     -0.212700
      2 C2          1.4570   -0.1280    0.0680 c3        1 AMH     -0.063900
      3 C3          1.9660   -0.0780    1.4950 c3        1 AMH     -0.073900
      4 C4          1.4520    1.1900    2.1680 c3        1 AMH     -0.093700
      5 C5         -0.0680    1.1740    2.1990 c3        1 AMH     -0.073900
      6 C6         -0.6070    1.1320    0.7820 c3        1 AMH     -0.063900
      7 C7          2.0470    1.2750    3.5730 c3        1 AMH      0.098800
      8 C8         -0.4250    0.2230   -1.5250 c         1 AMH      0.921600
      9 N           1.7380    2.5840    4.2280 n4        1 AMH     -0.840600
     10 O1         -1.1020   -0.6650   -2.1000 o         1 AMH     -0.819300
     11 O2         -0.0160    1.3010   -2.0390 o         1 AMH     -0.819300
     12 H1         -0.5200   -0.9840    0.3130 hc        1 AMH      0.045700
     13 H21         1.9110    0.7110   -0.5270 hc        1 AMH      0.064200
     14 H22         1.7860   -1.0920   -0.4020 hc        1 AMH      0.064200
     15 H31         3.0870   -0.0850    1.5050 hc        1 AMH      0.023950
     16 H32         1.6080   -0.9760    2.0620 hc        1 AMH      0.023950
     17 H4          1.7980    2.0710    1.5550 hc        1 AMH      0.077700
     18 H51        -0.4250    0.2770    2.7690 hc        1 AMH      0.023950
     19 H52        -0.4660    2.0870    2.7160 hc        1 AMH      0.023950
     20 H61        -0.3530    2.0900    0.2510 hc        1 AMH      0.064200
     21 H62        -1.7240    1.0500    0.8180 hc        1 AMH      0.064200
     22 H71         3.1680    1.1730    3.5290 hx        1 AMH      0.100200
     23 H72         1.6230    0.4580    4.2230 hx        1 AMH      0.100200
     24 HN1         2.1510    2.6310    5.1600 hn        1 AMH      0.454133
     25 HN2         2.1030    3.3490    3.6520 hn        1 AMH      0.454133
     26 HN3         0.7190    2.6940    4.2970 hn        1 AMH      0.454133
@<TRIPOS>BOND
     1    1    2 1   
     2    1    6 1   
     3    1    8 1   
     4    1   12 1   
     5    2    3 1   
     6    2   13 1   
     7    2   14 1   
     8    3    4 1   
     9    3   15 1   
    10    3   16 1   
    11    4    5 1   
    12    4    7 1   
    13    4   17 1   
    14    5    6 1   
    15    5   18 1   
    16    5   19 1   
    17    6   20 1   
    18    6   21 1   
    19    7    9 1   
    20    7   22 1   
    21    7   23 1   
    22    8   10 1   
    23    8   11 1   
    24    9   24 1   
    25    9   25 1   
    26    9   26 1   
@<TRIPOS>SUBSTRUCTURE
     1 AMH         1 TEMP              0 ****  ****    0 ROOT
