@<TRIPOS>MOLECULE
AMI
   31    32     1     0     0
SMALL
bcc


@<TRIPOS>ATOM
      1 C1         -0.2890   -0.9710   -0.2850 c3        1 AMI      0.110100
      2 C2          1.2510   -0.7200   -0.0940 c3        1 AMI      0.108500
      3 C3          1.6560    0.3510   -1.1320 c3        1 AMI      0.147100
      4 C4          0.4410    0.5300   -2.0720 c3        1 AMI      0.115100
      5 C5         -0.7980    0.0370   -1.3090 c3        1 AMI     -0.118700
      6 C6         -1.8290   -0.5780   -2.2430 c3        1 AMI      0.135400
      7 C7          0.2190   -0.3360    1.8710 c2        1 AMI      0.756500
      8 C8          0.8380    0.5340    4.0360 c3        1 AMI      0.177600
      9 C9         -1.5140    0.1750    3.4800 c3        1 AMI      0.177600
     10 N2          1.4110   -0.3160    1.2980 n2        1 AMI     -0.671900
     11 N7         -0.1330   -0.1580    3.2190 nh        1 AMI     -0.684600
     12 O3          2.7630   -0.1670   -1.8470 oh        1 AMI     -0.595800
     13 O4          0.3510    1.9020   -2.4030 oh        1 AMI     -0.603800
     14 O6         -2.2120    0.4420   -3.1550 oh        1 AMI     -0.615800
     15 O7         -0.8630   -0.7050    1.0140 os        1 AMI     -0.460400
     16 H1         -0.5410   -2.0290   -0.5350 h1        1 AMI      0.081700
     17 H2          1.8510   -1.6530   -0.2750 h1        1 AMI      0.102700
     18 H3          1.9240    1.3340   -0.6570 h1        1 AMI      0.079700
     19 H4          0.5890   -0.0720   -3.0120 h1        1 AMI      0.053700
     20 H5         -1.2710    0.9110   -0.7810 hc        1 AMI      0.096700
     21 H61        -1.3930   -1.4460   -2.8070 h1        1 AMI      0.032200
     22 H62        -2.7200   -0.9290   -1.6570 h1        1 AMI      0.032200
     23 H81         0.5070    0.4590    5.1060 h1        1 AMI      0.049700
     24 H82         1.8400    0.0390    3.9290 h1        1 AMI      0.049700
     25 H83         0.9380    1.6180    3.7600 h1        1 AMI      0.049700
     26 H91        -1.7050    0.0210    4.5750 h1        1 AMI      0.049700
     27 H92        -1.7560    1.2400    3.2140 h1        1 AMI      0.049700
     28 H93        -2.1830   -0.5060    2.8920 h1        1 AMI      0.049700
     29 HO3         3.0820    0.5480   -2.4120 ho        1 AMI      0.411000
     30 HO4        -0.4720    2.0100   -2.9010 ho        1 AMI      0.424000
     31 HO6        -2.9020    0.0680   -3.7150 ho        1 AMI      0.409000
@<TRIPOS>BOND
     1    1    2 1   
     2    1    5 1   
     3    1   15 1   
     4    1   16 1   
     5    2    3 1   
     6    2   10 1   
     7    2   17 1   
     8    3    4 1   
     9    3   12 1   
    10    3   18 1   
    11    4    5 1   
    12    4   13 1   
    13    4   19 1   
    14    5    6 1   
    15    5   20 1   
    16    6   14 1   
    17    6   21 1   
    18    6   22 1   
    19    7   10 2   
    20    7   11 1   
    21    7   15 1   
    22    8   11 1   
    23    8   23 1   
    24    8   24 1   
    25    8   25 1   
    26    9   11 1   
    27    9   26 1   
    28    9   27 1   
    29    9   28 1   
    30   12   29 1   
    31   13   30 1   
    32   14   31 1   
@<TRIPOS>SUBSTRUCTURE
     1 AMI         1 TEMP              0 ****  ****    0 ROOT
