@<TRIPOS>MOLECULE
AMI
   31    31     1     0     0
SMALL
bcc


@<TRIPOS>ATOM
      1 C1         -0.5440    0.9140   -0.5720 c3        1 AMI      0.010000
      2 C2          1.0190    0.8170   -0.5750 c3        1 AMI     -0.094000
      3 C3          1.4360    1.2990    0.6820 c3        1 AMI     -0.005000
      4 C4          0.2510    1.0550    1.6450 c3        1 AMI      0.031000
      5 C5         -0.9490    1.2370    0.8540 c3        1 AMI     -0.116000
      6 C6         -1.4310    2.6790    0.9530 c3        1 AMI     -0.013000
      7 C7          0.1370   -1.0890   -1.2130 c1        1 AMI      0.194000
      8 C8         -1.0790   -3.2620   -1.5660 c3        1 AMI     -0.097000
      9 C9          1.4350   -3.2820   -1.2700 c3        1 AMI     -0.097000
     10 N2          1.2460   -0.4160   -0.7370 n2        1 AMI     -0.284000
     11 N7          0.1520   -2.5470   -1.3190 n2        1 AMI     -0.219000
     12 O3          1.7200    2.6900    0.6010 oh        1 AMI     -0.334000
     13 O4          0.3020   -0.2510    2.1540 oh        1 AMI     -0.322000
     14 O6         -2.8420    2.7080    0.9250 oh        1 AMI     -0.322000
     15 O7         -0.9970   -0.4570   -0.9410 os        1 AMI     -0.239000
     16 H1         -0.8660    1.5880   -1.2070 h1        1 AMI      0.129000
     17 H2          1.4050    1.3490   -1.3070 h1        1 AMI      0.126000
     18 H3          2.2250    0.8100    0.9860 h1        1 AMI      0.109000
     19 H4          0.2740    1.7100    2.3840 h1        1 AMI      0.099000
     20 H5         -1.6430    0.6290    1.1520 hc        1 AMI      0.148000
     21 H61        -1.0810    3.1910    0.2000 h1        1 AMI      0.068500
     22 H62        -1.1130    3.0740    1.7940 h1        1 AMI      0.068500
     23 H81        -1.6020   -3.3130   -0.7320 h1        1 AMI      0.089500
     24 H82        -0.8730   -4.1700   -1.8780 h1        1 AMI      0.089500
     25 H83        -1.6000   -2.7900   -2.2520 h1        1 AMI      0.089500
     26 H91         1.4750   -3.9210   -2.0180 h1        1 AMI      0.089500
     27 H92         1.5010   -3.7700   -0.4170 h1        1 AMI      0.089500
     28 H93         2.1810   -2.6460   -1.3430 h1        1 AMI      0.089500
     29 HO3         2.5480    2.8420    0.8920 ho        1 AMI      0.214000
     30 HO4         0.4410   -0.2210    3.0290 ho        1 AMI      0.210000
     31 HO6        -3.1280    3.5410    1.0950 ho        1 AMI      0.200000
@<TRIPOS>BOND
     1    1    2 1   
     2    1    5 1   
     3    1   15 1   
     4    1   16 1   
     5    2    3 1   
     6    2   10 1   
     7    2   17 1   
     8    3    4 1   
     9    3   12 1   
    10    3   18 1   
    11    4    5 1   
    12    4   13 1   
    13    4   19 1   
    14    5    6 1   
    15    5   20 1   
    16    6   14 1   
    17    6   21 1   
    18    6   22 1   
    19    7   10 1   
    20    7   15 1   
    21    8   11 1   
    22    8   23 1   
    23    8   24 1   
    24    8   25 1   
    25    9   11 1   
    26    9   26 1   
    27    9   27 1   
    28    9   28 1   
    29   12   29 1   
    30   13   30 1   
    31   14   31 1   
@<TRIPOS>SUBSTRUCTURE
     1 AMI         1 TEMP              0 ****  ****    0 ROOT
