@<TRIPOS>MOLECULE
AMI
   32    33     1     0     0
SMALL
bcc


@<TRIPOS>ATOM
      1 C1         -0.1930   -0.4160    0.1410 c3        1 AMI      0.131100
      2 C2          1.2670    0.1200   -0.0910 c3        1 AMI      0.050500
      3 C3          1.9600    0.1430    1.2970 c3        1 AMI      0.149100
      4 C4          1.0440   -0.6370    2.2690 c3        1 AMI      0.143100
      5 C5         -0.3260   -0.8420    1.5950 c3        1 AMI     -0.114700
      6 C6         -1.4120   -0.0320    2.2980 c3        1 AMI      0.136400
      7 C7          0.9820   -1.7200   -1.3250 c2        1 AMI      0.615500
      8 C8          1.0170   -4.1390   -1.3900 c3        1 AMI      0.091600
      9 C9          0.1040   -2.8520   -3.2860 c3        1 AMI      0.091600
     10 N2          1.8800   -0.8090   -1.0470 n2        1 AMI     -0.526900
     11 N7          1.1280   -2.8920   -2.2030 nx        1 AMI     -0.610400
     12 O3          2.0110    1.4800    1.7490 oh        1 AMI     -0.581800
     13 O4          1.6700   -1.8910    2.4850 oh        1 AMI     -0.610800
     14 O6         -1.5350   -0.5820    3.5990 oh        1 AMI     -0.604800
     15 O7         -0.2850   -1.5970   -0.7290 os        1 AMI     -0.436400
     16 H1         -0.9940    0.2770   -0.2130 h1        1 AMI      0.112700
     17 H2          1.2710    1.1520   -0.5390 h1        1 AMI      0.130700
     18 H3          2.9820   -0.3230    1.2670 h1        1 AMI      0.094700
     19 H4          0.9310   -0.0700    3.2330 h1        1 AMI      0.102700
     20 H5         -0.6030   -1.9320    1.6550 hc        1 AMI      0.102700
     21 H61        -1.1220    1.0520    2.3590 h1        1 AMI      0.041700
     22 H62        -2.3850   -0.1280    1.7460 h1        1 AMI      0.041700
     23 H81         0.0080   -4.1670   -0.8940 hx        1 AMI      0.115367
     24 H82         1.8200   -4.1390   -0.6030 hx        1 AMI      0.115367
     25 H83         1.1400   -5.0210   -2.0730 hx        1 AMI      0.115367
     26 H91        -0.9220   -2.8410   -2.8250 hx        1 AMI      0.115367
     27 H92         0.2500   -1.9220   -3.8990 hx        1 AMI      0.115367
     28 H93         0.2290   -3.7640   -3.9290 hx        1 AMI      0.115367
     29 HO3         2.8750    1.8370    1.5060 ho        1 AMI      0.426000
     30 HO4         1.3590   -2.2160    3.3410 ho        1 AMI      0.431000
     31 HO6        -2.1950   -0.0540    4.0650 ho        1 AMI      0.424000
     32 H71         2.0700   -2.8530   -2.6290 hn        1 AMI      0.478800
@<TRIPOS>BOND
     1    1    2 1   
     2    1    5 1   
     3    1   15 1   
     4    1   16 1   
     5    2    3 1   
     6    2   10 1   
     7    2   17 1   
     8    3    4 1   
     9    3   12 1   
    10    3   18 1   
    11    4    5 1   
    12    4   13 1   
    13    4   19 1   
    14    5    6 1   
    15    5   20 1   
    16    6   14 1   
    17    6   21 1   
    18    6   22 1   
    19    7   10 2   
    20    7   11 1   
    21    7   15 1   
    22    8   11 1   
    23    8   23 1   
    24    8   24 1   
    25    8   25 1   
    26    9   11 1   
    27    9   26 1   
    28    9   27 1   
    29    9   28 1   
    30   11   32 1   
    31   12   29 1   
    32   13   30 1   
    33   14   31 1   
@<TRIPOS>SUBSTRUCTURE
     1 AMI         1 TEMP              0 ****  ****    0 ROOT
