@<TRIPOS>MOLECULE
AMI
   32    33     1     0     0
SMALL
bcc


@<TRIPOS>ATOM
      1 C1         -0.2390   -0.4540    0.1560 c3        1 AMI      0.131100
      2 C2          1.1850    0.1540   -0.1240 c3        1 AMI      0.050500
      3 C3          1.9150    0.2250    1.2430 c3        1 AMI      0.149100
      4 C4          1.0690   -0.5920    2.2480 c3        1 AMI      0.143100
      5 C5         -0.3080   -0.8720    1.6160 c3        1 AMI     -0.114700
      6 C6         -1.4130   -0.1120    2.3440 c3        1 AMI      0.136400
      7 C7          0.9590   -1.7090   -1.3350 c2        1 AMI      0.615500
      8 C8          1.1130   -4.1240   -1.3830 c3        1 AMI      0.091600
      9 C9          0.0830   -2.9010   -3.2620 c3        1 AMI      0.091600
     10 N2          1.8170   -0.7510   -1.0900 n2        1 AMI     -0.526900
     11 N7          1.1380   -2.8800   -2.2080 n4        1 AMI     -0.610400
     12 O3          1.9120    1.5660    1.6840 oh        1 AMI     -0.581800
     13 O4          1.7640   -1.8100    2.4560 oh        1 AMI     -0.610800
     14 O6         -1.4700   -0.6560    3.6520 oh        1 AMI     -0.604800
     15 O7         -0.2950   -1.6450   -0.7030 os        1 AMI     -0.436400
     16 H1         -1.0840    0.1950   -0.1810 h1        1 AMI      0.112700
     17 H2          1.1240    1.1800   -0.5790 h1        1 AMI      0.130700
     18 H3          2.9580   -0.1890    1.1870 h1        1 AMI      0.094700
     19 H4          0.9540   -0.0220    3.2110 h1        1 AMI      0.102700
     20 H5         -0.5270   -1.9740    1.6910 hc        1 AMI      0.102700
     21 H61        -1.1770    0.9850    2.3870 h1        1 AMI      0.041700
     22 H62        -2.3960   -0.2630    1.8210 h1        1 AMI      0.041700
     23 H81         0.1210   -4.1980   -0.8590 hx        1 AMI      0.115367
     24 H82         1.2610   -5.0050   -2.0620 hx        1 AMI      0.115367
     25 H83         1.9370   -4.0770   -0.6200 hx        1 AMI      0.115367
     26 H91         0.1660   -1.9700   -3.8850 hx        1 AMI      0.115367
     27 H92         0.2360   -3.8110   -3.9020 hx        1 AMI      0.115367
     28 H93        -0.9280   -2.9370   -2.7720 hx        1 AMI      0.115367
     29 HO3         2.7490    1.9640    1.4130 ho        1 AMI      0.426000
     30 HO4         1.4940   -2.1420    3.3220 ho        1 AMI      0.431000
     31 HO6        -2.1430   -0.1580    4.1330 ho        1 AMI      0.424000
     32 H71         2.0650   -2.7980   -2.6610 hn        1 AMI      0.478800
@<TRIPOS>BOND
     1    1    2 1   
     2    1    5 1   
     3    1   15 1   
     4    1   16 1   
     5    2    3 1   
     6    2   10 1   
     7    2   17 1   
     8    3    4 1   
     9    3   12 1   
    10    3   18 1   
    11    4    5 1   
    12    4   13 1   
    13    4   19 1   
    14    5    6 1   
    15    5   20 1   
    16    6   14 1   
    17    6   21 1   
    18    6   22 1   
    19    7   10 2   
    20    7   11 1   
    21    7   15 1   
    22    8   11 1   
    23    8   23 1   
    24    8   24 1   
    25    8   25 1   
    26    9   11 1   
    27    9   26 1   
    28    9   27 1   
    29    9   28 1   
    30   11   32 1   
    31   12   29 1   
    32   13   30 1   
    33   14   31 1   
@<TRIPOS>SUBSTRUCTURE
     1 AMI         1 TEMP              0 ****  ****    0 ROOT
