@<TRIPOS>MOLECULE
AMI
   32    33     1     0     0
SMALL
bcc


@<TRIPOS>ATOM
      1 C1         -0.2040   -0.4250    0.1530 c3        1 AMI      0.131100
      2 C2          1.2460    0.1300   -0.0940 c3        1 AMI      0.050500
      3 C3          1.9550    0.1580    1.2850 c3        1 AMI      0.149100
      4 C4          1.0590   -0.6360    2.2660 c3        1 AMI      0.143100
      5 C5         -0.3150   -0.8580    1.6070 c3        1 AMI     -0.114700
      6 C6         -1.4040   -0.0650    2.3250 c3        1 AMI      0.136400
      7 C7          0.9700   -1.7090   -1.3320 c2        1 AMI      0.615500
      8 C8          1.0300   -4.1270   -1.4070 c3        1 AMI      0.091600
      9 C9          0.0850   -2.8420   -3.2890 c3        1 AMI      0.091600
     10 N2          1.8590   -0.7870   -1.0600 n2        1 AMI     -0.526900
     11 N7          1.1200   -2.8750   -2.2160 n4        1 AMI     -0.610400
     12 O3          1.9950    1.4930    1.7410 oh        1 AMI     -0.581800
     13 O4          1.7040   -1.8820    2.4740 oh        1 AMI     -0.610800
     14 O6         -1.5040   -0.6220    3.6250 oh        1 AMI     -0.604800
     15 O7         -0.2910   -1.6030   -0.7200 os        1 AMI     -0.436400
     16 H1         -1.0180    0.2590   -0.1900 h1        1 AMI      0.112700
     17 H2          1.2320    1.1630   -0.5390 h1        1 AMI      0.130700
     18 H3          2.9820   -0.2960    1.2430 h1        1 AMI      0.094700
     19 H4          0.9490   -0.0710    3.2330 h1        1 AMI      0.102700
     20 H5         -0.5760   -1.9520    1.6650 hc        1 AMI      0.102700
     21 H61        -1.1290    1.0220    2.3850 h1        1 AMI      0.041700
     22 H62        -2.3820   -0.1750    1.7830 h1        1 AMI      0.041700
     23 H81         0.0270   -4.1680   -0.9020 hx        1 AMI      0.115367
     24 H82         1.8410   -4.1220   -0.6280 hx        1 AMI      0.115367
     25 H83         1.1560   -5.0050   -2.0950 hx        1 AMI      0.115367
     26 H91        -0.9360   -2.8440   -2.8190 hx        1 AMI      0.115367
     27 H92         0.2140   -3.7490   -3.9370 hx        1 AMI      0.115367
     28 H93         0.2160   -1.9080   -3.8990 hx        1 AMI      0.115367
     29 HO3         2.8520    1.8610    1.4900 ho        1 AMI      0.426000
     30 HO4         1.4060   -2.2120    3.3310 ho        1 AMI      0.431000
     31 HO6        -2.1670   -0.1050    4.1000 ho        1 AMI      0.424000
     32 H71         2.0570   -2.8240   -2.6510 hn        1 AMI      0.478800
@<TRIPOS>BOND
     1    1    2 1   
     2    1    5 1   
     3    1   15 1   
     4    1   16 1   
     5    2    3 1   
     6    2   10 1   
     7    2   17 1   
     8    3    4 1   
     9    3   12 1   
    10    3   18 1   
    11    4    5 1   
    12    4   13 1   
    13    4   19 1   
    14    5    6 1   
    15    5   20 1   
    16    6   14 1   
    17    6   21 1   
    18    6   22 1   
    19    7   10 2   
    20    7   11 1   
    21    7   15 1   
    22    8   11 1   
    23    8   23 1   
    24    8   24 1   
    25    8   25 1   
    26    9   11 1   
    27    9   26 1   
    28    9   27 1   
    29    9   28 1   
    30   11   32 1   
    31   12   29 1   
    32   13   30 1   
    33   14   31 1   
@<TRIPOS>SUBSTRUCTURE
     1 AMI         1 TEMP              0 ****  ****    0 ROOT
