@<TRIPOS>MOLECULE
AMJ
   38    38     1     0     0
SMALL
bcc


@<TRIPOS>ATOM
      1 C           0.0110   -0.0350   -0.2370 c         1 AMJ      0.521100
      2 N           1.9530    1.4700   -0.6250 n4        1 AMJ     -0.704800
      3 O          -0.6900    0.6450   -0.9770 o         1 AMJ     -0.394100
      4 CA          1.5460    0.0910   -0.2020 c3        1 AMJ      0.045500
      5 CB          2.1330   -0.2730    1.1790 c3        1 AMJ      0.095400
      6 CAA         1.9380    0.4680    3.4400 c3        1 AMJ      0.110700
      7 CAB         3.7070    2.8790   -1.8220 c3        1 AMJ     -0.192100
      8 OAC         3.9940    0.5070   -1.2470 o         1 AMJ     -0.383100
      9 CAE        -3.7580   -4.2180    2.9620 ca        1 AMJ     -0.051000
     10 CAF        -3.7340   -2.8830    3.3780 ca        1 AMJ     -0.115500
     11 CAG        -3.2210   -4.5760    1.7230 ca        1 AMJ     -0.115500
     12 CAH        -3.1740   -1.9070    2.5580 ca        1 AMJ     -0.091500
     13 CAI        -2.6610   -3.6040    0.8970 ca        1 AMJ     -0.091500
     14 CAJ        -2.1140   -1.2190    0.4050 c3        1 AMJ      0.200100
     15 NAL        -0.6200   -1.0320    0.6560 n4        1 AMJ     -0.663800
     16 OAN         1.3540    0.4320    2.1310 os        1 AMJ     -0.492600
     17 CAO         3.3640    1.5440   -1.2680 c         1 AMJ      0.578100
     18 CAQ        -2.6360   -2.2640    1.3130 ca        1 AMJ     -0.223300
     19 HN          1.2740    1.8410   -1.3080 hn        1 AMJ      0.479800
     20 HA          1.9630   -0.6450   -0.9660 hx        1 AMJ      0.172700
     21 HB          2.0500   -1.3820    1.3460 h1        1 AMJ      0.097200
     22 HBA         3.2200    0.0090    1.2400 h1        1 AMJ      0.097200
     23 HAA         2.0510   -0.5700    3.8370 h1        1 AMJ      0.078033
     24 HAAA        1.1950    1.0540    4.0410 h1        1 AMJ      0.078033
     25 HAAB        2.9250    0.9900    3.4060 h1        1 AMJ      0.078033
     26 HAB         3.3000    2.9680   -2.8670 hc        1 AMJ      0.136367
     27 HABA        4.8310    2.9540   -1.8790 hc        1 AMJ      0.136367
     28 HABB        3.3220    3.7280   -1.2030 hc        1 AMJ      0.136367
     29 HAG        -3.2540   -5.6280    1.3910 ha        1 AMJ      0.172500
     30 HAH        -3.1830   -0.8530    2.8790 ha        1 AMJ      0.139500
     31 HAI        -2.2670   -3.8890   -0.0900 ha        1 AMJ      0.139500
     32 HAJ        -2.6060   -0.2190    0.5810 hx        1 AMJ      0.119700
     33 HAJA       -2.2340   -1.5030   -0.6800 hx        1 AMJ      0.119700
     34 HNAL       -0.4830   -0.7190    1.6360 hn        1 AMJ      0.480800
     35 HAE        -4.2120   -4.9880    3.6100 ha        1 AMJ      0.176000
     36 H2          1.9430    2.0830    0.2020 hn        1 AMJ      0.479800
     37 HAL2       -0.1540   -1.9430    0.5510 hn        1 AMJ      0.480800
     38 HAF        -4.1700   -2.6020    4.3510 ha        1 AMJ      0.172500
@<TRIPOS>BOND
     1    1    3 2   
     2    1    4 1   
     3    1   15 1   
     4    2    4 1   
     5    2   17 1   
     6    2   19 1   
     7    2   36 1   
     8    4    5 1   
     9    4   20 1   
    10    5   16 1   
    11    5   21 1   
    12    5   22 1   
    13    6   16 1   
    14    6   23 1   
    15    6   24 1   
    16    6   25 1   
    17    7   17 1   
    18    7   26 1   
    19    7   27 1   
    20    7   28 1   
    21    8   17 2   
    22    9   10 ar  
    23    9   11 ar  
    24    9   35 1   
    25   10   12 ar  
    26   10   38 1   
    27   11   13 ar  
    28   11   29 1   
    29   12   18 ar  
    30   12   30 1   
    31   13   18 ar  
    32   13   31 1   
    33   14   15 1   
    34   14   18 1   
    35   14   32 1   
    36   14   33 1   
    37   15   34 1   
    38   15   37 1   
@<TRIPOS>SUBSTRUCTURE
     1 AMJ         1 TEMP              0 ****  ****    0 ROOT
