@<TRIPOS>MOLECULE
AMJ
   38    38     1     0     0
SMALL
bcc


@<TRIPOS>ATOM
      1 C           0.0040   -0.0230   -0.2310 c         1 AMJ      0.521100
      2 N           1.9520    1.4730   -0.6220 ny        1 AMJ     -0.704800
      3 O          -0.7000    0.6700   -0.9560 o         1 AMJ     -0.394100
      4 CA          1.5400    0.0920   -0.2100 c3        1 AMJ      0.045500
      5 CB          2.1380   -0.2910    1.1620 c3        1 AMJ      0.095400
      6 CAA         1.9700    0.4270    3.4320 c3        1 AMJ      0.110700
      7 CAB         3.7050    2.8820   -1.8210 c3        1 AMJ     -0.192100
      8 OAC         3.9800    0.5020   -1.2740 o         1 AMJ     -0.383100
      9 CAE        -3.7640   -4.2110    2.9630 ca        1 AMJ     -0.051000
     10 CAF        -3.7250   -2.8820    3.3920 ca        1 AMJ     -0.115500
     11 CAG        -3.2420   -4.5610    1.7140 ca        1 AMJ     -0.115500
     12 CAH        -3.1670   -1.9010    2.5770 ca        1 AMJ     -0.091500
     13 CAI        -2.6830   -3.5840    0.8940 ca        1 AMJ     -0.091500
     14 CAJ        -2.1230   -1.1980    0.4200 c3        1 AMJ      0.200100
     15 NAL        -0.6260   -1.0240    0.6580 ny        1 AMJ     -0.663800
     16 OAN         1.3740    0.4090    2.1290 os        1 AMJ     -0.492600
     17 CAO         3.3570    1.5440   -1.2780 c         1 AMJ      0.578100
     18 CAQ        -2.6440   -2.2490    1.3230 ca        1 AMJ     -0.223300
     19 HN          1.2700    1.8560   -1.2940 hn        1 AMJ      0.479800
     20 HA          1.9440   -0.6390   -0.9860 hx        1 AMJ      0.172700
     21 HB          3.2280   -0.0170    1.2150 h1        1 AMJ      0.097200
     22 HBA         2.0490   -1.4010    1.3180 h1        1 AMJ      0.097200
     23 HAA         1.2380    1.0120    4.0470 h1        1 AMJ      0.078033
     24 HAAA        2.9600    0.9430    3.3940 h1        1 AMJ      0.078033
     25 HAAB        2.0800   -0.6150    3.8170 h1        1 AMJ      0.078033
     26 HAB         3.2930    2.9830   -2.8620 hc        1 AMJ      0.136367
     27 HABA        4.8290    2.9520   -1.8840 hc        1 AMJ      0.136367
     28 HABB        3.3280    3.7270   -1.1920 hc        1 AMJ      0.136367
     29 HAG        -3.2850   -5.6090    1.3720 ha        1 AMJ      0.172500
     30 HAH        -3.1650   -0.8510    2.9090 ha        1 AMJ      0.139500
     31 HAI        -2.3010   -3.8620   -0.1010 ha        1 AMJ      0.139500
     32 HAJ        -2.6060   -0.1970    0.6120 hx        1 AMJ      0.119700
     33 HAJA       -2.2560   -1.4700   -0.6660 hx        1 AMJ      0.119700
     34 HNAL       -0.4760   -0.7230    1.6400 hn        1 AMJ      0.480800
     35 HAE        -4.2160   -4.9860    3.6070 ha        1 AMJ      0.176000
     36 H2          1.9550    2.0770    0.2120 hn        1 AMJ      0.479800
     37 HAL2       -0.1680   -1.9380    0.5390 hn        1 AMJ      0.480800
     38 HAF        -4.1500   -2.6070    4.3720 ha        1 AMJ      0.172500
@<TRIPOS>BOND
     1    1    3 2   
     2    1    4 1   
     3    1   15 1   
     4    2    4 1   
     5    2   17 1   
     6    2   19 1   
     7    2   36 1   
     8    4    5 1   
     9    4   20 1   
    10    5   16 1   
    11    5   21 1   
    12    5   22 1   
    13    6   16 1   
    14    6   23 1   
    15    6   24 1   
    16    6   25 1   
    17    7   17 1   
    18    7   26 1   
    19    7   27 1   
    20    7   28 1   
    21    8   17 2   
    22    9   10 ar  
    23    9   11 ar  
    24    9   35 1   
    25   10   12 ar  
    26   10   38 1   
    27   11   13 ar  
    28   11   29 1   
    29   12   18 ar  
    30   12   30 1   
    31   13   18 ar  
    32   13   31 1   
    33   14   15 1   
    34   14   18 1   
    35   14   32 1   
    36   14   33 1   
    37   15   34 1   
    38   15   37 1   
@<TRIPOS>SUBSTRUCTURE
     1 AMJ         1 TEMP              0 ****  ****    0 ROOT
