@<TRIPOS>MOLECULE
AMJ
   38    38     1     0     0
SMALL
bcc


@<TRIPOS>ATOM
      1 C           0.0080   -0.0340   -0.2350 c         1 AMJ      0.521100
      2 N           1.9510    1.4670   -0.6310 n4        1 AMJ     -0.704800
      3 O          -0.6940    0.6460   -0.9730 o         1 AMJ     -0.394100
      4 CA          1.5430    0.0900   -0.2050 c3        1 AMJ      0.045500
      5 CB          2.1340   -0.2740    1.1750 c3        1 AMJ      0.095400
      6 CAA         1.9450    0.4710    3.4360 c3        1 AMJ      0.110700
      7 CAB         3.7040    2.8720   -1.8350 c3        1 AMJ     -0.192100
      8 OAC         3.9880    0.5000   -1.2580 o         1 AMJ     -0.383100
      9 CAE        -3.7560   -4.2170    2.9700 ca        1 AMJ     -0.051000
     10 CAF        -3.7270   -2.8840    3.3890 ca        1 AMJ     -0.115500
     11 CAG        -3.2240   -4.5730    1.7280 ca        1 AMJ     -0.115500
     12 CAH        -3.1700   -1.9060    2.5700 ca        1 AMJ     -0.091500
     13 CAI        -2.6650   -3.6000    0.9030 ca        1 AMJ     -0.091500
     14 CAJ        -2.1160   -1.2140    0.4140 c3        1 AMJ      0.200100
     15 NAL        -0.6220   -1.0300    0.6600 n4        1 AMJ     -0.663800
     16 OAN         1.3590    0.4340    2.1280 os        1 AMJ     -0.492600
     17 CAO         3.3600    1.5380   -1.2790 c         1 AMJ      0.578100
     18 CAQ        -2.6360   -2.2610    1.3220 ca        1 AMJ     -0.223300
     19 HN          1.9450    2.0820    0.1950 hn        1 AMJ      0.479800
     20 HA          1.9570   -0.6490   -0.9690 hx        1 AMJ      0.172700
     21 HB          3.2220    0.0080    1.2340 h1        1 AMJ      0.097200
     22 HBA         2.0500   -1.3820    1.3440 h1        1 AMJ      0.097200
     23 HAA         2.9320    0.9930    3.3990 h1        1 AMJ      0.078033
     24 HAAA        1.2050    1.0580    4.0380 h1        1 AMJ      0.078033
     25 HAAB        2.0580   -0.5660    3.8340 h1        1 AMJ      0.078033
     26 HAB         3.3420    3.7210   -1.2020 hc        1 AMJ      0.136367
     27 HABA        4.8260    2.9370   -1.9190 hc        1 AMJ      0.136367
     28 HABB        3.2730    2.9710   -2.8690 hc        1 AMJ      0.136367
     29 HAG        -3.2590   -5.6240    1.3940 ha        1 AMJ      0.172500
     30 HAH        -3.1760   -0.8530    2.8930 ha        1 AMJ      0.139500
     31 HAI        -2.2750   -3.8830   -0.0870 ha        1 AMJ      0.139500
     32 HAJ        -2.6060   -0.2140    0.5950 hx        1 AMJ      0.119700
     33 HAJA       -2.2410   -1.4960   -0.6710 hx        1 AMJ      0.119700
     34 HNAL       -0.4800   -0.7170    1.6400 hn        1 AMJ      0.480800
     35 HAE        -4.2080   -4.9890    3.6180 ha        1 AMJ      0.176000
     36 H2          1.2710    1.8390   -1.3120 hn        1 AMJ      0.479800
     37 HAL2       -0.1580   -1.9420    0.5540 hn        1 AMJ      0.480800
     38 HAF        -4.1600   -2.6040    4.3640 ha        1 AMJ      0.172500
@<TRIPOS>BOND
     1    1    3 2   
     2    1    4 1   
     3    1   15 1   
     4    2    4 1   
     5    2   17 1   
     6    2   19 1   
     7    2   36 1   
     8    4    5 1   
     9    4   20 1   
    10    5   16 1   
    11    5   21 1   
    12    5   22 1   
    13    6   16 1   
    14    6   23 1   
    15    6   24 1   
    16    6   25 1   
    17    7   17 1   
    18    7   26 1   
    19    7   27 1   
    20    7   28 1   
    21    8   17 2   
    22    9   10 ar  
    23    9   11 ar  
    24    9   35 1   
    25   10   12 ar  
    26   10   38 1   
    27   11   13 ar  
    28   11   29 1   
    29   12   18 ar  
    30   12   30 1   
    31   13   18 ar  
    32   13   31 1   
    33   14   15 1   
    34   14   18 1   
    35   14   32 1   
    36   14   33 1   
    37   15   34 1   
    38   15   37 1   
@<TRIPOS>SUBSTRUCTURE
     1 AMJ         1 TEMP              0 ****  ****    0 ROOT
