@<TRIPOS>MOLECULE
AMJ
   36    36     1     0     0
SMALL
bcc


@<TRIPOS>ATOM
      1 C           0.6600    0.7660    0.2660 c         1 AMJ      0.641100
      2 N           3.0120   -0.0160    0.3340 n         1 AMJ     -0.544900
      3 O           0.6230    0.7720    1.5110 o         1 AMJ     -0.604100
      4 CA          1.8700    0.1940   -0.5160 c3        1 AMJ      0.030700
      5 CB          1.4310   -1.1000   -1.2350 c3        1 AMJ      0.120400
      6 CAA         0.6110   -3.2730   -0.7960 c3        1 AMJ      0.115700
      7 CAB         5.1750    0.6360    1.3330 c3        1 AMJ     -0.173100
      8 OAC         4.3050    1.5650   -0.7150 o         1 AMJ     -0.611100
      9 CAE        -4.7940   -1.0460    0.1580 ca        1 AMJ     -0.125000
     10 CAF        -3.6670   -1.2460    0.9560 ca        1 AMJ     -0.134500
     11 CAG        -4.8720    0.0740   -0.6690 ca        1 AMJ     -0.134500
     12 CAH        -2.6190   -0.3280    0.9270 ca        1 AMJ     -0.115000
     13 CAI        -3.8230    0.9930   -0.7020 ca        1 AMJ     -0.115000
     14 CAJ        -1.5750    1.7980    0.0980 c3        1 AMJ      0.127300
     15 NAL        -0.3460    1.3370   -0.4940 n         1 AMJ     -0.550900
     16 OAN         0.9540   -2.0100   -0.2510 os        1 AMJ     -0.418600
     17 CAO         4.1390    0.7900    0.2480 c         1 AMJ      0.658100
     18 CAQ        -2.6940    0.7960    0.0970 ca        1 AMJ     -0.128300
     19 HN          2.8210   -0.4850    1.1920 hn        1 AMJ      0.328500
     20 HA          2.1640    0.9360   -1.3240 h1        1 AMJ      0.111700
     21 HB          0.6110   -0.8690   -1.9650 h1        1 AMJ      0.039200
     22 HBA         2.2980   -1.5510   -1.7880 h1        1 AMJ      0.039200
     23 HAA        -0.2030   -3.1660   -1.5560 h1        1 AMJ      0.036367
     24 HAAA        1.5050   -3.7580   -1.2610 h1        1 AMJ      0.036367
     25 HAAB        0.2540   -3.8650    0.0820 h1        1 AMJ      0.036367
     26 HAB         5.5240   -0.4220    1.3990 hc        1 AMJ      0.069033
     27 HABA        6.0460    1.2930    1.0930 hc        1 AMJ      0.069033
     28 HABB        4.7480    0.9420    2.3190 hc        1 AMJ      0.069033
     29 HAF        -3.6050   -2.1270    1.6110 ha        1 AMJ      0.132000
     30 HAG        -5.7600    0.2340   -1.2970 ha        1 AMJ      0.132000
     31 HAH        -1.7240   -0.4770    1.5550 ha        1 AMJ      0.142000
     32 HAI        -3.8900    1.8770   -1.3550 ha        1 AMJ      0.142000
     33 HAJ        -1.3620    2.0990    1.1660 h1        1 AMJ      0.071200
     34 HAJA       -1.8950    2.7190   -0.4720 h1        1 AMJ      0.071200
     35 HNAL       -0.3790    1.1160   -1.4620 hn        1 AMJ      0.302500
     36 HAE        -5.6220   -1.7700    0.1840 ha        1 AMJ      0.131000
@<TRIPOS>BOND
     1    1    3 2   
     2    1    4 1   
     3    1   15 1   
     4    2    4 1   
     5    2   17 1   
     6    2   19 1   
     7    4    5 1   
     8    4   20 1   
     9    5   16 1   
    10    5   21 1   
    11    5   22 1   
    12    6   16 1   
    13    6   23 1   
    14    6   24 1   
    15    6   25 1   
    16    7   17 1   
    17    7   26 1   
    18    7   27 1   
    19    7   28 1   
    20    8   17 2   
    21    9   10 ar  
    22    9   11 ar  
    23    9   36 1   
    24   10   12 ar  
    25   10   29 1   
    26   11   13 ar  
    27   11   30 1   
    28   12   18 ar  
    29   12   31 1   
    30   13   18 ar  
    31   13   32 1   
    32   14   15 1   
    33   14   18 1   
    34   14   33 1   
    35   14   34 1   
    36   15   35 1   
@<TRIPOS>SUBSTRUCTURE
     1 AMJ         1 TEMP              0 ****  ****    0 ROOT
