@<TRIPOS>MOLECULE
AMJ
   36    32     1     0     0
SMALL
bcc


@<TRIPOS>ATOM
      1 C          -0.1630    1.0920    0.3670 c1        1 AMJ      0.523500
      2 N           1.8770    2.0520   -0.4500 n         1 AMJ     -0.514500
      3 O          -0.7920    2.1210    0.3210 o         1 AMJ     -0.617500
      4 CA          1.3530    1.1330    0.4890 c2        1 AMJ      0.211500
      5 CB          1.7360    1.5670    1.8870 c3        1 AMJ      0.045100
      6 CAA         3.4570    1.3450    3.5230 c3        1 AMJ      0.118700
      7 CAB         3.0700    2.5230   -2.6440 c3        1 AMJ     -0.173100
      8 OAC         3.1100    0.4500   -1.5060 o         1 AMJ     -0.628100
      9 CAE        -3.9830   -4.0240   -1.0820 c1        1 AMJ     -0.069750
     10 CAF        -4.4070   -3.2040   -0.0480 c1        1 AMJ     -0.069750
     11 CAG        -2.8650   -3.6760   -1.8320 c1        1 AMJ     -0.069750
     12 CAH        -3.7150   -2.0340    0.2380 c1        1 AMJ     -0.055500
     13 CAI        -2.1730   -2.5050   -1.5450 c1        1 AMJ     -0.069750
     14 CAJ        -2.1590   -0.2210   -0.3650 c3        1 AMJ      0.037400
     15 NAL        -0.8390   -0.1710    0.2210 n3        1 AMJ     -0.389400
     16 OAN         3.0620    1.1490    2.1650 os        1 AMJ     -0.434600
     17 CAO         2.7100    1.5930   -1.5050 c         1 AMJ      0.663100
     18 CAQ        -2.5970   -1.6850   -0.5110 c1        1 AMJ     -0.082100
     19 HN          1.7120    2.9440   -0.3550 hn        1 AMJ      0.320500
     20 HA          1.7180    0.2430    0.3130 h4        1 AMJ      0.003800
     21 HB          1.6810    2.5460    1.9520 h1        1 AMJ      0.057200
     22 HBA         1.1250    1.1620    2.5340 h1        1 AMJ      0.057200
     23 HAA         3.4450    2.3060    3.7320 h1        1 AMJ      0.036700
     24 HAAA        2.8310    0.8710    4.1190 h1        1 AMJ      0.036700
     25 HAAB        4.3620    0.9930    3.6540 h1        1 AMJ      0.036700
     26 HAB         2.3330    2.5510   -3.2870 hc        1 AMJ      0.069700
     27 HABA        3.2320    3.4280   -2.2900 hc        1 AMJ      0.069700
     28 HABB        3.8780    2.1970   -3.0880 hc        1 AMJ      0.069700
     29 HAE        -4.4690   -4.8460   -1.2830 ha        1 AMJ      0.075000
     30 HAF        -5.1910   -3.4470    0.4770 ha        1 AMJ      0.075000
     31 HAG        -2.5670   -4.2540   -2.5580 ha        1 AMJ      0.075000
     32 HAH        -4.0140   -1.4570    0.9650 ha        1 AMJ      0.080500
     33 HAI        -1.3890   -2.2610   -2.0700 ha        1 AMJ      0.075000
     34 HAJ        -2.7960    0.2560    0.2170 h1        1 AMJ      0.068200
     35 HAJA       -2.1400    0.2050   -1.2500 h1        1 AMJ      0.068200
     36 HNAL       -0.4320   -0.9380    0.4920 hn        1 AMJ      0.300700
@<TRIPOS>BOND
     1    1    3 2   
     2    1   15 2   
     3    2    4 2   
     4    2   17 1   
     5    2   19 1   
     6    4    5 1   
     7    4   20 1   
     8    5   16 1   
     9    5   21 1   
    10    5   22 1   
    11    6   16 1   
    12    6   23 1   
    13    6   24 1   
    14    6   25 1   
    15    7   17 1   
    16    7   26 1   
    17    7   27 1   
    18    7   28 1   
    19    8   17 2   
    20    9   10 3   
    21    9   29 1   
    22   10   30 1   
    23   11   13 3   
    24   11   31 1   
    25   12   18 3   
    26   12   32 1   
    27   13   33 1   
    28   14   15 1   
    29   14   18 1   
    30   14   34 1   
    31   14   35 1   
    32   15   36 1   
@<TRIPOS>SUBSTRUCTURE
     1 AMJ         1 TEMP              0 ****  ****    0 ROOT
