@<TRIPOS>MOLECULE
AML
   20    19     1     0     0
SMALL
bcc


@<TRIPOS>ATOM
      1 C1         -0.0030    0.0010    0.0140 c3        1 AML     -0.098100
      2 C2          1.5040    0.0000    0.0120 c3        1 AML     -0.078400
      3 C3          2.0510    0.0010    1.4250 c3        1 AML     -0.080400
      4 C4          3.5680   -0.0010    1.4110 c3        1 AML     -0.111400
      5 C5          4.0810    0.0010    2.8450 c3        1 AML      0.098800
      6 N1          5.5740   -0.0020    2.9200 nz        1 AML     -0.839600
      7 HC11       -0.3990    0.9080    0.5330 hc        1 AML      0.047700
      8 HC12       -0.3870    0.0010   -1.0350 hc        1 AML      0.047700
      9 HC13       -0.4000   -0.9040    0.5340 hc        1 AML      0.047700
     10 HC21        1.8800   -0.9040   -0.5360 hc        1 AML      0.048700
     11 HC22        1.8810    0.9030   -0.5370 hc        1 AML      0.048700
     12 HC31        1.6760    0.9070    1.9710 hc        1 AML      0.057700
     13 HC32        1.6740   -0.9030    1.9730 hc        1 AML      0.057700
     14 HC41        3.9360    0.9050    0.8600 hc        1 AML      0.069700
     15 HC42        3.9330   -0.9100    0.8630 hc        1 AML      0.069700
     16 HC51        3.7090   -0.9150    3.3900 hx        1 AML      0.113700
     17 HC52        3.7130    0.9200    3.3870 hx        1 AML      0.113700
     18 HN11        5.8770   -0.0010    3.8990 hn        1 AML      0.461800
     19 HN12        5.9500    0.8290    2.4510 hn        1 AML      0.461800
     20 H13         5.9470   -0.8350    2.4550 hn        1 AML      0.461800
@<TRIPOS>BOND
     1    1    2 1   
     2    1    7 1   
     3    1    8 1   
     4    1    9 1   
     5    2    3 1   
     6    2   10 1   
     7    2   11 1   
     8    3    4 1   
     9    3   12 1   
    10    3   13 1   
    11    4    5 1   
    12    4   14 1   
    13    4   15 1   
    14    5    6 1   
    15    5   16 1   
    16    5   17 1   
    17    6   18 1   
    18    6   19 1   
    19    6   20 1   
@<TRIPOS>SUBSTRUCTURE
     1 AML         1 TEMP              0 ****  ****    0 ROOT
