@<TRIPOS>MOLECULE
AML
   20    19     1     0     0
SMALL
bcc


@<TRIPOS>ATOM
      1 C1         -0.0020   -0.0000    0.0120 c3        1 AML     -0.098100
      2 C2          1.5060    0.0000    0.0100 c3        1 AML     -0.078400
      3 C3          2.0510   -0.0000    1.4250 c3        1 AML     -0.080400
      4 C4          3.5680    0.0000    1.4110 c3        1 AML     -0.111400
      5 C5          4.0800   -0.0000    2.8460 c3        1 AML      0.098800
      6 N1          5.5720    0.0000    2.9230 n4        1 AML     -0.839600
      7 HC11       -0.3990    0.9050    0.5310 hc        1 AML      0.047700
      8 HC12       -0.3840    0.0000   -1.0380 hc        1 AML      0.047700
      9 HC13       -0.3980   -0.9060    0.5300 hc        1 AML      0.047700
     10 HC21        1.8830   -0.9030   -0.5380 hc        1 AML      0.048700
     11 HC22        1.8820    0.9050   -0.5370 hc        1 AML      0.048700
     12 HC31        1.6740    0.9040    1.9720 hc        1 AML      0.057700
     13 HC32        1.6750   -0.9060    1.9700 hc        1 AML      0.057700
     14 HC41        3.9350    0.9080    0.8630 hc        1 AML      0.069700
     15 HC42        3.9360   -0.9070    0.8620 hc        1 AML      0.069700
     16 HC51        3.7090   -0.9180    3.3890 hx        1 AML      0.113700
     17 HC52        3.7090    0.9170    3.3900 hx        1 AML      0.113700
     18 HN11        5.8750   -0.0000    3.9020 hn        1 AML      0.461800
     19 HN12        5.9480    0.8320    2.4560 hn        1 AML      0.461800
     20 H13         5.9480   -0.8320    2.4550 hn        1 AML      0.461800
@<TRIPOS>BOND
     1    1    2 1   
     2    1    7 1   
     3    1    8 1   
     4    1    9 1   
     5    2    3 1   
     6    2   10 1   
     7    2   11 1   
     8    3    4 1   
     9    3   12 1   
    10    3   13 1   
    11    4    5 1   
    12    4   14 1   
    13    4   15 1   
    14    5    6 1   
    15    5   16 1   
    16    5   17 1   
    17    6   18 1   
    18    6   19 1   
    19    6   20 1   
@<TRIPOS>SUBSTRUCTURE
     1 AML         1 TEMP              0 ****  ****    0 ROOT
