@<TRIPOS>MOLECULE
AML
   19    18     1     0     0
SMALL
bcc


@<TRIPOS>ATOM
      1 C1         -2.5950   -0.0000   -1.3970 c3        1 AML     -0.093100
      2 C2         -1.0820   -0.0000   -1.3970 c3        1 AML     -0.079400
      3 C3         -0.5770   -0.0000    0.0300 c3        1 AML     -0.079400
      4 C4          0.9360    0.0000    0.0300 c3        1 AML     -0.083400
      5 C5          1.4400   -0.0000    1.4560 c3        1 AML      0.158800
      6 N1          2.8660    0.0000    1.4560 n3        1 AML     -0.916800
      7 HC11       -2.9200    0.7970   -0.9360 hc        1 AML      0.032367
      8 HC12       -2.9200   -0.0000   -2.3170 hc        1 AML      0.032367
      9 HC13       -2.9200   -0.7970   -0.9360 hc        1 AML      0.032367
     10 HC21       -0.7560   -0.7970   -1.8570 hc        1 AML      0.039700
     11 HC22       -0.7560    0.7970   -1.8570 hc        1 AML      0.039700
     12 HC31       -0.9030   -0.7970    0.4900 hc        1 AML      0.039700
     13 HC32       -0.9030    0.7970    0.4900 hc        1 AML      0.039700
     14 HC41        1.2610    0.7970   -0.4300 hc        1 AML      0.046200
     15 HC42        1.2610   -0.7970   -0.4300 hc        1 AML      0.046200
     16 HC51        1.1150   -0.7970    1.9160 h1        1 AML      0.023700
     17 HC52        1.1140    0.7970    1.9160 h1        1 AML      0.023700
     18 HN11        3.1700   -0.7450    1.8860 hn        1 AML      0.347800
     19 HN12        3.1700    0.7450    1.8860 hn        1 AML      0.347800
@<TRIPOS>BOND
     1    1    2 1   
     2    1    7 1   
     3    1    8 1   
     4    1    9 1   
     5    2    3 1   
     6    2   10 1   
     7    2   11 1   
     8    3    4 1   
     9    3   12 1   
    10    3   13 1   
    11    4    5 1   
    12    4   14 1   
    13    4   15 1   
    14    5    6 1   
    15    5   16 1   
    16    5   17 1   
    17    6   18 1   
    18    6   19 1   
@<TRIPOS>SUBSTRUCTURE
     1 AML         1 TEMP              0 ****  ****    0 ROOT
