@<TRIPOS>MOLECULE
AML
   19    18     1     0     0
SMALL
bcc


@<TRIPOS>ATOM
      1 C1         -0.2430    0.0110    3.1590 c3        1 AML     -0.093100
      2 C2          0.5400   -0.0070    1.8710 c3        1 AML     -0.079400
      3 C3         -0.3750    0.0120    0.6650 c3        1 AML     -0.079400
      4 C4          0.4170   -0.0070   -0.6240 c3        1 AML     -0.083400
      5 C5         -0.5260    0.0150   -1.8250 c3        1 AML      0.158800
      6 N1          0.1580   -0.0550   -3.0940 n3        1 AML     -0.916800
      7 HC11        0.4500   -0.0040    4.0340 hc        1 AML      0.032367
      8 HC12       -0.8740    0.9300    3.2240 hc        1 AML      0.032367
      9 HC13       -0.9140   -0.8800    3.2250 hc        1 AML      0.032367
     10 HC21        1.2260    0.8800    1.8340 hc        1 AML      0.039700
     11 HC22        1.1850   -0.9240    1.8350 hc        1 AML      0.039700
     12 HC31       -1.0600   -0.8760    0.7000 hc        1 AML      0.039700
     13 HC32       -1.0210    0.9290    0.7000 hc        1 AML      0.039700
     14 HC41        1.1020    0.8810   -0.6580 hc        1 AML      0.046200
     15 HC42        1.0590   -0.9260   -0.6600 hc        1 AML      0.046200
     16 HC51       -1.2100   -0.8800   -1.7650 h1        1 AML      0.023700
     17 HC52       -1.1810    0.9340   -1.7370 h1        1 AML      0.023700
     18 HN11       -0.4850    0.0970   -3.8450 hn        1 AML      0.347800
     19 HN12        0.8910    0.6240   -3.1470 hn        1 AML      0.347800
@<TRIPOS>BOND
     1    1    2 1   
     2    1    7 1   
     3    1    8 1   
     4    1    9 1   
     5    2    3 1   
     6    2   10 1   
     7    2   11 1   
     8    3    4 1   
     9    3   12 1   
    10    3   13 1   
    11    4    5 1   
    12    4   14 1   
    13    4   15 1   
    14    5    6 1   
    15    5   16 1   
    16    5   17 1   
    17    6   18 1   
    18    6   19 1   
@<TRIPOS>SUBSTRUCTURE
     1 AML         1 TEMP              0 ****  ****    0 ROOT
