@<TRIPOS>MOLECULE
AMM
   32    31     1     0     0
SMALL
bcc


@<TRIPOS>ATOM
      1 N          -1.6090   -1.7790   -1.7460 n3        1 AMM     -0.899800
      2 CA         -0.9260   -0.7050   -1.0760 c3        1 AMM     -0.096200
      3 SI          0.7750   -1.2770   -0.7410 Si        1 AMM      1.220400
      4 O1          1.7320    0.1400   -0.3390 oh        1 AMM     -0.847700
      5 O2          1.5220   -1.7830   -2.2550 oh        1 AMM     -0.847700
      6 CH2         0.9140   -2.6290    0.4550 c3        1 AMM     -0.340400
      7 CE          1.2460   -2.1000    1.8370 c3        1 AMM     -0.165700
      8 C           2.7350   -2.2260    2.0720 c         1 AMM      0.576900
      9 O           3.5260   -1.3240    1.7870 o         1 AMM     -0.546100
     10 CB          0.4680   -2.8420    2.9150 c3        1 AMM     -0.068400
     11 CG          0.4530   -2.1790    4.2840 c3        1 AMM     -0.071700
     12 CD1        -0.2310   -0.8280    4.2560 c3        1 AMM     -0.095600
     13 CD2         1.8350   -2.0630    4.8880 c3        1 AMM     -0.095600
     14 HN1        -1.1930   -1.9520   -2.6430 hn        1 AMM      0.348300
     15 HN2        -2.5780   -1.5660   -1.8830 hn        1 AMM      0.348300
     16 HA1        -1.4740   -0.4780   -0.1200 h1        1 AMM      0.046200
     17 HA2        -0.9210    0.2600   -1.6560 h1        1 AMM      0.046200
     18 HO1         2.4600    0.0130    0.2610 ho        1 AMM      0.439500
     19 HO2         2.0390   -1.1050   -2.6730 ho        1 AMM      0.439500
     20 HH21        1.6900   -3.3670    0.1240 hc        1 AMM      0.082200
     21 HH22       -0.0470   -3.2070    0.4880 hc        1 AMM      0.082200
     22 HE          0.9720   -1.0050    1.8950 hc        1 AMM      0.069700
     23 H           3.0760   -3.1920    2.5060 h4        1 AMM      0.007200
     24 HB1         0.8860   -3.8790    3.0180 hc        1 AMM      0.047700
     25 HB2        -0.5980   -2.9470    2.5740 hc        1 AMM      0.047700
     26 HG         -0.1570   -2.8560    4.9540 hc        1 AMM      0.048700
     27 HD11       -1.2180   -0.9000    3.7400 hc        1 AMM      0.037367
     28 HD12       -0.4010   -0.4660    5.2990 hc        1 AMM      0.037367
     29 HD13        0.3940   -0.0700    3.7250 hc        1 AMM      0.037367
     30 HD21        2.4600   -1.3320    4.3170 hc        1 AMM      0.037367
     31 HD22        2.3500   -3.0540    4.8810 hc        1 AMM      0.037367
     32 HD23        1.7640   -1.7070    5.9440 hc        1 AMM      0.037367
@<TRIPOS>BOND
     1    1    2 1   
     2    1   14 1   
     3    1   15 1   
     4    2    3 1   
     5    2   16 1   
     6    2   17 1   
     7    3    4 1   
     8    3    5 1   
     9    3    6 1   
    10    4   18 1   
    11    5   19 1   
    12    6    7 1   
    13    6   20 1   
    14    6   21 1   
    15    7    8 1   
    16    7   10 1   
    17    7   22 1   
    18    8    9 2   
    19    8   23 1   
    20   10   11 1   
    21   10   24 1   
    22   10   25 1   
    23   11   12 1   
    24   11   13 1   
    25   11   26 1   
    26   12   27 1   
    27   12   28 1   
    28   12   29 1   
    29   13   30 1   
    30   13   31 1   
    31   13   32 1   
@<TRIPOS>SUBSTRUCTURE
     1 AMM         1 TEMP              0 ****  ****    0 ROOT
