@<TRIPOS>MOLECULE
AMM
   33    32     1     0     0
SMALL
bcc


@<TRIPOS>ATOM
      1 N           0.3500   -1.0180   -0.2280 n4        1 AMM     -0.802600
      2 CA         -0.0120    0.1960    0.5210 c3        1 AMM     -0.136200
      3 SI          1.3230    0.4270    1.8340 Si        1 AMM      1.240400
      4 O1          2.6850    0.2650    0.7560 oh        1 AMM     -0.874200
      5 O2          1.1570   -1.1890    2.4830 oh        1 AMM     -0.874200
      6 CH2         1.2590    1.8350    2.9210 c3        1 AMM     -0.362400
      7 CE          2.0380    3.0030    2.3360 c3        1 AMM     -0.171700
      8 C           3.4670    2.9810    2.8480 c         1 AMM      0.577900
      9 O           4.3010    2.1970    2.3870 o         1 AMM     -0.547100
     10 CB          1.3710    4.3330    2.6600 c3        1 AMM     -0.070400
     11 CG          1.7940    5.4960    1.7740 c3        1 AMM     -0.074700
     12 CD1         1.3680    5.3010    0.3340 c3        1 AMM     -0.097100
     13 CD2         3.2770    5.7830    1.8570 c3        1 AMM     -0.097100
     14 HN1        -0.3210   -1.2180   -0.9740 hn        1 AMM      0.467133
     15 HN2         1.2900   -0.8940   -0.6360 hn        1 AMM      0.467133
     16 HA1        -1.0290    0.0610    0.9780 hx        1 AMM      0.112700
     17 HA2        -0.0660    1.0670   -0.1840 hx        1 AMM      0.112700
     18 HO1         3.5240    0.6690    0.9690 ho        1 AMM      0.477500
     19 HO2         1.6530   -1.4610    3.2450 ho        1 AMM      0.477500
     20 HH21        1.6650    1.5910    3.9400 hc        1 AMM      0.096200
     21 HH22        0.1990    2.1560    3.1130 hc        1 AMM      0.096200
     22 HE          2.0800    2.8960    1.2110 hc        1 AMM      0.065700
     23 H           3.7130    3.7050    3.6550 h4        1 AMM      0.038200
     24 HB1         0.2580    4.2160    2.5620 hc        1 AMM      0.052700
     25 HB2         1.5830    4.5960    3.7310 hc        1 AMM      0.052700
     26 HG          1.2480    6.4040    2.1700 hc        1 AMM      0.067700
     27 HD11        0.2890    5.0220    0.2780 hc        1 AMM      0.040033
     28 HD12        1.5170    6.2510   -0.2360 hc        1 AMM      0.040033
     29 HD13        1.9720    4.5050   -0.1640 hc        1 AMM      0.040033
     30 HD21        3.5200    6.7050    1.2740 hc        1 AMM      0.040033
     31 HD22        3.8730    4.9380    1.4310 hc        1 AMM      0.040033
     32 HD23        3.5880    5.9440    2.9170 hc        1 AMM      0.040033
     33 HN3         0.3860   -1.8170    0.4250 hn        1 AMM      0.467133
@<TRIPOS>BOND
     1    1    2 1   
     2    1   14 1   
     3    1   15 1   
     4    1   33 1   
     5    2    3 1   
     6    2   16 1   
     7    2   17 1   
     8    3    4 1   
     9    3    5 1   
    10    3    6 1   
    11    4   18 1   
    12    5   19 1   
    13    6    7 1   
    14    6   20 1   
    15    6   21 1   
    16    7    8 1   
    17    7   10 1   
    18    7   22 1   
    19    8    9 2   
    20    8   23 1   
    21   10   11 1   
    22   10   24 1   
    23   10   25 1   
    24   11   12 1   
    25   11   13 1   
    26   11   26 1   
    27   12   27 1   
    28   12   28 1   
    29   12   29 1   
    30   13   30 1   
    31   13   31 1   
    32   13   32 1   
@<TRIPOS>SUBSTRUCTURE
     1 AMM         1 TEMP              0 ****  ****    0 ROOT
