@<TRIPOS>MOLECULE
AMM
   32    31     1     0     0
SMALL
bcc


@<TRIPOS>ATOM
      1 N          -4.1240   -0.7890   -2.6540 n3        1 AMM     -0.903800
      2 CA         -2.7500   -0.4060   -2.6380 c3        1 AMM     -0.093200
      3 SI         -2.1170   -0.4340   -0.8850 Si        1 AMM      1.208400
      4 O1         -1.8240   -1.9670   -0.4400 oh        1 AMM     -0.839700
      5 O2         -3.2300    0.2130    0.1030 oh        1 AMM     -0.839700
      6 CH2        -0.5410    0.5560   -0.7780 c3        1 AMM     -0.330400
      7 CE          0.1720    0.2300    0.5160 c3        1 AMM     -0.169700
      8 C          -0.5980    0.8160    1.6780 c         1 AMM      0.571900
      9 O          -0.8690    2.0030    1.6920 o         1 AMM     -0.540100
     10 CB          1.5650    0.8190    0.4860 c3        1 AMM     -0.069400
     11 CG          2.5060   -0.0700    1.2700 c3        1 AMM     -0.070700
     12 CD1         3.0480    0.6930    2.4580 c3        1 AMM     -0.092100
     13 CD2         3.6520   -0.5000    0.3800 c3        1 AMM     -0.092100
     14 HN1        -4.2220   -1.5550   -3.1460 hn        1 AMM      0.352300
     15 HN2        -4.6230   -0.1190   -3.0280 hn        1 AMM      0.352300
     16 HA1        -2.6590    0.4980   -3.0040 h1        1 AMM      0.042700
     17 HA2        -2.2310   -1.0320   -3.1830 h1        1 AMM      0.042700
     18 HO1        -2.5650   -2.4480   -0.5290 ho        1 AMM      0.442500
     19 HO2        -3.8670   -0.3850    0.2630 ho        1 AMM      0.442500
     20 HH21        0.0370    0.3310   -1.5340 hc        1 AMM      0.067200
     21 HH22       -0.7530    1.5100   -0.8020 hc        1 AMM      0.067200
     22 HE          0.2310   -0.7390    0.6200 hc        1 AMM      0.095700
     23 H          -0.8790    0.2420    2.4180 h4        1 AMM      0.001200
     24 HB1         1.5510    1.7110    0.8870 hc        1 AMM      0.046700
     25 HB2         1.8730    0.8830   -0.4400 hc        1 AMM      0.046700
     26 HG          2.0230   -0.8590    1.5820 hc        1 AMM      0.042700
     27 HD11        3.3840    1.5650    2.1610 hc        1 AMM      0.036700
     28 HD12        3.7790    0.1840    2.8670 hc        1 AMM      0.036700
     29 HD13        2.3340    0.8240    3.1160 hc        1 AMM      0.036700
     30 HD21        4.0740    0.2920   -0.0150 hc        1 AMM      0.036700
     31 HD22        3.3120   -1.0790   -0.3330 hc        1 AMM      0.036700
     32 HD23        4.3130   -0.9900    0.9130 hc        1 AMM      0.036700
@<TRIPOS>BOND
     1    1    2 1   
     2    1   14 1   
     3    1   15 1   
     4    2    3 1   
     5    2   16 1   
     6    2   17 1   
     7    3    4 1   
     8    3    5 1   
     9    3    6 1   
    10    4   18 1   
    11    5   19 1   
    12    6    7 1   
    13    6   20 1   
    14    6   21 1   
    15    7    8 1   
    16    7   10 1   
    17    7   22 1   
    18    8    9 2   
    19    8   23 1   
    20   10   11 1   
    21   10   24 1   
    22   10   25 1   
    23   11   12 1   
    24   11   13 1   
    25   11   26 1   
    26   12   27 1   
    27   12   28 1   
    28   12   29 1   
    29   13   30 1   
    30   13   31 1   
    31   13   32 1   
@<TRIPOS>SUBSTRUCTURE
     1 AMM         1 TEMP              0 ****  ****    0 ROOT
