@<TRIPOS>MOLECULE
AMM
   33    32     1     0     0
SMALL
bcc


@<TRIPOS>ATOM
      1 N           0.3630   -1.0250   -0.2310 nz        1 AMM     -0.802600
      2 CA         -0.0010    0.1780    0.5350 c3        1 AMM     -0.136200
      3 Si          1.3560    0.4190    1.8230 Si        1 AMM      1.240400
      4 O1          2.6990    0.2840    0.7170 oh        1 AMM     -0.874200
      5 O2          1.2260   -1.2040    2.4630 oh        1 AMM     -0.874200
      6 CH2         1.2940    1.8190    2.9210 c3        1 AMM     -0.362400
      7 CE          2.0470    3.0010    2.3310 c3        1 AMM     -0.171700
      8 C           3.4850    2.9940    2.8160 c         1 AMM      0.577900
      9 O           4.3200    2.2250    2.3330 o         1 AMM     -0.547100
     10 CB          1.3690    4.3190    2.6780 c3        1 AMM     -0.070400
     11 CG          1.7600    5.4950    1.7930 c3        1 AMM     -0.074700
     12 CD1         1.3090    5.3050    0.3600 c3        1 AMM     -0.097100
     13 CD2         3.2400    5.8000    1.8500 c3        1 AMM     -0.097100
     14 HN1         0.4240   -1.8280    0.4160 hn        1 AMM      0.467133
     15 HN2        -0.3190   -1.2290   -0.9640 hn        1 AMM      0.467133
     16 HA1        -1.0060    0.0250    1.0110 hx        1 AMM      0.112700
     17 HA2        -0.0810    1.0540   -0.1630 hx        1 AMM      0.112700
     18 HO1         3.5370    0.6980    0.9170 ho        1 AMM      0.477500
     19 HO2         1.7410   -1.4740    3.2130 ho        1 AMM      0.477500
     20 HH21        1.7220    1.5720    3.9310 hc        1 AMM      0.096200
     21 HH22        0.2340    2.1240    3.1350 hc        1 AMM      0.096200
     22 HE          2.0690    2.9030    1.2040 hc        1 AMM      0.065700
     23 H           3.7370    3.7150    3.6230 h4        1 AMM      0.038200
     24 HB1         0.2560    4.1880    2.5990 hc        1 AMM      0.052700
     25 HB2         1.5970    4.5770    3.7470 hc        1 AMM      0.052700
     26 HG          1.2090    6.3920    2.2060 hc        1 AMM      0.067700
     27 HD11        1.4350    6.2610   -0.2060 hc        1 AMM      0.040033
     28 HD12        1.9140    4.5210   -0.1550 hc        1 AMM      0.040033
     29 HD13        0.2330    5.0120    0.3210 hc        1 AMM      0.040033
     30 HD21        3.8390    4.9660    1.4070 hc        1 AMM      0.040033
     31 HD22        3.4610    6.7290    1.2700 hc        1 AMM      0.040033
     32 HD23        3.5690    5.9580    2.9060 hc        1 AMM      0.040033
     33 HN3         1.2940   -0.8850   -0.6560 hn        1 AMM      0.467133
@<TRIPOS>BOND
     1    1    2 1   
     2    1   14 1   
     3    1   15 1   
     4    1   33 1   
     5    2    3 1   
     6    2   16 1   
     7    2   17 1   
     8    3    4 1   
     9    3    5 1   
    10    3    6 1   
    11    4   18 1   
    12    5   19 1   
    13    6    7 1   
    14    6   20 1   
    15    6   21 1   
    16    7    8 1   
    17    7   10 1   
    18    7   22 1   
    19    8    9 2   
    20    8   23 1   
    21   10   11 1   
    22   10   24 1   
    23   10   25 1   
    24   11   12 1   
    25   11   13 1   
    26   11   26 1   
    27   12   27 1   
    28   12   28 1   
    29   12   29 1   
    30   13   30 1   
    31   13   31 1   
    32   13   32 1   
@<TRIPOS>SUBSTRUCTURE
     1 AMM         1 TEMP              0 ****  ****    0 ROOT
