@<TRIPOS>MOLECULE
AMM
   33    32     1     0     0
SMALL
bcc


@<TRIPOS>ATOM
      1 N           0.3830   -1.0090   -0.2750 n4        1 AMM     -0.802600
      2 CA          0.0110    0.1850    0.5000 c3        1 AMM     -0.136200
      3 SI          1.3600    0.4160    1.7980 Si        1 AMM      1.240400
      4 O1          2.7090    0.2950    0.7000 oh        1 AMM     -0.874200
      5 O2          1.2300   -1.2140    2.4210 oh        1 AMM     -0.874200
      6 CH2         1.2880    1.8040    2.9110 c3        1 AMM     -0.362400
      7 CE          2.0410    2.9940    2.3370 c3        1 AMM     -0.171700
      8 C           3.4770    2.9850    2.8310 c         1 AMM      0.577900
      9 O           4.3160    2.2240    2.3450 o         1 AMM     -0.547100
     10 CB          1.3580    4.3070    2.6940 c3        1 AMM     -0.070400
     11 CG          1.7510    5.4930    1.8240 c3        1 AMM     -0.074700
     12 CD1         1.3110    5.3170    0.3860 c3        1 AMM     -0.097100
     13 CD2         3.2310    5.8010    1.8930 c3        1 AMM     -0.097100
     14 HN1         0.4410   -1.8190    0.3640 hn        1 AMM      0.467133
     15 HN2         1.3160   -0.8630   -0.6940 hn        1 AMM      0.467133
     16 HA1        -0.9970    0.0250    0.9680 hx        1 AMM      0.112700
     17 HA2        -0.0660    1.0680   -0.1890 hx        1 AMM      0.112700
     18 HO1         3.5450    0.7090    0.9100 ho        1 AMM      0.477500
     19 HO2         1.7410   -1.4900    3.1720 ho        1 AMM      0.477500
     20 HH21        1.7100    1.5480    3.9210 hc        1 AMM      0.096200
     21 HH22        0.2250    2.1050    3.1220 hc        1 AMM      0.096200
     22 HE          2.0710    2.9080    1.2100 hc        1 AMM      0.065700
     23 H           3.7220    3.6980    3.6480 h4        1 AMM      0.038200
     24 HB1         1.5790    4.5540    3.7670 hc        1 AMM      0.052700
     25 HB2         0.2460    4.1740    2.6070 hc        1 AMM      0.052700
     26 HG          1.1960    6.3850    2.2430 hc        1 AMM      0.067700
     27 HD11        1.9210    4.5400   -0.1340 hc        1 AMM      0.040033
     28 HD12        0.2350    5.0210    0.3370 hc        1 AMM      0.040033
     29 HD13        1.4370    6.2790   -0.1690 hc        1 AMM      0.040033
     30 HD21        3.4520    6.7370    1.3250 hc        1 AMM      0.040033
     31 HD22        3.5520    5.9490    2.9530 hc        1 AMM      0.040033
     32 HD23        3.8340    4.9740    1.4460 hc        1 AMM      0.040033
     33 HN3        -0.2940   -1.2080   -1.0150 hn        1 AMM      0.467133
@<TRIPOS>BOND
     1    1    2 1   
     2    1   14 1   
     3    1   15 1   
     4    1   33 1   
     5    2    3 1   
     6    2   16 1   
     7    2   17 1   
     8    3    4 1   
     9    3    5 1   
    10    3    6 1   
    11    4   18 1   
    12    5   19 1   
    13    6    7 1   
    14    6   20 1   
    15    6   21 1   
    16    7    8 1   
    17    7   10 1   
    18    7   22 1   
    19    8    9 2   
    20    8   23 1   
    21   10   11 1   
    22   10   24 1   
    23   10   25 1   
    24   11   12 1   
    25   11   13 1   
    26   11   26 1   
    27   12   27 1   
    28   12   28 1   
    29   12   29 1   
    30   13   30 1   
    31   13   31 1   
    32   13   32 1   
@<TRIPOS>SUBSTRUCTURE
     1 AMM         1 TEMP              0 ****  ****    0 ROOT
