@<TRIPOS>MOLECULE
AMN
   45    42     1     0     0
SMALL
bcc


@<TRIPOS>ATOM
      1 C1          2.9480    1.1170   -0.1170 c1        1 AMN      0.469000
      2 C2         -0.2690   -1.0360    1.1650 c2        1 AMN      0.098000
      3 C3         -0.1770   -2.0190    2.0680 c2        1 AMN     -0.169000
      4 C4         -0.7490   -1.9660    3.4390 c3        1 AMN      0.006000
      5 C5         -1.1170    2.4470    1.6620 c3        1 AMN     -0.068000
      6 C6         -0.2190    1.2130    1.8490 c3        1 AMN     -0.051000
      7 C7          0.2010    5.0540   -1.3750 c3        1 AMN      0.129000
      8 C8          0.1700    4.1700   -2.6360 c3        1 AMN     -0.047000
      9 C9          0.1290    5.0840   -3.8930 c3        1 AMN     -0.053000
     10 C11         0.7630    5.7920    1.3180 c3        1 AMN     -0.264000
     11 N5         -0.4240    3.6930    1.9250 n3        1 AMN     -0.211000
     12 N9          0.1580    4.4190   -5.1530 n3        1 AMN     -0.331000
     13 O1A         2.3110    2.1330   -0.1170 o         1 AMN     -0.246000
     14 O1B         3.6990    0.1980   -0.0890 o         1 AMN     -0.246000
     15 O2          0.1770   -1.2060   -0.1620 os        1 AMN     -0.119000
     16 O4         -1.3740   -0.7370    3.7500 oh        1 AMN     -0.334000
     17 O6         -0.9660    0.1450    1.2330 os        1 AMN     -0.227000
     18 O7         -0.7650    6.0340   -1.2590 oh        1 AMN     -0.310000
     19 O8          1.3650    3.4290   -2.7060 oh        1 AMN     -0.306000
     20 O10        -0.1490    4.1300   -0.2790 os        1 AMN     -0.247000
     21 H31         0.0770   -2.0650    4.2000 h1        1 AMN      0.120500
     22 H32         0.3430   -2.9560    1.8020 ha        1 AMN      0.176000
     23 H4         -1.4720   -2.8200    3.5690 h1        1 AMN      0.120500
     24 H5         -1.9870    2.3860    2.3790 h1        1 AMN      0.145500
     25 H6         -0.0710    0.9710    2.9340 h1        1 AMN      0.121000
     26 H7         -1.5230    2.4490    0.6080 h1        1 AMN      0.145500
     27 H8          0.7650    1.3240    1.3200 h1        1 AMN      0.121000
     28 H91        -0.8160    5.6940   -3.8250 h1        1 AMN      0.108500
     29 H92        -0.7260    3.4900   -2.5940 h1        1 AMN      0.101000
     30 H111        1.8290    5.7150    0.9720 hc        1 AMN      0.157333
     31 H112        0.2640    6.6410    0.7760 hc        1 AMN      0.157333
     32 H113        0.7600    6.0170    2.4140 hc        1 AMN      0.157333
     33 H121       -0.0870    1.6340   -0.8460 ha        1 AMN      0.006500
     34 H122       -0.2810    1.4250   -1.4640 ha        1 AMN      0.006500
     35 H123        1.3030   -0.6860   -1.6810 ha        1 AMN      0.078000
     36 HN5        -0.2460    3.9140    2.8880 hn        1 AMN      0.278000
     37 HN91       -0.6040    3.7830   -5.2700 hn        1 AMN      0.168000
     38 HN92        1.0140    5.7800   -3.8380 h1        1 AMN      0.108500
     39 HO4        -2.1480   -0.6530    3.1770 ho        1 AMN      0.212000
     40 HO7        -1.5710    5.7590   -1.7240 ho        1 AMN      0.247000
     41 HO8         1.3410    2.7610   -2.0040 ho        1 AMN      0.226000
     42 C10         0.0560    4.5170    0.9910 c2        1 AMN      0.326000
     43 C12         1.1020   -0.3940   -0.6190 c1        1 AMN     -0.093000
     44 H52         1.2090    5.5170   -1.1900 h2        1 AMN      0.164000
     45 H93         1.0280    3.9510   -5.3110 hn        1 AMN      0.168000
@<TRIPOS>BOND
     1    1   13 1   
     2    1   14 1   
     3    2    3 1   
     4    2   15 1   
     5    2   17 1   
     6    3    4 1   
     7    3   22 1   
     8    4   16 1   
     9    4   21 1   
    10    4   23 1   
    11    5    6 1   
    12    5   11 1   
    13    5   24 1   
    14    5   26 1   
    15    6   17 1   
    16    6   25 1   
    17    6   27 1   
    18    7    8 1   
    19    7   18 1   
    20    7   20 1   
    21    7   44 1   
    22    8    9 1   
    23    8   19 1   
    24    8   29 1   
    25    9   12 1   
    26    9   28 1   
    27    9   38 1   
    28   10   30 1   
    29   10   31 1   
    30   10   32 1   
    31   10   42 1   
    32   11   36 1   
    33   11   42 1   
    34   12   37 1   
    35   12   45 1   
    36   15   43 1   
    37   16   39 1   
    38   18   40 1   
    39   19   41 1   
    40   20   42 1   
    41   33   34 1   
    42   35   43 1   
@<TRIPOS>SUBSTRUCTURE
     1 AMN         1 TEMP              0 ****  ****    0 ROOT
