@<TRIPOS>MOLECULE
AMN
   43    43     1     0     0
SMALL
bcc


@<TRIPOS>ATOM
      1 C1          2.2790   -1.1840    0.7990 c         1 AMN      0.896600
      2 C2          1.9520    0.2870    0.3730 c3        1 AMN      0.216600
      3 C3          2.1600    0.5310   -1.1230 c3        1 AMN     -0.117400
      4 C4          1.1020   -0.2290   -1.9110 c3        1 AMN      0.115100
      5 C5         -0.3260    0.1720   -1.4420 c3        1 AMN      0.070700
      6 C6         -0.3780   -0.1120    0.0860 c3        1 AMN      0.106100
      7 C7         -1.7020    0.2930    0.7500 c3        1 AMN      0.130100
      8 C8         -1.6470   -0.0320    2.2590 c3        1 AMN      0.085100
      9 C9         -3.0300    0.2140    2.8950 c3        1 AMN      0.148800
     10 C11        -2.9880   -0.8760   -3.9740 c3        1 AMN     -0.177100
     11 N5         -1.3660   -0.5390   -2.1490 n         1 AMN     -0.536900
     12 N9         -3.1180   -0.0180    4.3150 n3        1 AMN     -0.900800
     13 O1A         1.6220   -1.6720    1.7600 o         1 AMN     -0.816800
     14 O1B         3.1650   -1.7900    0.1450 o         1 AMN     -0.816800
     15 O2          2.6980    1.2700    1.0680 os        1 AMN     -0.416600
     16 O4          1.1940    0.0540   -3.3030 oh        1 AMN     -0.612800
     17 O6          0.6150    0.6730    0.7370 os        1 AMN     -0.454600
     18 O7         -1.9810    1.6710    0.5740 oh        1 AMN     -0.604800
     19 O8         -1.3260   -1.3910    2.4850 oh        1 AMN     -0.637800
     20 O10        -2.1690    1.2840   -3.3220 o         1 AMN     -0.606100
     21 H31         2.1010    1.6250   -1.3470 hc        1 AMN      0.065700
     22 H32         3.1800    0.1540   -1.3960 hc        1 AMN      0.065700
     23 H4          1.2600   -1.3370   -1.7550 h1        1 AMN      0.059700
     24 H5         -0.4710    1.2790   -1.6110 h1        1 AMN      0.107700
     25 H6         -0.1850   -1.2080    0.2720 h1        1 AMN      0.083700
     26 H7         -2.5600   -0.2450    0.2660 h1        1 AMN      0.077700
     27 H8         -0.8710    0.6340    2.7330 h1        1 AMN      0.046700
     28 H91        -3.3120    1.2820    2.6790 h1        1 AMN      0.056200
     29 H92        -3.7760   -0.4590    2.3880 h1        1 AMN      0.056200
     30 H111       -3.6050   -0.2630   -4.6730 hc        1 AMN      0.056367
     31 H112       -2.3430   -1.5670   -4.5690 hc        1 AMN      0.056367
     32 H113       -3.6660   -1.4780   -3.3230 hc        1 AMN      0.056367
     33 H121        3.3300    1.9120    2.8690 h1        1 AMN      0.033033
     34 H122        1.8650    0.7930    2.9300 h1        1 AMN      0.033033
     35 H123        3.5210    0.0990    2.5890 h1        1 AMN      0.033033
     36 HN5        -1.2520   -1.5260   -2.1880 hn        1 AMN      0.295500
     37 HN91       -2.8960   -0.9780    4.5110 hn        1 AMN      0.341300
     38 HN92       -2.4510    0.5540    4.7990 hn        1 AMN      0.341300
     39 HO4         2.1310    0.0090   -3.5280 ho        1 AMN      0.399000
     40 HO7        -1.1670    2.1510    0.7760 ho        1 AMN      0.415000
     41 HO8        -0.3700   -1.4940    2.3220 ho        1 AMN      0.464000
     42 C10        -2.1280    0.0510   -3.1410 c         1 AMN      0.660100
     43 C12         2.8570    0.9890    2.4530 c3        1 AMN      0.127700
@<TRIPOS>BOND
     1    1    2 1   
     2    1   13 1   
     3    1   14 1   
     4    2    3 1   
     5    2   15 1   
     6    2   17 1   
     7    3    4 1   
     8    3   21 1   
     9    3   22 1   
    10    4    5 1   
    11    4   16 1   
    12    4   23 1   
    13    5    6 1   
    14    5   11 1   
    15    5   24 1   
    16    6    7 1   
    17    6   17 1   
    18    6   25 1   
    19    7    8 1   
    20    7   18 1   
    21    7   26 1   
    22    8    9 1   
    23    8   19 1   
    24    8   27 1   
    25    9   12 1   
    26    9   28 1   
    27    9   29 1   
    28   10   30 1   
    29   10   31 1   
    30   10   32 1   
    31   10   42 1   
    32   11   36 1   
    33   11   42 1   
    34   12   37 1   
    35   12   38 1   
    36   15   43 1   
    37   16   39 1   
    38   18   40 1   
    39   19   41 1   
    40   20   42 2   
    41   33   43 1   
    42   34   43 1   
    43   35   43 1   
@<TRIPOS>SUBSTRUCTURE
     1 AMN         1 TEMP              0 ****  ****    0 ROOT
