@<TRIPOS>MOLECULE
AMN
   45    42     1     0     0
SMALL
bcc


@<TRIPOS>ATOM
      1 C1          0.3960    0.9300   -1.0580 c2        1 AMN      0.326000
      2 C2          0.1510   -0.0410    0.1330 c3        1 AMN      0.226000
      3 C3          1.3810   -0.9840    0.2270 c2        1 AMN     -0.072000
      4 C4          1.3500   -2.0910    0.8750 c1        1 AMN      0.190000
      5 C5         -0.7980    2.8210    1.5020 c3        1 AMN     -0.054000
      6 C6          0.3980    1.8560    1.6250 c3        1 AMN     -0.039000
      7 C7          0.0910    6.2900   -2.2400 c2        1 AMN      0.178000
      8 C8          0.5820    4.8550   -2.1800 c3        1 AMN     -0.051000
      9 C9          0.7090    4.2600   -3.5910 c3        1 AMN     -0.127000
     10 C11        -0.2060    6.3970    2.7180 c3        1 AMN     -0.246000
     11 N5         -0.6700    4.0070    2.2930 n         1 AMN     -0.375000
     12 N9          0.9260    2.7960   -3.5380 n4        1 AMN     -0.075000
     13 O1A        -0.5290    1.7070   -1.4090 o         1 AMN     -0.541000
     14 O1B         1.5210    0.8920   -1.6350 o         1 AMN     -0.541000
     15 O2         -0.9430   -0.9180   -0.0430 os        1 AMN     -0.309000
     16 O4          1.3450   -3.1180    1.6220 oh        1 AMN     -0.006000
     17 O6         -0.0760    0.5250    1.3970 os        1 AMN     -0.285000
     18 O7         -0.6180    6.6990   -3.1560 o         1 AMN     -0.273000
     19 O8          1.8800    4.7750   -1.6160 oh        1 AMN     -0.343000
     20 O10         0.1310    5.3110    0.5920 o         1 AMN     -0.445000
     21 H31        -1.1510   -1.3960    2.4330 ha        1 AMN      0.002000
     22 H32         2.2570   -0.6090   -0.3670 ha        1 AMN      0.296000
     23 H4         -0.6150   -1.8010    2.3300 ha        1 AMN      0.002000
     24 H5         -1.7280    2.2670    1.8230 h1        1 AMN      0.122500
     25 H6          0.8010    1.8170    2.6740 h1        1 AMN      0.106500
     26 H7         -0.9150    3.1000    0.4120 h1        1 AMN      0.122500
     27 H8          1.2150    2.1320    0.9110 h1        1 AMN      0.106500
     28 H91         1.5890    4.7340   -4.1140 hx        1 AMN      0.151500
     29 H92        -0.1520    4.2680   -1.5470 h1        1 AMN      0.152000
     30 H111        0.4310    6.1880    3.6120 hc        1 AMN      0.116667
     31 H112        0.2120    7.2780    2.1720 hc        1 AMN      0.116667
     32 H113       -1.2420    6.6420    3.0580 hc        1 AMN      0.116667
     33 H121       -2.3090    0.5060   -0.7590 h1        1 AMN      0.102000
     34 H122       -2.4460    0.0680    1.0220 h1        1 AMN      0.102000
     35 H123       -2.9180   -1.1670   -0.2640 h1        1 AMN      0.102000
     36 HN5        -0.9240    3.9510    3.2510 hn        1 AMN      0.235000
     37 HN91        0.0710    2.3190   -3.1880 hn        1 AMN      0.267333
     38 HN92        1.6720    2.5660   -2.8530 hn        1 AMN      0.267333
     39 HO4         1.0040   -3.9130    1.1260 ho        1 AMN      0.306000
     40 HO7        -0.2340    4.4800   -4.1690 hx        1 AMN      0.151500
     41 HO8         1.8110    5.0500   -0.6900 ho        1 AMN      0.250000
     42 C10        -0.2290    5.2110    1.7880 c2        1 AMN      0.329000
     43 C12        -2.2380   -0.3160   -0.0060 c3        1 AMN     -0.068000
     44 H52         0.3980    6.9090   -1.3700 h4        1 AMN      0.137000
     45 H93         1.1770    2.4330   -4.4540 hn        1 AMN      0.267333
@<TRIPOS>BOND
     1    1    2 1   
     2    1   13 1   
     3    1   14 1   
     4    2    3 1   
     5    2   15 1   
     6    2   17 1   
     7    3    4 1   
     8    3   22 1   
     9    4   16 1   
    10    5    6 1   
    11    5   11 1   
    12    5   24 1   
    13    5   26 1   
    14    6   17 1   
    15    6   25 1   
    16    6   27 1   
    17    7    8 1   
    18    7   18 1   
    19    7   44 1   
    20    8    9 1   
    21    8   19 1   
    22    8   29 1   
    23    9   12 1   
    24    9   28 1   
    25    9   40 1   
    26   10   30 1   
    27   10   31 1   
    28   10   32 1   
    29   10   42 1   
    30   11   36 1   
    31   11   42 1   
    32   12   37 1   
    33   12   38 1   
    34   12   45 1   
    35   15   43 1   
    36   16   39 1   
    37   19   41 1   
    38   20   42 1   
    39   21   23 1   
    40   33   43 1   
    41   34   43 1   
    42   35   43 1   
@<TRIPOS>SUBSTRUCTURE
     1 AMN         1 TEMP              0 ****  ****    0 ROOT
