@<TRIPOS>MOLECULE
AMN
   45    43     1     0     0
SMALL
bcc


@<TRIPOS>ATOM
      1 C1          0.4870   -1.3810    0.6880 c2        1 AMN      0.264000
      2 C2         -0.7320   -0.4590    0.8100 c3        1 AMN      0.228000
      3 C3         -0.9540   -0.0980    2.2750 c3        1 AMN     -0.240000
      4 C4          2.9340   -1.1870    0.9680 c1        1 AMN      0.215000
      5 C5         -0.6310    2.8550    0.7990 c3        1 AMN     -0.154000
      6 C6          0.2700    1.7040    0.2920 c3        1 AMN      0.079000
      7 C7          1.0590    2.0970   -0.9320 c2        1 AMN     -0.036000
      8 C8          2.2760    1.6170   -1.2160 c2        1 AMN     -0.252000
      9 C9         -0.0380    6.1310   -1.8030 c2        1 AMN     -0.443000
     10 C11        -0.3600    6.6440    1.0220 c3        1 AMN     -0.353000
     11 N5          0.0520    4.1710    0.8180 ny        1 AMN     -0.118000
     12 N9         -0.1260    7.1480   -2.8800 nz        1 AMN     -0.033000
     13 O1A         0.5270   -2.5760    0.4160 o         1 AMN     -0.312000
     14 O1B         1.6750   -0.7340    0.9510 os        1 AMN     -0.324000
     15 O2         -1.9130   -1.0640    0.3520 os        1 AMN     -0.240000
     16 O4          3.2200   -2.4390    0.8070 oh        1 AMN     -0.247000
     17 O6         -0.6110    0.6510   -0.0800 os        1 AMN     -0.269000
     18 O7          0.3680    3.0010   -1.7170 oh        1 AMN     -0.290000
     19 O8          1.2060    5.4900   -1.8010 oh        1 AMN     -0.343000
     20 O10        -1.7440    4.9400    2.1030 o         1 AMN     -0.200000
     21 H31        -0.0250    0.3420    2.7080 hc        1 AMN      0.113333
     22 H32        -1.8010    0.6250    2.3550 hc        1 AMN      0.113333
     23 H4         -1.2250   -1.0220    2.8420 hc        1 AMN      0.113333
     24 H5         -0.9940    2.6160    1.8400 hx        1 AMN      0.158500
     25 H6          0.9890    1.3780    1.0980 h1        1 AMN      0.139000
     26 H7         -1.5260    2.9350    0.1150 hx        1 AMN      0.158500
     27 H8          2.7750    0.8900   -0.5560 ha        1 AMN      0.151500
     28 H91        -0.7850    5.3240   -2.0190 hx        1 AMN      0.087000
     29 H92         2.8320    1.9130   -2.1150 ha        1 AMN      0.151500
     30 H111       -0.3140    6.7100   -0.1500 hc        1 AMN      0.171667
     31 H112        0.6570    6.8720    1.4210 hc        1 AMN      0.171667
     32 H113       -1.0920    7.3920    1.4120 hc        1 AMN      0.171667
     33 H121       -1.8890   -0.5490   -1.6810 h1        1 AMN      0.098667
     34 H122       -1.1280   -2.1680   -1.2500 h1        1 AMN      0.098667
     35 H123       -2.9510   -1.9440   -1.1150 h1        1 AMN      0.098667
     36 HN5         0.9200    4.1010    1.3530 hn        1 AMN      0.266500
     37 HN91        0.0970    6.8010   -3.8160 hn        1 AMN      0.208667
     38 HN92        0.5200    7.9050   -2.6630 hn        1 AMN      0.208667
     39 HO4         2.5140   -3.0970    0.6630 ho        1 AMN      0.263000
     40 HO7         0.9410    3.2790   -2.4490 ho        1 AMN      0.245000
     41 HO8         1.8160    6.0630   -1.3180 ho        1 AMN      0.199000
     42 C10        -0.7970    5.2860    1.4140 c2        1 AMN      0.285000
     43 C12        -1.9510   -1.4480   -1.0220 c3        1 AMN     -0.080000
     44 H52         0.2970    4.4350   -0.1610 hn        1 AMN      0.266500
     45 H93        -1.0770    7.5120   -2.8730 hn        1 AMN      0.208667
@<TRIPOS>BOND
     1    1    2 1   
     2    1   13 1   
     3    1   14 1   
     4    2    3 1   
     5    2   15 1   
     6    2   17 1   
     7    3   21 1   
     8    3   22 1   
     9    3   23 1   
    10    4   14 1   
    11    4   16 1   
    12    5    6 1   
    13    5   11 1   
    14    5   24 1   
    15    5   26 1   
    16    6    7 1   
    17    6   17 1   
    18    6   25 1   
    19    7    8 1   
    20    7   18 1   
    21    8   27 1   
    22    8   29 1   
    23    9   12 1   
    24    9   19 1   
    25    9   28 1   
    26   10   30 1   
    27   10   31 1   
    28   10   32 1   
    29   10   42 1   
    30   11   36 1   
    31   11   42 1   
    32   11   44 1   
    33   12   37 1   
    34   12   38 1   
    35   12   45 1   
    36   15   43 1   
    37   16   39 1   
    38   18   40 1   
    39   19   41 1   
    40   20   42 1   
    41   33   43 1   
    42   34   43 1   
    43   35   43 1   
@<TRIPOS>SUBSTRUCTURE
     1 AMN         1 TEMP              0 ****  ****    0 ROOT
