@<TRIPOS>MOLECULE
AMN
   43    41     1     0     0
SMALL
bcc


@<TRIPOS>ATOM
      1 C1          2.0140   -2.4040   -0.2430 c1        1 AMN      0.316000
      2 C2          0.4870   -2.4090   -0.2120 c2        1 AMN      0.123000
      3 C3         -0.0510   -2.4000    1.2350 c3        1 AMN     -0.196000
      4 C4          0.1350   -1.1030    1.9110 c3        1 AMN      0.004000
      5 C5         -0.4020    0.0280    1.1320 c3        1 AMN     -0.006000
      6 C6          0.0920    0.0550   -0.2750 c3        1 AMN     -0.005000
      7 C7         -0.6580    1.1350   -1.0320 c3        1 AMN      0.019000
      8 C8          0.0420    1.4150   -2.3390 c3        1 AMN     -0.026000
      9 C9         -0.8000    2.3760   -3.1660 c3        1 AMN     -0.088000
     10 C10        -0.8750    1.9070    2.7330 c1        1 AMN      0.304000
     11 C11        -0.4620    3.1890    3.4330 c2        1 AMN     -0.245000
     12 C12         0.6970   -4.7400   -0.1550 c3        1 AMN     -0.062000
     13 N5         -0.0050    1.3010    1.8020 n3        1 AMN     -0.346000
     14 N9         -0.1470    2.6340   -4.4130 n3        1 AMN     -0.333000
     15 O1A         2.6620   -2.4230    0.8260 o         1 AMN     -0.551500
     16 O1B         2.6270   -2.4020   -1.3570 o         1 AMN     -0.551500
     17 O2          0.2100   -3.5880   -0.8440 os        1 AMN     -0.273000
     18 O4         -0.5500   -1.1490    3.2060 oh        1 AMN     -0.340000
     19 O6         -0.0910   -1.2170   -0.9670 os        1 AMN     -0.311000
     20 O7         -1.9730    0.7010   -1.2890 oh        1 AMN     -0.332000
     21 O8          1.2970    1.9920   -2.0840 oh        1 AMN     -0.365000
     22 O10        -1.9480    1.3920    2.9890 o         1 AMN     -0.367000
     23 H31        -1.0020   -2.6090    1.2160 hc        1 AMN      0.105000
     24 H32         0.4160   -3.0960    1.7500 hc        1 AMN      0.105000
     25 H4          1.0860   -0.9600    2.0620 h1        1 AMN      0.099000
     26 H5         -1.3770   -0.0320    1.1210 h1        1 AMN      0.147000
     27 H6          1.0420    0.2760   -0.2710 h1        1 AMN      0.123000
     28 H7         -0.6840    1.9560   -0.4920 h1        1 AMN      0.117000
     29 H8          0.1610    0.5780   -2.8320 h1        1 AMN      0.086000
     30 H91        -0.9110    3.2160   -2.6760 h1        1 AMN      0.095500
     31 H92        -1.6880    1.9740   -3.3360 h1        1 AMN      0.095500
     32 H111        0.3520    3.0280    3.9580 ha        1 AMN      0.095667
     33 H112       -0.2870    3.8810    2.7680 ha        1 AMN      0.095667
     34 H113       -1.1830    3.4830    4.0290 ha        1 AMN      0.095667
     35 H121        0.8620   -5.4630   -0.7990 h1        1 AMN      0.072333
     36 H122        0.0340   -5.0320    0.4990 h1        1 AMN      0.072333
     37 H123        1.5390   -4.5140    0.3090 h1        1 AMN      0.072333
     38 HN5         0.8330    1.6340    1.6810 hn        1 AMN      0.209000
     39 HN91       -0.1900    3.5180   -4.5980 hn        1 AMN      0.136500
     40 HN92       -0.5680    2.1580   -5.0860 hn        1 AMN      0.136500
     41 HO4        -0.0210   -1.5570    3.8120 ho        1 AMN      0.198000
     42 HO7        -2.5420    1.4040   -1.2200 ho        1 AMN      0.214000
     43 HO8         1.8270    1.8680   -2.7850 ho        1 AMN      0.263000
@<TRIPOS>BOND
     1    1   15 1   
     2    1   16 1   
     3    2    3 1   
     4    2   17 1   
     5    2   19 1   
     6    3    4 1   
     7    3   23 1   
     8    3   24 1   
     9    4    5 1   
    10    4   18 1   
    11    4   25 1   
    12    5    6 1   
    13    5   13 1   
    14    5   26 1   
    15    6    7 1   
    16    6   19 1   
    17    6   27 1   
    18    7    8 1   
    19    7   20 1   
    20    7   28 1   
    21    8    9 1   
    22    8   21 1   
    23    8   29 1   
    24    9   14 1   
    25    9   30 1   
    26    9   31 1   
    27   10   13 1   
    28   10   22 1   
    29   11   32 1   
    30   11   33 1   
    31   11   34 1   
    32   12   17 1   
    33   12   35 1   
    34   12   36 1   
    35   12   37 1   
    36   13   38 1   
    37   14   39 1   
    38   14   40 1   
    39   18   41 1   
    40   20   42 1   
    41   21   43 1   
@<TRIPOS>SUBSTRUCTURE
     1 AMN         1 TEMP              0 ****  ****    0 ROOT
