@<TRIPOS>MOLECULE
AMO
   48    44     1     0     0
SMALL
bcc


@<TRIPOS>ATOM
      1 P          -0.1400    2.5050    0.0290 p3        1 AMO      2.552000
      2 O1P         1.0520    1.6490    0.4190 o         1 AMO     -1.138000
      3 O2P        -0.6500    3.2190    1.2290 os        1 AMO     -1.117000
      4 O3P         0.2960    3.5460   -1.0490 os        1 AMO     -0.705000
      5 O5'        -1.3140    1.5550   -0.5810 os        1 AMO     -0.744000
      6 C5'        -1.5200    0.3040   -0.0050 c3        1 AMO      0.026000
      7 C4'        -1.5420   -0.7030   -1.0290 c3        1 AMO     -0.009000
      8 O4'        -0.4920   -1.7480   -0.7450 os        1 AMO     -0.286000
      9 C1'        -1.1560   -2.8010   -0.3580 c3        1 AMO      0.130000
     10 N9         -1.2880   -2.8100    1.0570 n3        1 AMO     -0.174000
     11 C4         -0.1400   -3.4020    1.4930 c1        1 AMO      0.051000
     12 N3          1.1580   -3.3420    1.0460 n1        1 AMO     -0.184000
     13 C2          2.1110   -4.0410    1.6690 c1        1 AMO     -0.018000
     14 N1          1.7960   -4.8180    2.7520 n1        1 AMO     -0.277000
     15 C6          0.5400   -4.8780    3.1870 c1        1 AMO      0.179000
     16 N6          0.4820   -5.4420    4.4920 n2        1 AMO     -0.330000
     17 C5         -0.4450   -4.1600    2.5490 c1        1 AMO     -0.213000
     18 N7         -1.7800   -4.0460    2.7800 n1        1 AMO     -0.161000
     19 C8         -2.2920   -3.2130    1.8580 c1        1 AMO      0.006000
     20 C2'        -2.5850   -2.7000   -1.0340 c3        1 AMO     -0.004000
     21 C3'        -2.8960   -1.4480   -1.0230 c3        1 AMO     -0.015000
     22 O3'        -3.6950   -1.0950   -2.2620 oh        1 AMO     -0.376000
     23 N           1.7150    6.6110   -1.9410 n3        1 AMO     -0.339000
     24 CA          2.1230    5.3080   -1.6380 c3        1 AMO     -0.013000
     25 CB          3.5150    5.3460   -1.0330 c3        1 AMO     -0.258000
     26 CG          4.5340    5.2930   -2.1230 c2        1 AMO      0.329000
     27 OD1         4.7960    6.3650   -2.8230 o         1 AMO     -0.590000
     28 OD2         5.0170    4.2050   -2.4570 o         1 AMO     -0.590000
     29 C           1.1370    4.6800   -0.6340 c2        1 AMO      0.349000
     30 O           0.9530    5.2170    0.4720 o         1 AMO     -0.416000
     31 O2'        -2.5270   -3.1980   -2.4130 oh        1 AMO     -0.332000
     32 H5'1       -0.7790    0.1100    0.6320 h1        1 AMO      0.081000
     33 H5'2       -2.3740    0.3010    0.4770 h1        1 AMO      0.081000
     34 H4'        -1.3760   -0.2800   -1.9410 h1        1 AMO      0.111000
     35 H1'        -0.6690   -3.6620   -0.6790 h2        1 AMO      0.137000
     36 H2          3.0180   -3.9990    1.3590 ha        1 AMO      0.167000
     37 H61         1.1080   -6.0190    4.7550 hn        1 AMO      0.206500
     38 H62        -0.1870   -5.1510    5.1090 hn        1 AMO      0.206500
     39 H8         -3.2460   -2.8930    1.8170 DU        1 AMO      0.274000
     40 H2'2       -3.2070   -3.1890   -0.5410 h1        1 AMO      0.133000
     41 H3'        -3.3970   -1.2310   -0.2260 h1        1 AMO      0.165000
     42 HO'3       -4.5950   -1.1820   -2.0810 ho        1 AMO      0.279000
     43 H           1.9180    6.8000   -2.8340 hn        1 AMO      0.154500
     44 HN2         0.7780    6.6900   -1.8040 hn        1 AMO      0.154500
     45 HA          2.1380    4.7860   -2.4370 h1        1 AMO      0.123000
     46 HB1         3.6250    6.1790   -0.5180 hc        1 AMO      0.082500
     47 HB2         3.6350    4.5810   -0.4430 hc        1 AMO      0.082500
     48 H2'1       -3.1530   -3.7990   -2.5300 ho        1 AMO      0.228000
@<TRIPOS>BOND
     1    1    2 1   
     2    1    4 1   
     3    1    5 1   
     4    4   29 1   
     5    5    6 1   
     6    6    7 1   
     7    6   32 1   
     8    6   33 1   
     9    7    8 1   
    10    7   21 1   
    11    7   34 1   
    12    8    9 1   
    13    9   10 1   
    14    9   20 1   
    15    9   35 1   
    16   10   11 1   
    17   10   19 1   
    18   11   17 1   
    19   12   13 1   
    20   13   36 1   
    21   14   15 1   
    22   15   17 1   
    23   16   37 1   
    24   16   38 1   
    25   18   19 1   
    26   20   21 1   
    27   20   31 1   
    28   20   40 1   
    29   21   22 1   
    30   21   41 1   
    31   22   42 1   
    32   23   24 1   
    33   23   43 1   
    34   23   44 1   
    35   24   25 1   
    36   24   29 1   
    37   24   45 1   
    38   25   26 1   
    39   25   46 1   
    40   25   47 1   
    41   26   27 1   
    42   26   28 1   
    43   29   30 1   
    44   31   48 1   
@<TRIPOS>SUBSTRUCTURE
     1 AMO         1 TEMP              0 ****  ****    0 ROOT
