@<TRIPOS>MOLECULE
AMO
   49    51     1     0     0
SMALL
bcc


@<TRIPOS>ATOM
      1 P           0.9000    1.0040   -0.0370 p5        1 AMO      1.450800
      2 O1P         2.2320    0.4060    0.0490 o         1 AMO     -0.804000
      3 O2P         0.1170    1.7940    0.9340 o         1 AMO     -0.804000
      4 O3P        -0.2040   -0.1270   -0.6770 os        1 AMO     -0.526500
      5 O5'         0.8830    1.9450   -1.3930 os        1 AMO     -0.570200
      6 C5'        -0.3030    2.6150   -1.6850 c3        1 AMO      0.182400
      7 C4'        -0.0990    4.1350   -1.5950 c3        1 AMO      0.076100
      8 O4'        -1.3750    4.7870   -1.6810 os        1 AMO     -0.418600
      9 C1'        -1.7550    5.3430   -0.4160 c3        1 AMO      0.213800
     10 N9         -2.7930    4.5640    0.2190 na        1 AMO     -0.280000
     11 C4         -4.1710    4.8030    0.0870 ca        1 AMO      0.452800
     12 N3         -4.8580    5.8260   -0.5040 nb        1 AMO     -0.722000
     13 C2         -6.1990    5.6840   -0.4010 ca        1 AMO      0.661900
     14 N1         -6.9370    4.7050    0.1910 nb        1 AMO     -0.795000
     15 C6         -6.2530    3.6880    0.8090 ca        1 AMO      0.721200
     16 N6         -6.9270    2.7050    1.5180 nh        1 AMO     -0.938500
     17 C5         -4.8230    3.6870    0.7680 ca        1 AMO     -0.213200
     18 N7         -3.8550    2.8010    1.2650 nc        1 AMO     -0.576100
     19 C8         -2.6740    3.3320    0.9180 cd        1 AMO      0.434700
     20 C2'        -0.4520    5.4710    0.4440 c3        1 AMO      0.128100
     21 C3'         0.5760    4.5850   -0.2850 c3        1 AMO      0.070100
     22 O3'         1.7260    5.3690   -0.5530 oh        1 AMO     -0.614800
     23 N          -1.7620   -3.1850    0.6980 n3        1 AMO     -0.915800
     24 CA         -1.5250   -2.1470   -0.2870 c3        1 AMO      0.118500
     25 CB         -2.8170   -1.4160   -0.6850 c3        1 AMO     -0.170400
     26 CG         -3.7940   -2.3330   -1.3540 c         1 AMO      0.640100
     27 OD1        -4.0660   -2.3730   -2.5550 o         1 AMO     -0.512000
     28 OD2        -4.5330   -3.2080   -0.6080 oh        1 AMO     -0.595100
     29 C          -0.5190   -1.0990    0.1680 c         1 AMO      0.637100
     30 O           0.0580   -1.0600    1.2670 o         1 AMO     -0.587000
     31 O2'        -0.0920    6.8280    0.5400 oh        1 AMO     -0.585800
     32 H5'1       -0.6040    2.3640   -2.7400 h1        1 AMO      0.039200
     33 H5'2       -1.1230    2.3010   -0.9800 h1        1 AMO      0.039200
     34 H4'         0.4810    4.5000   -2.4860 h1        1 AMO      0.073700
     35 H1'        -2.1820    6.3630   -0.6580 h2        1 AMO      0.114700
     36 H2         -6.7980    6.4890   -0.8770 h5        1 AMO      0.039100
     37 H61        -7.8950    2.5840    1.3350 hn        1 AMO      0.423300
     38 H62        -6.4050    1.8850    1.7190 hn        1 AMO      0.423300
     39 H8         -1.6780    2.8850    1.1470 h5        1 AMO      0.152800
     40 H2'2       -0.6000    5.1310    1.5040 h1        1 AMO      0.107700
     41 H3'         0.8360    3.6850    0.3480 h1        1 AMO      0.123700
     42 HO'3        2.4120    4.7490   -0.8310 ho        1 AMO      0.424000
     43 HA         -1.0970   -2.6260   -1.2200 h1        1 AMO      0.095700
     44 HB1        -3.2990   -0.9470    0.2130 hc        1 AMO      0.099200
     45 HB2        -2.5380   -0.5940   -1.4010 hc        1 AMO      0.099200
     46 H2'1        0.3830    7.0700   -0.2660 ho        1 AMO      0.419000
     47 HN2        -0.9770   -3.8070    0.7300 hn        1 AMO      0.363800
     48 H21        -1.8770   -2.7770    1.6080 hn        1 AMO      0.363800
     49 H          -4.2050   -3.2260    0.3020 ho        1 AMO      0.439000
@<TRIPOS>BOND
     1    1    2 1   
     2    1    3 1   
     3    1    4 1   
     4    1    5 1   
     5    4   29 1   
     6    5    6 1   
     7    6    7 1   
     8    6   32 1   
     9    6   33 1   
    10    7    8 1   
    11    7   21 1   
    12    7   34 1   
    13    8    9 1   
    14    9   10 1   
    15    9   20 1   
    16    9   35 1   
    17   10   11 1   
    18   10   19 1   
    19   11   12 ar  
    20   11   17 ar  
    21   12   13 ar  
    22   13   14 ar  
    23   13   36 1   
    24   14   15 ar  
    25   15   16 1   
    26   15   17 ar  
    27   16   37 1   
    28   16   38 1   
    29   17   18 1   
    30   18   19 2   
    31   19   39 1   
    32   20   21 1   
    33   20   31 1   
    34   20   40 1   
    35   21   22 1   
    36   21   41 1   
    37   22   42 1   
    38   23   24 1   
    39   23   47 1   
    40   23   48 1   
    41   24   25 1   
    42   24   29 1   
    43   24   43 1   
    44   25   26 1   
    45   25   44 1   
    46   25   45 1   
    47   26   27 2   
    48   26   28 1   
    49   28   49 1   
    50   29   30 2   
    51   31   46 1   
@<TRIPOS>SUBSTRUCTURE
     1 AMO         1 TEMP              0 ****  ****    0 ROOT
