@<TRIPOS>MOLECULE
AMO
   50    52     1     0     0
SMALL
bcc


@<TRIPOS>ATOM
      1 P          -1.8580    1.8020    2.1900 p5        1 AMO      1.507800
      2 O1P        -0.7470    1.5260    3.0970 o         1 AMO     -0.831000
      3 O2P        -3.3040    1.9780    2.4540 o         1 AMO     -0.831000
      4 O3P        -1.7200    0.7570    0.8710 os        1 AMO     -0.539500
      5 O5'        -1.4480    3.1190    1.2830 os        1 AMO     -0.580200
      6 C5'        -0.0940    3.2250    0.9610 c3        1 AMO      0.183400
      7 C4'         0.1320    3.7560   -0.4560 c3        1 AMO      0.080100
      8 O4'        -0.6570    3.0550   -1.4280 os        1 AMO     -0.398600
      9 C1'        -1.5910    3.9310   -2.0660 c3        1 AMO      0.206800
     10 N9         -2.9380    3.6910   -1.5710 na        1 AMO     -0.268000
     11 C4         -3.5750    4.3200   -0.4770 ca        1 AMO      0.489800
     12 N3         -3.4570    5.5540    0.0660 nb        1 AMO     -0.662000
     13 C2         -4.2690    5.7730    1.1350 ca        1 AMO      0.668900
     14 N1         -5.1190    4.9110    1.7550 nb        1 AMO     -0.705000
     15 C6         -5.2100    3.6650    1.2170 ca        1 AMO      0.583200
     16 N6         -5.9140    2.6050    1.9500 n4        1 AMO     -0.835300
     17 C5         -4.5420    3.3210    0.0310 ca        1 AMO     -0.111200
     18 N7         -4.4900    2.1590   -0.7520 nc        1 AMO     -0.599100
     19 C8         -3.5230    2.3930   -1.6510 cd        1 AMO      0.508700
     20 C2'        -1.0500    5.3840   -1.8730 c3        1 AMO      0.138100
     21 C3'        -0.1570    5.2640   -0.6180 c3        1 AMO      0.080100
     22 O3'         1.0340    5.9840   -0.8760 oh        1 AMO     -0.595800
     23 N          -1.6250   -2.8680    0.3860 n3        1 AMO     -0.913800
     24 CA         -1.8150   -1.4940   -0.0230 c3        1 AMO      0.119500
     25 CB         -3.0080   -1.3280   -0.9850 c3        1 AMO     -0.178400
     26 CG         -2.5560   -1.3160   -2.4130 c         1 AMO      0.642100
     27 OD1        -2.7610   -0.4100   -3.2260 o         1 AMO     -0.526000
     28 OD2        -1.8690   -2.3740   -2.9240 oh        1 AMO     -0.576100
     29 C          -2.0210   -0.5140    1.1220 c         1 AMO      0.638100
     30 O          -2.4420   -0.7390    2.2660 o         1 AMO     -0.584000
     31 O2'        -0.3580    5.7630   -3.0370 oh        1 AMO     -0.574800
     32 H5'1        0.4020    3.9520    1.6680 h1        1 AMO      0.045200
     33 H5'2        0.4010    2.2180    1.0610 h1        1 AMO      0.045200
     34 H4'         1.2020    3.5390   -0.7440 h1        1 AMO      0.073700
     35 H1'        -1.5900    3.6300   -3.1570 h2        1 AMO      0.116700
     36 H2         -4.2090    6.7870    1.5870 h5        1 AMO      0.072100
     37 H61        -6.4440    2.0340    1.2910 hn        1 AMO      0.485133
     38 H62        -5.1560    2.0170    2.4010 hn        1 AMO      0.485133
     39 H8         -3.1840    1.6640   -2.4150 h5        1 AMO      0.121800
     40 H2'2       -1.8560    6.1550   -1.7590 h1        1 AMO      0.119700
     41 H3'        -0.6840    5.6710    0.2850 h1        1 AMO      0.087700
     42 HO'3        1.5370    5.9900   -0.0530 ho        1 AMO      0.417000
     43 HA         -0.8720   -1.1620   -0.5590 h1        1 AMO      0.101700
     44 HB1        -3.7620   -2.1480   -0.8520 hc        1 AMO      0.095700
     45 HB2        -3.5200   -0.3500   -0.7750 hc        1 AMO      0.095700
     46 H2'1        0.5410    5.4110   -2.9850 ho        1 AMO      0.424000
     47 HN2        -1.7140   -3.0350   -2.2320 ho        1 AMO      0.448000
     48 H63        -6.5270    2.9880    2.6710 hn        1 AMO      0.485133
     49 H21        -2.3800   -3.1720    0.9720 hn        1 AMO      0.371300
     50 H          -0.7640   -2.9630    0.8910 hn        1 AMO      0.371300
@<TRIPOS>BOND
     1    1    2 1   
     2    1    3 1   
     3    1    4 1   
     4    1    5 1   
     5    4   29 1   
     6    5    6 1   
     7    6    7 1   
     8    6   32 1   
     9    6   33 1   
    10    7    8 1   
    11    7   21 1   
    12    7   34 1   
    13    8    9 1   
    14    9   10 1   
    15    9   20 1   
    16    9   35 1   
    17   10   11 1   
    18   10   19 1   
    19   11   12 ar  
    20   11   17 ar  
    21   12   13 ar  
    22   13   14 ar  
    23   13   36 1   
    24   14   15 ar  
    25   15   16 1   
    26   15   17 ar  
    27   16   37 1   
    28   16   38 1   
    29   16   48 1   
    30   17   18 1   
    31   18   19 2   
    32   19   39 1   
    33   20   21 1   
    34   20   31 1   
    35   20   40 1   
    36   21   22 1   
    37   21   41 1   
    38   22   42 1   
    39   23   24 1   
    40   23   49 1   
    41   23   50 1   
    42   24   25 1   
    43   24   29 1   
    44   24   43 1   
    45   25   26 1   
    46   25   44 1   
    47   25   45 1   
    48   26   27 2   
    49   26   28 1   
    50   28   47 1   
    51   29   30 2   
    52   31   46 1   
@<TRIPOS>SUBSTRUCTURE
     1 AMO         1 TEMP              0 ****  ****    0 ROOT
