@<TRIPOS>MOLECULE
AMO
   48    50     1     0     0
SMALL
bcc


@<TRIPOS>ATOM
      1 P           1.1150    1.8500    1.8860 p5        1 AMO      1.475800
      2 O1P         0.0690    1.8550    0.8410 o         1 AMO     -0.828000
      3 O2P         1.7460    3.0190    2.5100 o         1 AMO     -0.828000
      4 O3P         0.8350    0.6330    2.9990 os        1 AMO     -0.539500
      5 O5'         2.3790    1.0160    1.1790 os        1 AMO     -0.560200
      6 C5'         2.4080    0.9230   -0.1990 c3        1 AMO      0.189400
      7 C4'         2.3330   -0.5520   -0.6320 c3        1 AMO      0.102100
      8 O4'         0.9690   -0.9370   -0.8990 os        1 AMO     -0.371600
      9 C1'         0.7130   -1.0080   -2.2950 c3        1 AMO      0.232800
     10 N9         -0.2730   -0.0250   -2.7030 na        1 AMO     -0.290000
     11 C4         -0.8310    0.0200   -3.9880 ca        1 AMO      0.414800
     12 N3         -0.5630   -0.7060   -5.1170 nb        1 AMO     -0.750000
     13 C2         -1.3520   -0.3630   -6.1580 ca        1 AMO      0.650900
     14 N1         -2.3370    0.5730   -6.2440 nb        1 AMO     -0.801000
     15 C6         -2.5910    1.3240   -5.1230 ca        1 AMO      0.709200
     16 N6         -3.5080    2.3670   -5.1540 nh        1 AMO     -0.935500
     17 C5         -1.8500    1.0640   -3.9280 ca        1 AMO     -0.193200
     18 N7         -1.8950    1.6090   -2.6380 nc        1 AMO     -0.585100
     19 C8         -0.9620    0.9490   -1.9310 cd        1 AMO      0.483700
     20 C2'         2.0790   -0.8610   -3.0430 c3        1 AMO      0.073100
     21 C3'         3.1380   -0.8260   -1.9180 c3        1 AMO      0.124100
     22 O3'         3.8250   -2.0500   -1.7460 oh        1 AMO     -0.588800
     23 N          -0.4440    0.4750    6.2600 n3        1 AMO     -0.906800
     24 CA         -0.4190   -0.1590    4.9500 c3        1 AMO      0.142500
     25 CB         -1.6880   -0.9290    4.5580 c3        1 AMO     -0.225400
     26 CG         -2.0990   -1.9720    5.6080 c         1 AMO      0.907600
     27 OD1        -2.3640   -1.5850    6.7890 o         1 AMO     -0.859800
     28 OD2        -2.1940   -3.1800    5.2490 o         1 AMO     -0.859800
     29 C          -0.1500    0.8800    3.8740 c         1 AMO      0.682100
     30 O          -0.7250    1.9630    3.6700 o         1 AMO     -0.617000
     31 O2'         2.3340   -1.9710   -3.8770 oh        1 AMO     -0.614800
     32 H5'1        1.5600    1.4950   -0.6700 h1        1 AMO      0.028700
     33 H5'2        3.3940    1.3430   -0.5570 h1        1 AMO      0.028700
     34 H4'         2.6510   -1.2230    0.2130 h1        1 AMO      0.123700
     35 H1'         0.2710   -2.0340   -2.4830 h2        1 AMO      0.084700
     36 H2         -1.1780   -0.9340   -7.0940 h5        1 AMO      0.030100
     37 H61        -4.1990    2.3450   -5.8660 hn        1 AMO      0.419300
     38 H62        -3.8050    2.6950   -4.2630 hn        1 AMO      0.419300
     39 H8         -0.7130    1.1250   -0.8480 h5        1 AMO      0.194800
     40 H2'2        2.1230    0.0830   -3.6510 h1        1 AMO      0.060700
     41 H3'         3.8900   -0.0180   -2.1250 h1        1 AMO      0.051700
     42 HO'3        4.0180   -2.4030   -2.6230 ho        1 AMO      0.409000
     43 HA          0.4490   -0.8840    4.9520 h1        1 AMO      0.078700
     44 HB1        -2.5370   -0.2120    4.4310 hc        1 AMO      0.044200
     45 HB2        -1.5080   -1.4440    3.5820 hc        1 AMO      0.044200
     46 H2'1        1.6030   -2.0250   -4.5060 ho        1 AMO      0.431000
     47 H          -1.1280    1.2100    6.2550 hn        1 AMO      0.360300
     48 HN2        -0.7420   -0.2150    6.9340 hn        1 AMO      0.360300
@<TRIPOS>BOND
     1    1    2 1   
     2    1    3 1   
     3    1    4 1   
     4    1    5 1   
     5    4   29 1   
     6    5    6 1   
     7    6    7 1   
     8    6   32 1   
     9    6   33 1   
    10    7    8 1   
    11    7   21 1   
    12    7   34 1   
    13    8    9 1   
    14    9   10 1   
    15    9   20 1   
    16    9   35 1   
    17   10   11 1   
    18   10   19 1   
    19   11   12 ar  
    20   11   17 ar  
    21   12   13 ar  
    22   13   14 ar  
    23   13   36 1   
    24   14   15 ar  
    25   15   16 1   
    26   15   17 ar  
    27   16   37 1   
    28   16   38 1   
    29   17   18 1   
    30   18   19 2   
    31   19   39 1   
    32   20   21 1   
    33   20   31 1   
    34   20   40 1   
    35   21   22 1   
    36   21   41 1   
    37   22   42 1   
    38   23   24 1   
    39   23   47 1   
    40   23   48 1   
    41   24   25 1   
    42   24   29 1   
    43   24   43 1   
    44   25   26 1   
    45   25   44 1   
    46   25   45 1   
    47   26   27 1   
    48   26   28 1   
    49   29   30 2   
    50   31   46 1   
@<TRIPOS>SUBSTRUCTURE
     1 AMO         1 TEMP              0 ****  ****    0 ROOT
