@<TRIPOS>MOLECULE
AMO
   49    51     1     0     0
SMALL
bcc


@<TRIPOS>ATOM
      1 P           0.9140    1.0310   -0.0830 p5        1 AMO      1.450800
      2 O1P         2.2520    0.4450   -0.0160 o         1 AMO     -0.804000
      3 O2P         0.1380    1.8140    0.9010 o         1 AMO     -0.804000
      4 O3P        -0.1900   -0.1090   -0.7070 os        1 AMO     -0.526500
      5 O5'         0.8680    1.9730   -1.4370 os        1 AMO     -0.570200
      6 C5'        -0.3280    2.6320   -1.7110 c3        1 AMO      0.182400
      7 C4'        -0.1370    4.1540   -1.6240 c3        1 AMO      0.076100
      8 O4'        -1.4200    4.7940   -1.6910 os        1 AMO     -0.418600
      9 C1'        -1.7870    5.3460   -0.4200 c3        1 AMO      0.213800
     10 N9         -2.8080    4.5570    0.2290 na        1 AMO     -0.280000
     11 C4         -4.1910    4.7820    0.1170 ca        1 AMO      0.451800
     12 N3         -4.8960    5.7990   -0.4640 nb        1 AMO     -0.722000
     13 C2         -6.2330    5.6440   -0.3420 ca        1 AMO      0.661900
     14 N1         -6.9530    4.6570    0.2600 nb        1 AMO     -0.795000
     15 C6         -6.2510    3.6460    0.8680 ca        1 AMO      0.721200
     16 N6         -6.9050    2.6570    1.5850 nv        1 AMO     -0.938500
     17 C5         -4.8220    3.6600    0.8060 ca        1 AMO     -0.213200
     18 N7         -3.8380    2.7820    1.2890 nc        1 AMO     -0.576100
     19 C8         -2.6670    3.3250    0.9250 cd        1 AMO      0.434700
     20 C2'        -0.4730    5.4860    0.4210 c3        1 AMO      0.128100
     21 C3'         0.5530    4.6100   -0.3230 c3        1 AMO      0.070100
     22 O3'         1.6920    5.4040   -0.6070 oh        1 AMO     -0.614800
     23 N          -1.7010   -3.1810    0.6900 n8        1 AMO     -0.915800
     24 CA         -1.4890   -2.1390   -0.2980 c3        1 AMO      0.118500
     25 CB         -2.7930   -1.4180   -0.6730 c3        1 AMO     -0.170400
     26 CG         -3.7740   -2.3430   -1.3270 c         1 AMO      0.640100
     27 OD1        -4.0650   -2.3840   -2.5240 o         1 AMO     -0.512000
     28 OD2        -4.4940   -3.2230   -0.5700 oh        1 AMO     -0.595100
     29 C          -0.4840   -1.0840    0.1430 c         1 AMO      0.637100
     30 O           0.1090   -1.0400    1.2330 o         1 AMO     -0.587000
     31 O2'        -0.1240    6.8460    0.5130 oh        1 AMO     -0.585800
     32 H5'1       -1.1340    2.3100   -0.9950 h1        1 AMO      0.039200
     33 H5'2       -0.6410    2.3790   -2.7630 h1        1 AMO      0.039200
     34 H4'         0.4270    4.5240   -2.5220 h1        1 AMO      0.073700
     35 H1'        -2.2270    6.3610   -0.6550 h2        1 AMO      0.114700
     36 H2         -6.8470    6.4420   -0.8090 h5        1 AMO      0.039100
     37 H61        -6.3730    1.8410    1.7780 hn        1 AMO      0.423300
     38 H62        -7.8740    2.5260    1.4160 hn        1 AMO      0.423300
     39 H8         -1.6640    2.8880    1.1400 h5        1 AMO      0.152800
     40 H2'2       -0.6020    5.1440    1.4830 h1        1 AMO      0.107700
     41 H3'         0.8300    3.7120    0.3060 h1        1 AMO      0.123700
     42 HO'3        2.3790    4.7910   -0.8950 ho        1 AMO      0.424000
     43 HA         -1.0720   -2.6140   -1.2380 h1        1 AMO      0.095700
     44 HB1        -2.5330   -0.5930   -1.3930 hc        1 AMO      0.099200
     45 HB2        -3.2640   -0.9540    0.2330 hc        1 AMO      0.099200
     46 H2'1        0.3370    7.0930   -0.3000 ho        1 AMO      0.419000
     47 HN2        -0.9110   -3.7960    0.7080 hn        1 AMO      0.363800
     48 H21        -4.1510   -3.2400    0.3340 ho        1 AMO      0.439000
     49 H          -1.8050   -2.7750    1.6020 hn        1 AMO      0.363800
@<TRIPOS>BOND
     1    1    2 1   
     2    1    3 1   
     3    1    4 1   
     4    1    5 1   
     5    4   29 1   
     6    5    6 1   
     7    6    7 1   
     8    6   32 1   
     9    6   33 1   
    10    7    8 1   
    11    7   21 1   
    12    7   34 1   
    13    8    9 1   
    14    9   10 1   
    15    9   20 1   
    16    9   35 1   
    17   10   11 1   
    18   10   19 1   
    19   11   12 ar  
    20   11   17 ar  
    21   12   13 ar  
    22   13   14 ar  
    23   13   36 1   
    24   14   15 ar  
    25   15   16 1   
    26   15   17 ar  
    27   16   37 1   
    28   16   38 1   
    29   17   18 1   
    30   18   19 2   
    31   19   39 1   
    32   20   21 1   
    33   20   31 1   
    34   20   40 1   
    35   21   22 1   
    36   21   41 1   
    37   22   42 1   
    38   23   24 1   
    39   23   47 1   
    40   23   49 1   
    41   24   25 1   
    42   24   29 1   
    43   24   43 1   
    44   25   26 1   
    45   25   44 1   
    46   25   45 1   
    47   26   27 2   
    48   26   28 1   
    49   28   48 1   
    50   29   30 2   
    51   31   46 1   
@<TRIPOS>SUBSTRUCTURE
     1 AMO         1 TEMP              0 ****  ****    0 ROOT
