@<TRIPOS>MOLECULE
AMP
   35    37     1     0     0
SMALL
bcc


@<TRIPOS>ATOM
      1 P           0.4380   -0.1990   -1.2200 p5        1 AMP      1.333900
      2 O1P         1.0210   -0.9470   -2.4050 o         1 AMP     -0.929167
      3 O2P         1.3520    0.0660   -0.0660 o         1 AMP     -0.929167
      4 O3P        -0.5650    0.8510   -1.6030 o         1 AMP     -0.929167
      5 O5'        -0.6090   -1.4720   -0.6390 os        1 AMP     -0.554200
      6 C5'        -1.5860   -1.8240   -1.5260 c3        1 AMP      0.228400
      7 C4'        -1.2190   -3.1480   -2.2420 c3        1 AMP      0.049100
      8 O4'        -2.4140   -3.9360   -2.4790 os        1 AMP     -0.432600
      9 C3'        -0.5050   -2.9440   -3.5910 c3        1 AMP      0.128100
     10 O3'         0.8220   -3.4100   -3.5350 oh        1 AMP     -0.682800
     11 C2'        -1.2910   -3.7970   -4.6120 c3        1 AMP      0.102100
     12 O2'        -0.6610   -4.9970   -5.0030 oh        1 AMP     -0.615800
     13 C1'        -2.6150   -4.1680   -3.8620 c3        1 AMP      0.215800
     14 N9         -3.7730   -3.4090   -4.3260 na        1 AMP     -0.254000
     15 C8         -4.0680   -2.0530   -4.0540 cc        1 AMP      0.456700
     16 N7         -5.2500   -1.6450   -4.5530 nd        1 AMP     -0.589100
     17 C5         -5.7910   -2.7770   -5.1760 ca        1 AMP     -0.206200
     18 C6         -7.0150   -3.0080   -5.8750 ca        1 AMP      0.698200
     19 N6         -7.8790   -1.9430   -6.1310 nh        1 AMP     -0.931500
     20 N1         -7.2950   -4.2660   -6.3390 nb        1 AMP     -0.804000
     21 C2         -6.3490   -5.2280   -6.1350 ca        1 AMP      0.642900
     22 N3         -5.1510   -5.1600   -5.5190 nb        1 AMP     -0.707000
     23 C4         -4.8730   -3.9120   -5.0280 ca        1 AMP      0.437800
     24 H5'1       -1.7480   -1.0090   -2.2900 h1        1 AMP     -0.002300
     25 H5'2       -2.5560   -2.0100   -0.9770 h1        1 AMP     -0.002300
     26 H4'        -0.5880   -3.7750   -1.5550 h1        1 AMP      0.080700
     27 H3'        -0.5130   -1.8590   -3.8920 h1        1 AMP      0.116700
     28 HO3'        1.3310   -2.6880   -3.0890 ho        1 AMP      0.515000
     29 H2'        -1.4840   -3.2340   -5.5620 h1        1 AMP      0.067700
     30 HO2'        0.0460   -5.1800   -4.3680 ho        1 AMP      0.431000
     31 H1'        -2.8580   -5.2640   -3.9820 h2        1 AMP      0.093700
     32 H8         -3.3600   -1.4330   -3.4690 h5        1 AMP      0.125800
     33 HN61       -7.7430   -1.1530   -5.5410 hn        1 AMP      0.409300
     34 HN62       -8.8260   -2.1750   -6.3180 hn        1 AMP      0.409300
     35 H2         -6.6170   -6.2260   -6.5390 h5        1 AMP      0.029100
@<TRIPOS>BOND
     1    1    2 1   
     2    1    3 1   
     3    1    4 1   
     4    1    5 1   
     5    5    6 1   
     6    6    7 1   
     7    6   24 1   
     8    6   25 1   
     9    7    8 1   
    10    7    9 1   
    11    7   26 1   
    12    8   13 1   
    13    9   10 1   
    14    9   11 1   
    15    9   27 1   
    16   10   28 1   
    17   11   12 1   
    18   11   13 1   
    19   11   29 1   
    20   12   30 1   
    21   13   14 1   
    22   13   31 1   
    23   14   15 1   
    24   14   23 1   
    25   15   16 2   
    26   15   32 1   
    27   16   17 1   
    28   17   18 ar  
    29   17   23 ar  
    30   18   19 1   
    31   18   20 ar  
    32   19   33 1   
    33   19   34 1   
    34   20   21 ar  
    35   21   22 ar  
    36   21   35 1   
    37   22   23 ar  
@<TRIPOS>SUBSTRUCTURE
     1 AMP         1 TEMP              0 ****  ****    0 ROOT
