@<TRIPOS>MOLECULE
AMP
   35    37     1     0     0
SMALL
bcc


@<TRIPOS>ATOM
      1 P           0.3700   -0.2010   -1.1330 p5        1 AMP      1.333900
      2 O1P         0.9850   -0.9550   -2.2990 o         1 AMP     -0.929167
      3 O2P         1.2500    0.0640    0.0450 o         1 AMP     -0.929167
      4 O3P        -0.6180    0.8500   -1.5490 o         1 AMP     -0.929167
      5 O5'        -0.6980   -1.4700   -0.5790 os        1 AMP     -0.554200
      6 C5'        -1.6490   -1.8220   -1.4940 c3        1 AMP      0.228400
      7 C4'        -1.2660   -3.1480   -2.1940 c3        1 AMP      0.049100
      8 O4'        -2.4560   -3.9330   -2.4640 os        1 AMP     -0.432600
      9 C3'        -0.5120   -2.9510   -3.5230 c3        1 AMP      0.128100
     10 O3'         0.8110   -3.4210   -3.4270 oh        1 AMP     -0.682800
     11 C2'        -1.2720   -3.8040   -4.5640 c3        1 AMP      0.102100
     12 O2'        -0.6340   -5.0070   -4.9330 oh        1 AMP     -0.615800
     13 C1'        -2.6180   -4.1680   -3.8510 c3        1 AMP      0.215800
     14 N9         -3.7600   -3.4070   -4.3510 na        1 AMP     -0.254000
     15 C8         -4.0580   -2.0500   -4.0920 cc        1 AMP      0.456700
     16 N7         -5.2230   -1.6390   -4.6260 nd        1 AMP     -0.589100
     17 C5         -5.7500   -2.7720   -5.2600 ca        1 AMP     -0.206200
     18 C6         -6.9540   -3.0010   -5.9930 ca        1 AMP      0.698200
     19 N6         -7.8070   -1.9340   -6.2780 nh        1 AMP     -0.931500
     20 N1         -7.2250   -4.2600   -6.4610 nb        1 AMP     -0.804000
     21 C2         -6.2880   -5.2240   -6.2270 ca        1 AMP      0.642900
     22 N3         -5.1090   -5.1580   -5.5770 nb        1 AMP     -0.707000
     23 C4         -4.8410   -3.9090   -5.0820 ca        1 AMP      0.437800
     24 H5'1       -1.7870   -1.0080   -2.2640 h1        1 AMP     -0.002300
     25 H5'2       -2.6350   -2.0020   -0.9720 h1        1 AMP     -0.002300
     26 H4'        -0.6570   -3.7750   -1.4880 h1        1 AMP      0.080700
     27 H3'        -0.5080   -1.8670   -3.8260 h1        1 AMP      0.116700
     28 HO3'        1.3090   -2.7000   -2.9690 ho        1 AMP      0.515000
     29 H2'        -1.4350   -3.2430   -5.5200 h1        1 AMP      0.067700
     30 HO2'        0.0530   -5.1900   -4.2780 ho        1 AMP      0.431000
     31 H1'        -2.8610   -5.2640   -3.9760 h2        1 AMP      0.093700
     32 H8         -3.3650   -1.4300   -3.4880 h5        1 AMP      0.125800
     33 HN61       -8.7490   -2.1640   -6.4910 hn        1 AMP      0.409300
     34 HN62       -7.6850   -1.1430   -5.6860 hn        1 AMP      0.409300
     35 H2         -6.5480   -6.2230   -6.6350 h5        1 AMP      0.029100
@<TRIPOS>BOND
     1    1    2 1   
     2    1    3 1   
     3    1    4 1   
     4    1    5 1   
     5    5    6 1   
     6    6    7 1   
     7    6   24 1   
     8    6   25 1   
     9    7    8 1   
    10    7    9 1   
    11    7   26 1   
    12    8   13 1   
    13    9   10 1   
    14    9   11 1   
    15    9   27 1   
    16   10   28 1   
    17   11   12 1   
    18   11   13 1   
    19   11   29 1   
    20   12   30 1   
    21   13   14 1   
    22   13   31 1   
    23   14   15 1   
    24   14   23 1   
    25   15   16 2   
    26   15   32 1   
    27   16   17 1   
    28   17   18 ar  
    29   17   23 ar  
    30   18   19 1   
    31   18   20 ar  
    32   19   33 1   
    33   19   34 1   
    34   20   21 ar  
    35   21   22 ar  
    36   21   35 1   
    37   22   23 ar  
@<TRIPOS>SUBSTRUCTURE
     1 AMP         1 TEMP              0 ****  ****    0 ROOT
