@<TRIPOS>MOLECULE
AMP
   35    37     1     0     0
SMALL
bcc


@<TRIPOS>ATOM
      1 P           0.4290   -0.1770   -1.2310 p5        1 AMP      1.333900
      2 O1P         1.0160   -0.9350   -2.4080 o         1 AMP     -0.929167
      3 O2P         1.3390    0.0970   -0.0770 o         1 AMP     -0.929167
      4 O3P        -0.5720    0.8690   -1.6270 o         1 AMP     -0.929167
      5 O5'        -0.6200   -1.4450   -0.6430 os        1 AMP     -0.554200
      6 C5'        -1.5930   -1.8050   -1.5310 c3        1 AMP      0.228400
      7 C4'        -1.2240   -3.1350   -2.2340 c3        1 AMP      0.049100
      8 O4'        -2.4180   -3.9250   -2.4680 os        1 AMP     -0.432600
      9 C3'        -0.5050   -2.9420   -3.5830 c3        1 AMP      0.128100
     10 O3'         0.8210   -3.4080   -3.5190 oh        1 AMP     -0.682800
     11 C2'        -1.2880   -3.8030   -4.5990 c3        1 AMP      0.102100
     12 O2'        -0.6570   -5.0060   -4.9790 oh        1 AMP     -0.615800
     13 C1'        -2.6150   -4.1680   -3.8500 c3        1 AMP      0.215800
     14 N9         -3.7720   -3.4130   -4.3240 na        1 AMP     -0.254000
     15 C8         -4.0680   -2.0550   -4.0640 cc        1 AMP      0.456700
     16 N7         -5.2480   -1.6510   -4.5700 nd        1 AMP     -0.589100
     17 C5         -5.7870   -2.7890   -5.1860 ca        1 AMP     -0.206200
     18 C6         -7.0080   -3.0250   -5.8870 ca        1 AMP      0.698200
     19 N6         -7.8710   -1.9630   -6.1540 nv        1 AMP     -0.931500
     20 N1         -7.2860   -4.2870   -6.3420 nb        1 AMP     -0.804000
     21 C2         -6.3410   -5.2470   -6.1270 ca        1 AMP      0.642900
     22 N3         -5.1450   -5.1740   -5.5080 nb        1 AMP     -0.707000
     23 C4         -4.8690   -3.9220   -5.0260 ca        1 AMP      0.437800
     24 H5'1       -2.5650   -1.9860   -0.9830 h1        1 AMP     -0.002300
     25 H5'2       -1.7540   -0.9960   -2.3010 h1        1 AMP     -0.002300
     26 H4'        -0.5960   -3.7560   -1.5400 h1        1 AMP      0.080700
     27 H3'        -0.5120   -1.8590   -3.8920 h1        1 AMP      0.116700
     28 HO3'        1.3280   -2.6820   -3.0770 ho        1 AMP      0.515000
     29 H2'        -1.4780   -3.2470   -5.5540 h1        1 AMP      0.067700
     30 HO2'        0.0480   -5.1840   -4.3400 ho        1 AMP      0.431000
     31 H1'        -2.8570   -5.2650   -3.9620 h2        1 AMP      0.093700
     32 H8         -3.3620   -1.4300   -3.4810 h5        1 AMP      0.125800
     33 HN61       -7.7380   -1.1690   -5.5700 hn        1 AMP      0.409300
     34 HN62       -8.8180   -2.1970   -6.3430 hn        1 AMP      0.409300
     35 H2         -6.6070   -6.2490   -6.5240 h5        1 AMP      0.029100
@<TRIPOS>BOND
     1    1    2 1   
     2    1    3 1   
     3    1    4 1   
     4    1    5 1   
     5    5    6 1   
     6    6    7 1   
     7    6   24 1   
     8    6   25 1   
     9    7    8 1   
    10    7    9 1   
    11    7   26 1   
    12    8   13 1   
    13    9   10 1   
    14    9   11 1   
    15    9   27 1   
    16   10   28 1   
    17   11   12 1   
    18   11   13 1   
    19   11   29 1   
    20   12   30 1   
    21   13   14 1   
    22   13   31 1   
    23   14   15 1   
    24   14   23 1   
    25   15   16 2   
    26   15   32 1   
    27   16   17 1   
    28   17   18 ar  
    29   17   23 ar  
    30   18   19 1   
    31   18   20 ar  
    32   19   33 1   
    33   19   34 1   
    34   20   21 ar  
    35   21   22 ar  
    36   21   35 1   
    37   22   23 ar  
@<TRIPOS>SUBSTRUCTURE
     1 AMP         1 TEMP              0 ****  ****    0 ROOT
