@<TRIPOS>MOLECULE
AMP
   35    37     1     0     0
SMALL
bcc


@<TRIPOS>ATOM
      1 P          -3.8580   -1.1450    0.2720 p5        1 AMP      1.315900
      2 O1P        -4.0830    0.2520    0.8020 o         1 AMP     -0.921167
      3 O2P        -3.9530   -2.2840    1.2380 o         1 AMP     -0.921167
      4 O3P        -4.3360   -1.3650   -1.1330 o         1 AMP     -0.921167
      5 O5'        -2.1090   -0.9920   -0.0020 os        1 AMP     -0.554200
      6 C5'        -1.8220    0.0930   -0.7770 c3        1 AMP      0.224400
      7 C4'        -1.5050    1.3490    0.0700 c3        1 AMP      0.013100
      8 O4'        -0.4700    1.1360    1.0560 os        1 AMP     -0.385600
      9 C3'        -0.9890    2.4910   -0.8150 c3        1 AMP      0.085100
     10 O3'        -1.3850    3.7810   -0.3710 oh        1 AMP     -0.636800
     11 C2'         0.5560    2.3820   -0.7230 c3        1 AMP      0.096100
     12 O2'         1.2030    3.6160   -0.5220 oh        1 AMP     -0.597800
     13 C1'         0.8020    1.4360    0.5070 c3        1 AMP      0.216800
     14 N9          1.5230    0.2100    0.2050 na        1 AMP     -0.270000
     15 C8          1.0060   -1.1110    0.1780 cc        1 AMP      0.480700
     16 N7          1.9570   -2.0470    0.0020 nd        1 AMP     -0.603100
     17 C5          3.1650   -1.3420   -0.0730 ca        1 AMP     -0.194200
     18 C6          4.5220   -1.7550   -0.2340 ca        1 AMP      0.685200
     19 N6          4.8130   -3.0980   -0.4860 nh        1 AMP     -0.927500
     20 N1          5.5190   -0.8150   -0.2010 nb        1 AMP     -0.803000
     21 C2          5.1390    0.4860   -0.0550 ca        1 AMP      0.631900
     22 N3          3.9110    1.0290    0.0840 nb        1 AMP     -0.705000
     23 C4          2.9120    0.0950    0.0740 ca        1 AMP      0.421800
     24 H5'1       -0.9170   -0.1190   -1.4240 h1        1 AMP     -0.005300
     25 H5'2       -2.6960    0.3590   -1.4410 h1        1 AMP     -0.005300
     26 H4'        -2.4380    1.5630    0.6870 h1        1 AMP      0.188700
     27 H3'        -1.3380    2.3950   -1.8760 h1        1 AMP      0.077700
     28 HO3'       -1.9640    3.6550    0.3920 ho        1 AMP      0.422000
     29 H2'         0.9900    1.9700   -1.6700 h1        1 AMP      0.086700
     30 HO2'        0.6450    4.1440    0.0660 ho        1 AMP      0.410000
     31 H1'         1.3850    1.9820    1.3080 h2        1 AMP      0.075700
     32 H8         -0.0980   -1.3000    0.3020 h5        1 AMP      0.185800
     33 HN61        4.0830   -3.7250   -0.2280 hn        1 AMP      0.405300
     34 HN62        5.7280   -3.4000   -0.2430 hn        1 AMP      0.405300
     35 H2          5.9790    1.2110   -0.0440 h5        1 AMP      0.025100
@<TRIPOS>BOND
     1    1    2 1   
     2    1    3 1   
     3    1    4 1   
     4    1    5 1   
     5    5    6 1   
     6    6    7 1   
     7    6   24 1   
     8    6   25 1   
     9    7    8 1   
    10    7    9 1   
    11    7   26 1   
    12    8   13 1   
    13    9   10 1   
    14    9   11 1   
    15    9   27 1   
    16   10   28 1   
    17   11   12 1   
    18   11   13 1   
    19   11   29 1   
    20   12   30 1   
    21   13   14 1   
    22   13   31 1   
    23   14   15 1   
    24   14   23 1   
    25   15   16 2   
    26   15   32 1   
    27   16   17 1   
    28   17   18 ar  
    29   17   23 ar  
    30   18   19 1   
    31   18   20 ar  
    32   19   33 1   
    33   19   34 1   
    34   20   21 ar  
    35   21   22 ar  
    36   21   35 1   
    37   22   23 ar  
@<TRIPOS>SUBSTRUCTURE
     1 AMP         1 TEMP              0 ****  ****    0 ROOT
