@<TRIPOS>MOLECULE
AMQ
   22    20     1     0     0
SMALL
bcc


@<TRIPOS>ATOM
      1 N          -1.4090   -0.5940    1.9850 n3        1 AMQ     -0.333000
      2 CA         -0.1720   -0.7950    1.3090 c3        1 AMQ     -0.119000
      3 C           0.8700   -1.2690    2.2940 c2        1 AMQ      0.312000
      4 OT1         1.3670   -2.4200    2.1800 o         1 AMQ     -0.575000
      5 OT2         1.2740   -0.4960    3.2030 o         1 AMQ     -0.575000
      6 CB          0.2780    0.5060    0.6860 c3        1 AMQ     -0.100000
      7 CG         -0.1990    0.5700   -0.7480 c2        1 AMQ     -0.104000
      8 CD1        -1.4260    1.0330   -1.1750 c1        1 AMQ      0.039000
      9 CD2         0.5280    0.2130   -1.8580 c1        1 AMQ     -0.044000
     10 CE2         1.9510   -0.3000   -1.8600 c2        1 AMQ     -0.154000
     11 OE1        -2.4770    1.4700   -0.3480 o         1 AMQ     -0.206000
     12 NE1        -1.4530    0.9620   -2.5220 n2        1 AMQ     -0.138000
     13 OE2        -0.2340    0.4510   -2.9510 os        1 AMQ     -0.087000
     14 H          -1.4780    0.2820    2.2410 hn        1 AMQ      0.133000
     15 HN2        -2.1010   -0.8030    1.4240 hn        1 AMQ      0.133000
     16 HA         -0.2890   -1.4680    0.6090 h1        1 AMQ      0.083000
     17 HB1         1.2550    0.5570    0.7070 hc        1 AMQ      0.108000
     18 HB2        -0.0980    1.2560    1.1880 hc        1 AMQ      0.108000
     19 HE21        2.3030   -0.2820   -2.7750 ha        1 AMQ      0.099000
     20 HE22        2.5050    0.2690   -1.2860 ha        1 AMQ      0.099000
     21 HE23        1.9670   -1.2200   -1.5220 ha        1 AMQ      0.099000
     22 HE1        -2.9640    2.0750   -0.7820 ho        1 AMQ      0.223000
@<TRIPOS>BOND
     1    1    2 1   
     2    1   14 1   
     3    1   15 1   
     4    2    3 1   
     5    2    6 1   
     6    2   16 1   
     7    3    4 1   
     8    3    5 1   
     9    6    7 1   
    10    6   17 1   
    11    6   18 1   
    12    7    8 1   
    13    7    9 1   
    14    8   12 1   
    15    9   13 1   
    16   10   19 1   
    17   10   20 1   
    18   10   21 1   
    19   11   22 1   
    20   12   13 1   
@<TRIPOS>SUBSTRUCTURE
     1 AMQ         1 TEMP              0 ****  ****    0 ROOT
