@<TRIPOS>MOLECULE
AMQ
   23    23     1     0     0
SMALL
bcc


@<TRIPOS>ATOM
      1 N          -0.1720    0.5910    0.3480 nz        1 AMQ     -0.825600
      2 CA          1.2580    0.2160    0.1450 c3        1 AMQ     -0.070500
      3 C           2.0080    0.1980    1.5690 c         1 AMQ      0.937600
      4 OT1         3.2430    0.0810    1.5120 o         1 AMQ     -0.759300
      5 OT2         1.2400    0.2790    2.5620 o         1 AMQ     -0.759300
      6 CB          1.9860    1.1470   -0.8090 c3        1 AMQ     -0.014100
      7 CG          1.5600    1.0070   -2.2040 cc        1 AMQ     -0.336900
      8 CD1         0.2860    1.4210   -2.8040 cc        1 AMQ      0.505600
      9 CD2         2.2680    0.5060   -3.2860 cd        1 AMQ      0.312000
     10 CE2         3.5950   -0.0770   -3.4730 c3        1 AMQ     -0.151400
     11 OE1        -0.7370    1.9470   -2.0670 oh        1 AMQ     -0.636300
     12 NE1         0.2910    1.1640   -4.1360 nd        1 AMQ     -0.412300
     13 OE2         1.4570    0.6260   -4.4410 os        1 AMQ     -0.108100
     14 H          -0.3060    1.5830    0.1440 hn        1 AMQ      0.447467
     15 HN2        -0.3790    0.4180    1.3560 hn        1 AMQ      0.447467
     16 HA          1.2840   -0.8410   -0.2380 hx        1 AMQ      0.090700
     17 HB1         1.8670    2.2170   -0.4820 hc        1 AMQ      0.097200
     18 HB2         3.0830    0.8960   -0.7060 hc        1 AMQ      0.097200
     19 HE21        4.1290   -0.1350   -2.4910 hc        1 AMQ      0.078033
     20 HE22        4.1950    0.5510   -4.1810 hc        1 AMQ      0.078033
     21 HE23        3.5080   -1.1060   -3.9060 hc        1 AMQ      0.078033
     22 HE1        -1.3930    2.3330   -2.6730 ho        1 AMQ      0.457000
     23 HN3        -0.7890    0.0490   -0.2490 hn        1 AMQ      0.447467
@<TRIPOS>BOND
     1    1    2 1   
     2    1   14 1   
     3    1   15 1   
     4    1   23 1   
     5    2    3 1   
     6    2    6 1   
     7    2   16 1   
     8    3    4 1   
     9    3    5 1   
    10    6    7 1   
    11    6   17 1   
    12    6   18 1   
    13    7    8 1   
    14    7    9 2   
    15    8   11 1   
    16    8   12 2   
    17    9   10 1   
    18    9   13 1   
    19   10   19 1   
    20   10   20 1   
    21   10   21 1   
    22   11   22 1   
    23   12   13 1   
@<TRIPOS>SUBSTRUCTURE
     1 AMQ         1 TEMP              0 ****  ****    0 ROOT
