@<TRIPOS>MOLECULE
AMQ
   23    23     1     0     0
SMALL
bcc


@<TRIPOS>ATOM
      1 N          -0.1840    0.4270    0.3220 n4        1 AMQ     -0.825600
      2 CA          1.2480    0.0750    0.0950 c3        1 AMQ     -0.070500
      3 C           1.9880   -0.0800    1.5150 c         1 AMQ      0.937600
      4 OT1         3.2230   -0.1900    1.4550 o         1 AMQ     -0.759300
      5 OT2         1.2130   -0.0960    2.5060 o         1 AMQ     -0.759300
      6 CB          1.9810    1.0950   -0.7600 c3        1 AMQ     -0.014100
      7 CG          1.5660    1.0900   -2.1650 cc        1 AMQ     -0.336900
      8 CD1         0.2950    1.5580   -2.7320 cc        1 AMQ      0.505600
      9 CD2         2.2830    0.6980   -3.2850 cd        1 AMQ      0.312000
     10 CE2         3.6120    0.1390   -3.5180 c3        1 AMQ     -0.151400
     11 OE1        -0.7350    2.0080   -1.9550 oh        1 AMQ     -0.636300
     12 NE1         0.3100    1.4310   -4.0830 nd        1 AMQ     -0.412300
     13 OE2         1.4790    0.9270   -4.4290 os        1 AMQ     -0.108100
     14 H          -0.3190    1.4340    0.2140 hn        1 AMQ      0.447467
     15 HN2        -0.7960   -0.0550   -0.3290 hn        1 AMQ      0.447467
     16 HA          1.2790   -0.9390   -0.3900 hx        1 AMQ      0.090700
     17 HB1         3.0780    0.8360   -0.6730 hc        1 AMQ      0.097200
     18 HB2         1.8580    2.1290   -0.3330 hc        1 AMQ      0.097200
     19 HE21        3.5340   -0.8330   -4.0680 hc        1 AMQ      0.078033
     20 HE22        4.2230    0.8440   -4.1380 hc        1 AMQ      0.078033
     21 HE23        4.1310   -0.0330   -2.5410 hc        1 AMQ      0.078033
     22 HE1        -1.3870    2.4500   -2.5260 ho        1 AMQ      0.457000
     23 HN3        -0.3980    0.1570    1.3070 hn        1 AMQ      0.447467
@<TRIPOS>BOND
     1    1    2 1   
     2    1   14 1   
     3    1   15 1   
     4    1   23 1   
     5    2    3 1   
     6    2    6 1   
     7    2   16 1   
     8    3    4 1   
     9    3    5 1   
    10    6    7 1   
    11    6   17 1   
    12    6   18 1   
    13    7    8 1   
    14    7    9 2   
    15    8   11 1   
    16    8   12 2   
    17    9   10 1   
    18    9   13 1   
    19   10   19 1   
    20   10   20 1   
    21   10   21 1   
    22   11   22 1   
    23   12   13 1   
@<TRIPOS>SUBSTRUCTURE
     1 AMQ         1 TEMP              0 ****  ****    0 ROOT
