@<TRIPOS>MOLECULE
AMQ
   22    22     1     0     0
SMALL
bcc


@<TRIPOS>ATOM
      1 N          -1.9040    0.5290   -1.1150 n3        1 AMQ     -0.914800
      2 CA         -0.4540    0.4850   -1.2720 c3        1 AMQ      0.009500
      3 C           0.0180    0.2660   -2.7530 c         1 AMQ      0.894600
      4 OT1        -0.8700    0.1890   -3.6470 o         1 AMQ     -0.833300
      5 OT2         1.2600    0.1950   -2.9550 o         1 AMQ     -0.833300
      6 CB          0.1900   -0.5980   -0.3990 c3        1 AMQ     -0.007100
      7 CG          0.3150   -0.2310    1.0160 cc        1 AMQ     -0.313900
      8 CD1        -0.7610    0.1100    1.9670 cc        1 AMQ      0.554600
      9 CD2         1.4560   -0.1540    1.7890 cd        1 AMQ      0.253000
     10 CE2         2.8830   -0.3430    1.5370 c3        1 AMQ     -0.132400
     11 OE1        -2.0930    0.1720    1.7210 oh        1 AMQ     -0.628300
     12 NE1        -0.2340    0.3510    3.1950 nd        1 AMQ     -0.435300
     13 OE2         1.0800    0.1950    3.1110 os        1 AMQ     -0.154100
     14 H          -2.2380    1.3790   -1.5300 hn        1 AMQ      0.348300
     15 HN2        -2.2990   -0.2260   -1.6520 hn        1 AMQ      0.348300
     16 HA         -0.0410    1.4850   -0.9530 h1        1 AMQ      0.049700
     17 HB1         1.2170   -0.7870   -0.8260 hc        1 AMQ      0.066700
     18 HB2        -0.3910   -1.5570   -0.4800 hc        1 AMQ      0.066700
     19 HE21        3.4810    0.4420    2.0640 hc        1 AMQ      0.058367
     20 HE22        3.2110   -1.3460    1.9100 hc        1 AMQ      0.058367
     21 HE23        3.0820   -0.2810    0.4370 hc        1 AMQ      0.058367
     22 HE1        -2.1890    0.2300    0.7360 ho        1 AMQ      0.486000
@<TRIPOS>BOND
     1    1    2 1   
     2    1   14 1   
     3    1   15 1   
     4    2    3 1   
     5    2    6 1   
     6    2   16 1   
     7    3    4 1   
     8    3    5 1   
     9    6    7 1   
    10    6   17 1   
    11    6   18 1   
    12    7    8 1   
    13    7    9 2   
    14    8   11 1   
    15    8   12 2   
    16    9   10 1   
    17    9   13 1   
    18   10   19 1   
    19   10   20 1   
    20   10   21 1   
    21   11   22 1   
    22   12   13 1   
@<TRIPOS>SUBSTRUCTURE
     1 AMQ         1 TEMP              0 ****  ****    0 ROOT
