@<TRIPOS>MOLECULE
AMR
   23    23     1     0     0
SMALL
bcc


@<TRIPOS>ATOM
      1 N1          0.6840   -0.1490   -0.6270 nb        1 AMR     -0.550000
      2 C1         -0.4700   -0.1120    0.0750 ca        1 AMR      0.099500
      3 C3         -0.4070   -0.2660    1.5640 c         1 AMR      0.622600
      4 N5          0.7030    0.2380    2.2120 n         1 AMR     -0.525400
      5 C6          0.9610    0.1300    3.6320 c2        1 AMR      0.657800
      6 N7         -0.1500    0.3200    4.4960 nh        1 AMR     -0.884800
      7 N6          2.1590   -0.0380    4.1330 n2        1 AMR     -0.871100
      8 O1         -1.3300   -0.8370    2.1890 o         1 AMR     -0.650100
      9 C2         -1.7500    0.0340   -0.6010 ca        1 AMR      0.672900
     10 N4         -2.9220    0.1680    0.0970 nh        1 AMR     -0.937500
     11 N3         -1.8090    0.1050   -1.9740 nb        1 AMR     -0.806000
     12 C4         -0.6360    0.0710   -2.6690 ca        1 AMR      0.659900
     13 N2         -0.6620    0.1770   -4.0350 nh        1 AMR     -0.957500
     14 C5          0.6320   -0.0600   -1.9560 ca        1 AMR      0.245000
     15 CL1         2.0920   -0.1070   -2.8470 cl        1 AMR     -0.151000
     16 HN5         1.4350    0.6370    1.6670 hn        1 AMR      0.339500
     17 HN71        0.0440    0.0760    5.4450 hn        1 AMR      0.414800
     18 HN72       -1.0080   -0.0700    4.1610 hn        1 AMR      0.414800
     19 HN6         2.9150   -0.0600    3.4860 hn        1 AMR      0.399400
     20 HN41       -3.7840    0.1680   -0.3960 hn        1 AMR      0.451800
     21 HN42       -2.9330   -0.1040    1.0540 hn        1 AMR      0.451800
     22 HN21       -1.5250    0.2090   -4.5210 hn        1 AMR      0.450800
     23 HN22        0.1780    0.0500   -4.5430 hn        1 AMR      0.450800
@<TRIPOS>BOND
     1    1    2 ar  
     2    1   14 ar  
     3    2    3 1   
     4    2    9 ar  
     5    3    4 1   
     6    3    8 2   
     7    4    5 1   
     8    4   16 1   
     9    5    6 1   
    10    5    7 2   
    11    6   17 1   
    12    6   18 1   
    13    7   19 1   
    14    9   10 1   
    15    9   11 ar  
    16   10   20 1   
    17   10   21 1   
    18   11   12 ar  
    19   12   13 1   
    20   12   14 ar  
    21   13   22 1   
    22   13   23 1   
    23   14   15 1   
@<TRIPOS>SUBSTRUCTURE
     1 AMR         1 TEMP              0 ****  ****    0 ROOT
