@<TRIPOS>MOLECULE
AMR
   27    27     1     0     0
SMALL
bcc


@<TRIPOS>ATOM
      1 N1          0.0710   -0.1690    0.0300 nb        1 AMR     -0.619000
      2 C1          1.4100    0.0200    0.1000 ca        1 AMR      0.318500
      3 C3          2.1640    0.0270   -1.2030 c         1 AMR      0.483600
      4 N5          1.4060   -0.1340   -2.4940 n4        1 AMR     -0.695800
      5 C6          2.1280    0.4140   -3.7520 c2        1 AMR      0.646100
      6 N7          3.2930   -0.4140   -4.2030 n4        1 AMR     -0.816600
      7 N6          1.8120    1.4350   -4.4180 n2        1 AMR     -0.560100
      8 O1          3.3810    0.1330   -1.2900 o         1 AMR     -0.423100
      9 C2          2.0520    0.1880    1.3750 ca        1 AMR      0.467900
     10 N4          3.5000    0.3890    1.5620 n4        1 AMR     -0.833300
     11 N3          1.3120    0.1570    2.5260 nb        1 AMR     -0.561000
     12 C4         -0.0200   -0.0370    2.4480 ca        1 AMR      0.467900
     13 N2         -0.8030   -0.0730    3.6960 n4        1 AMR     -0.835300
     14 C5         -0.6830   -0.2080    1.1540 ca        1 AMR      0.471000
     15 CL1        -2.3280   -0.4460    1.0530 cl        1 AMR      0.142000
     16 HN5         0.4930    0.3600   -2.4280 hn        1 AMR      0.516300
     17 HN71        2.9870   -1.3600   -4.4940 hn        1 AMR      0.528133
     18 HN72        3.7320    0.0410   -5.0460 hn        1 AMR      0.528133
     19 HN6         1.0750    2.1120   -4.3160 hn        1 AMR      0.586400
     20 HN41        3.9210    0.8340    0.7310 hn        1 AMR      0.519800
     21 HN42        3.9640   -0.5250    1.7380 hn        1 AMR      0.519800
     22 HN21       -1.5160    0.6830    3.6840 hn        1 AMR      0.527800
     23 HN22       -1.2820   -0.9920    3.7830 hn        1 AMR      0.527800
     24 H52         1.1810   -1.1390   -2.6220 hn        1 AMR      0.516300
     25 H73         4.0140   -0.4720   -3.4640 hn        1 AMR      0.528133
     26 H43         3.6890    1.0000    2.3900 hn        1 AMR      0.519800
     27 H23        -0.2030    0.0600    4.5390 hn        1 AMR      0.527800
@<TRIPOS>BOND
     1    1    2 ar  
     2    1   14 ar  
     3    2    3 1   
     4    2    9 ar  
     5    3    4 1   
     6    3    8 2   
     7    4    5 1   
     8    4   16 1   
     9    4   24 1   
    10    5    6 1   
    11    5    7 2   
    12    6   17 1   
    13    6   18 1   
    14    6   25 1   
    15    7   19 1   
    16    9   10 1   
    17    9   11 ar  
    18   10   20 1   
    19   10   21 1   
    20   10   26 1   
    21   11   12 ar  
    22   12   13 1   
    23   12   14 ar  
    24   13   22 1   
    25   13   23 1   
    26   13   27 1   
    27   14   15 1   
@<TRIPOS>SUBSTRUCTURE
     1 AMR         1 TEMP              0 ****  ****    0 ROOT
