@<TRIPOS>MOLECULE
AMR
   23    19     1     0     0
SMALL
bcc


@<TRIPOS>ATOM
      1 N1         -1.2140   -0.2290    0.3070 n1        1 AMR     -0.022000
      2 C1          0.1320   -0.3270    0.3160 c1        1 AMR     -0.252000
      3 C3          0.8980   -0.4190   -0.9740 c1        1 AMR      0.399000
      4 N5          0.1780   -0.4000   -2.2690 n3        1 AMR     -0.350000
      5 C6          0.4720    0.5870   -3.2120 c2        1 AMR      0.182000
      6 N7         -0.3100    1.7380   -3.2850 n3        1 AMR     -0.322000
      7 N6          1.4770    0.4300   -4.0240 n1        1 AMR     -0.319000
      8 O1          2.1510   -0.3620   -0.9550 o         1 AMR     -0.399000
      9 C2          0.8170   -0.4170    1.5290 c2        1 AMR      0.215000
     10 N4          2.3290   -0.4410    1.5450 n3        1 AMR     -0.334000
     11 N3          0.1540   -0.4070    2.6630 n1        1 AMR     -0.279000
     12 C4         -1.2220   -0.3080    2.6620 c1        1 AMR      0.203000
     13 N2         -1.9370   -0.3410    3.9050 n3        1 AMR     -0.354000
     14 C5         -1.8990   -0.2190    1.4810 c1        1 AMR     -0.184000
     15 CL1        -3.6980   -0.2440    1.4660 cl        1 AMR      0.014000
     16 HN5        -0.4300   -0.9580   -2.4210 hn        1 AMR      0.256000
     17 HN71       -0.8390    1.8900   -4.0350 hn        1 AMR      0.187000
     18 HN72       -0.4090    2.2860   -2.5200 hn        1 AMR      0.187000
     19 HN6         2.0210   -0.3740   -3.9730 DU        1 AMR      0.190000
     20 HN41        2.7690   -0.1630    2.2650 hn        1 AMR      0.246500
     21 HN42        2.7590   -0.6750    0.8480 hn        1 AMR      0.246500
     22 HN21       -2.7140    0.0020    3.9570 hn        1 AMR      0.245000
     23 HN22       -1.4820   -0.6510    4.7220 hn        1 AMR      0.245000
@<TRIPOS>BOND
     1    1    2 1   
     2    2    9 1   
     3    3    4 1   
     4    3    8 1   
     5    4    5 1   
     6    4   16 1   
     7    5    6 1   
     8    5    7 1   
     9    6   17 1   
    10    6   18 1   
    11    9   10 1   
    12    9   11 1   
    13   10   20 1   
    14   10   21 1   
    15   12   13 1   
    16   12   14 1   
    17   13   22 1   
    18   13   23 1   
    19   14   15 1   
@<TRIPOS>SUBSTRUCTURE
     1 AMR         1 TEMP              0 ****  ****    0 ROOT
