@<TRIPOS>MOLECULE
AMR
   25    25     1     0     0
SMALL
bcc


@<TRIPOS>ATOM
      1 N1          0.0810   -0.0600   -0.0420 nb        1 AMR     -0.646000
      2 C1          1.4700   -0.0520    0.0520 ca        1 AMR      0.046500
      3 C3          2.2390   -0.2130   -1.1160 c         1 AMR      0.487600
      4 N5          1.4450   -0.4890   -2.4410 n4        1 AMR     -0.689800
      5 C6          1.9780    0.2900   -3.6010 c2        1 AMR      0.628100
      6 N7          3.3300   -0.1580   -4.0860 n4        1 AMR     -0.817600
      7 N6          1.4550    1.2880   -4.1990 n2        1 AMR     -0.623100
      8 O1          3.4610   -0.2010   -1.3240 o         1 AMR     -0.600100
      9 C2          2.1130    0.1140    1.3730 ca        1 AMR      0.756900
     10 N4          3.4530    0.1410    1.5190 nh        1 AMR     -0.880500
     11 N3          1.3410    0.2450    2.5030 nb        1 AMR     -0.809000
     12 C4         -0.0160    0.2240    2.3950 ca        1 AMR      0.696900
     13 N2         -0.7840    0.3430    3.4910 nh        1 AMR     -0.859500
     14 C5         -0.6480    0.0680    1.0330 ca        1 AMR      0.373000
     15 CL1        -2.3410    0.0650    0.9230 cl        1 AMR     -0.047000
     16 HN5         0.4480   -0.2460   -2.3040 hn        1 AMR      0.489300
     17 HN71        3.6590    0.4760   -4.8390 hn        1 AMR      0.508467
     18 HN72        4.0100   -0.1240   -3.2960 hn        1 AMR      0.508467
     19 HN6         0.5660    1.6860   -3.9570 hn        1 AMR      0.527400
     20 HN41        4.0590    0.0450    0.7340 hn        1 AMR      0.485300
     21 HN42        3.8670    0.2520    2.4240 hn        1 AMR      0.485300
     22 HN21       -0.3770    0.4460    4.4010 hn        1 AMR      0.490300
     23 HN22       -1.7790    0.3290    3.4180 hn        1 AMR      0.490300
     24 H52         1.4900   -1.4990   -2.6250 hn        1 AMR      0.489300
     25 H73         3.2760   -1.1140   -4.4600 hn        1 AMR      0.508467
@<TRIPOS>BOND
     1    1    2 ar  
     2    1   14 ar  
     3    2    3 1   
     4    2    9 ar  
     5    3    4 1   
     6    3    8 2   
     7    4    5 1   
     8    4   16 1   
     9    4   24 1   
    10    5    6 1   
    11    5    7 2   
    12    6   17 1   
    13    6   18 1   
    14    6   25 1   
    15    7   19 1   
    16    9   10 1   
    17    9   11 ar  
    18   10   20 1   
    19   10   21 1   
    20   11   12 ar  
    21   12   13 1   
    22   12   14 ar  
    23   13   22 1   
    24   13   23 1   
    25   14   15 1   
@<TRIPOS>SUBSTRUCTURE
     1 AMR         1 TEMP              0 ****  ****    0 ROOT
