@<TRIPOS>MOLECULE
AMR
   25    25     1     0     0
SMALL
bcc


@<TRIPOS>ATOM
      1 N1          0.0820   -0.0610   -0.0380 nb        1 AMR     -0.646000
      2 C1          1.4720   -0.0460    0.0530 ca        1 AMR      0.046500
      3 C3          2.2390   -0.2170   -1.1140 c         1 AMR      0.487600
      4 N5          1.4440   -0.5120   -2.4340 ny        1 AMR     -0.689800
      5 C6          1.9700    0.2570   -3.6040 c2        1 AMR      0.628100
      6 N7          3.3250   -0.1890   -4.0870 nz        1 AMR     -0.817600
      7 N6          1.4410    1.2460   -4.2120 n2        1 AMR     -0.623100
      8 O1          3.4610   -0.2020   -1.3250 o         1 AMR     -0.600100
      9 C2          2.1170    0.1380    1.3710 ca        1 AMR      0.756900
     10 N4          3.4570    0.1720    1.5140 nv        1 AMR     -0.880500
     11 N3          1.3450    0.2790    2.5000 nb        1 AMR     -0.809000
     12 C4         -0.0110    0.2520    2.3950 ca        1 AMR      0.696900
     13 N2         -0.7780    0.3810    3.4910 nv        1 AMR     -0.859500
     14 C5         -0.6450    0.0770    1.0360 ca        1 AMR      0.373000
     15 Cl1        -2.3380    0.0660    0.9290 cl        1 AMR     -0.047000
     16 HN5         0.4470   -0.2730   -2.2980 hn        1 AMR      0.489300
     17 HN71        4.0060   -0.1430   -3.2990 hn        1 AMR      0.508467
     18 HN72        3.2740   -1.1490   -4.4510 hn        1 AMR      0.508467
     19 HN6         0.5510    1.6410   -3.9730 hn        1 AMR      0.527400
     20 HN41        4.0610    0.0690    0.7300 hn        1 AMR      0.485300
     21 HN42        3.8720    0.2950    2.4170 hn        1 AMR      0.485300
     22 HN21       -1.7730    0.3620    3.4200 hn        1 AMR      0.490300
     23 HN22       -0.3690    0.4960    4.3990 hn        1 AMR      0.490300
     24 H52         1.4950   -1.5240   -2.6080 hn        1 AMR      0.489300
     25 H73         3.6490    0.4380   -4.8470 hn        1 AMR      0.508467
@<TRIPOS>BOND
     1    1    2 ar  
     2    1   14 ar  
     3    2    3 1   
     4    2    9 ar  
     5    3    4 1   
     6    3    8 2   
     7    4    5 1   
     8    4   16 1   
     9    4   24 1   
    10    5    6 1   
    11    5    7 2   
    12    6   17 1   
    13    6   18 1   
    14    6   25 1   
    15    7   19 1   
    16    9   10 1   
    17    9   11 ar  
    18   10   20 1   
    19   10   21 1   
    20   11   12 ar  
    21   12   13 1   
    22   12   14 ar  
    23   13   22 1   
    24   13   23 1   
    25   14   15 1   
@<TRIPOS>SUBSTRUCTURE
     1 AMR         1 TEMP              0 ****  ****    0 ROOT
