@<TRIPOS>MOLECULE
AMT
   11    11     1     0     0
SMALL
bcc


@<TRIPOS>ATOM
      1 S1         -0.0520    0.2270   -0.0120 ss        1 AMT      0.185700
      2 C2          1.6440    0.0420    0.0590 cc        1 AMT      0.272300
      3 N3          2.1470   -0.0680    1.3250 nd        1 AMT     -0.569000
      4 C4          1.1150    0.0040    2.2110 cd        1 AMT      0.366200
      5 C5         -0.1540    0.1660    1.6250 cc        1 AMT     -0.231400
      6 N           2.5270   -0.0030   -1.0900 n4        1 AMT     -0.766300
      7 H4          1.3250   -0.0670    3.2900 h4        1 AMT      0.093100
      8 H5         -1.0830    0.2400    2.2010 h4        1 AMT      0.228000
      9 HN1         3.0240   -0.9060   -1.1120 hn        1 AMT      0.473133
     10 HN2         3.2250    0.7530   -1.0230 hn        1 AMT      0.473133
     11 HN3         1.9820    0.1100   -1.9500 hn        1 AMT      0.473133
@<TRIPOS>BOND
     1    1    2 1   
     2    1    5 1   
     3    2    3 2   
     4    2    6 1   
     5    3    4 1   
     6    4    5 2   
     7    4    7 1   
     8    5    8 1   
     9    6    9 1   
    10    6   10 1   
    11    6   11 1   
@<TRIPOS>SUBSTRUCTURE
     1 AMT         1 TEMP              0 ****  ****    0 ROOT
