@<TRIPOS>MOLECULE
AMT
   10    10     1     0     0
SMALL
bcc


@<TRIPOS>ATOM
      1 S1         -0.0390   -0.1540   -0.0360 ss        1 AMT     -0.123300
      2 C2          1.7060   -0.0590    0.0650 cc        1 AMT      0.600300
      3 N3          2.1630    0.0600    1.3300 nd        1 AMT     -0.692000
      4 C4          1.0950    0.0670    2.2060 cd        1 AMT      0.357200
      5 C5         -0.1600   -0.0220    1.6270 cc        1 AMT     -0.269400
      6 N           2.4800   -0.2210   -1.0860 nv        1 AMT     -0.885500
      7 H4          1.3070    0.1530    3.2780 h4        1 AMT      0.043100
      8 H5         -1.1050   -0.0080    2.1630 h4        1 AMT      0.181000
      9 HN1         3.4660   -0.2420   -0.9120 hn        1 AMT      0.395300
     10 HN2         2.2440    0.4420   -1.7960 hn        1 AMT      0.395300
@<TRIPOS>BOND
     1    1    2 1   
     2    1    5 1   
     3    2    3 2   
     4    2    6 1   
     5    3    4 1   
     6    4    5 2   
     7    4    7 1   
     8    5    8 1   
     9    6    9 1   
    10    6   10 1   
@<TRIPOS>SUBSTRUCTURE
     1 AMT         1 TEMP              0 ****  ****    0 ROOT
