@<TRIPOS>MOLECULE
AMT
   10     7     1     0     0
SMALL
bcc


@<TRIPOS>ATOM
      1 S1         -1.0790   -0.0240   -0.5950 ss        1 AMT      0.461000
      2 C2          0.4640   -0.0240   -0.5950 c1        1 AMT     -0.170000
      3 N3          0.9030   -0.0240    0.7630 n2        1 AMT     -0.166000
      4 C4         -0.3610   -0.0240    1.6940 c1        1 AMT     -0.108000
      5 C5         -1.5380   -0.0240    0.8590 c1        1 AMT     -0.474000
      6 N           1.2980    0.0420   -1.7410 n2        1 AMT     -0.283000
      7 H4         -0.3520   -0.0240    2.6700 DU        1 AMT      0.180500
      8 H5         -2.4630   -0.0240    1.1700 DU        1 AMT      0.180500
      9 HN1         1.9590   -0.5750   -1.8610 hn        1 AMT      0.190500
     10 HN2         1.1690    0.6980   -2.3620 hn        1 AMT      0.190500
@<TRIPOS>BOND
     1    1    2 1   
     2    1    5 1   
     3    2    3 1   
     4    3    4 1   
     5    4    5 1   
     6    6    9 1   
     7    6   10 1   
@<TRIPOS>SUBSTRUCTURE
     1 AMT         1 TEMP              0 ****  ****    0 ROOT
