@<TRIPOS>MOLECULE
AMT
   10    10     1     0     0
SMALL
bcc


@<TRIPOS>ATOM
      1 S1         -1.1530   -0.2080   -0.2970 ss        1 AMT     -0.123300
      2 C2          0.1960   -0.0630    0.8090 cc        1 AMT      0.600300
      3 N3          1.3850    0.0950    0.1870 nd        1 AMT     -0.692000
      4 C4          1.1910    0.0900   -1.1810 cd        1 AMT      0.357200
      5 C5         -0.1200   -0.0450   -1.6040 cc        1 AMT     -0.269400
      6 N          -0.0080   -0.2260    2.1810 nh        1 AMT     -0.885500
      7 H4          2.0700    0.2040   -1.8270 h4        1 AMT      0.043100
      8 H5         -0.4540   -0.0470   -2.6380 h4        1 AMT      0.181000
      9 HN1         0.8360   -0.2170    2.7200 hn        1 AMT      0.395300
     10 HN2        -0.6840    0.4160    2.5420 hn        1 AMT      0.395300
@<TRIPOS>BOND
     1    1    2 1   
     2    1    5 1   
     3    2    3 2   
     4    2    6 1   
     5    3    4 1   
     6    4    5 2   
     7    4    7 1   
     8    5    8 1   
     9    6    9 1   
    10    6   10 1   
@<TRIPOS>SUBSTRUCTURE
     1 AMT         1 TEMP              0 ****  ****    0 ROOT
