@<TRIPOS>MOLECULE
AMT
   10    10     1     0     0
SMALL
bcc


@<TRIPOS>ATOM
      1 S1         -0.0390   -0.1710   -0.0320 ss        1 AMT     -0.123300
      2 C2          1.7050   -0.0570    0.0640 cc        1 AMT      0.600300
      3 N3          2.1640    0.0710    1.3280 nd        1 AMT     -0.692000
      4 C4          1.0990    0.0700    2.2060 cd        1 AMT      0.357200
      5 C5         -0.1570   -0.0350    1.6310 cc        1 AMT     -0.269400
      6 N           2.4780   -0.2140   -1.0880 nh        1 AMT     -0.885500
      7 H4          1.3120    0.1610    3.2780 h4        1 AMT      0.043100
      8 H5         -1.1010   -0.0300    2.1690 h4        1 AMT      0.181000
      9 HN1         2.2330    0.4450   -1.8000 hn        1 AMT      0.395300
     10 HN2         3.4640   -0.2240   -0.9170 hn        1 AMT      0.395300
@<TRIPOS>BOND
     1    1    2 1   
     2    1    5 1   
     3    2    3 2   
     4    2    6 1   
     5    3    4 1   
     6    4    5 2   
     7    4    7 1   
     8    5    8 1   
     9    6    9 1   
    10    6   10 1   
@<TRIPOS>SUBSTRUCTURE
     1 AMT         1 TEMP              0 ****  ****    0 ROOT
