@<TRIPOS>MOLECULE
AMU
   38    38     1     0     0
SMALL
bcc


@<TRIPOS>ATOM
      1 C1         -1.3780    0.7800   -1.7030 c3        1 AMU      0.334900
      2 C2         -0.8800    0.1150   -0.3870 c3        1 AMU      0.027700
      3 C3          0.6430    0.3860   -0.3190 c3        1 AMU      0.103100
      4 C4          1.2920   -0.2800   -1.5500 c3        1 AMU      0.106100
      5 C5          0.6710    0.2920   -2.8320 c3        1 AMU      0.111100
      6 C6          1.1630   -0.4690   -4.0650 c3        1 AMU      0.141400
      7 C7         -2.7420   -0.0940    1.1770 c         1 AMU      0.665100
      8 C8         -3.2410    0.1740    2.5730 c3        1 AMU     -0.179100
      9 C9          1.6650    0.6840    1.8450 c3        1 AMU      0.003100
     10 C10         0.9680    0.2990    3.1840 c         1 AMU      0.922600
     11 C11         3.1710    0.5610    1.9310 c3        1 AMU     -0.095100
     12 O1         -2.7250    0.5830   -1.9970 oh        1 AMU     -0.587800
     13 O3          1.2060   -0.2250    0.8280 os        1 AMU     -0.413600
     14 O4          2.6840   -0.0100   -1.5890 oh        1 AMU     -0.614800
     15 O5         -0.7460    0.1350   -2.8180 os        1 AMU     -0.467600
     16 O6          0.6470    0.0870   -5.2570 oh        1 AMU     -0.612800
     17 O7         -3.3660   -0.8410    0.3860 o         1 AMU     -0.672100
     18 O10         1.6120   -0.3550    4.0390 o         1 AMU     -0.828300
     19 O11        -0.2170    0.7250    3.3390 o         1 AMU     -0.828300
     20 N2         -1.5910    0.5730    0.7790 n         1 AMU     -0.536900
     21 H1         -1.1910    1.8880   -1.7310 h2        1 AMU      0.067700
     22 H2         -1.0360   -1.0020   -0.5080 h1        1 AMU      0.074700
     23 H3          0.8400    1.4930   -0.3470 h1        1 AMU      0.054700
     24 H4          1.1320   -1.3930   -1.5010 h1        1 AMU      0.059700
     25 H5          0.9250    1.3840   -2.9250 h1        1 AMU      0.055700
     26 H61         2.2780   -0.3720   -4.1400 h1        1 AMU      0.054700
     27 H62         0.8700   -1.5500   -3.9890 h1        1 AMU      0.054700
     28 H81        -4.0390   -0.5650    2.8220 hc        1 AMU      0.074700
     29 H82        -2.3990    0.0920    3.3110 hc        1 AMU      0.074700
     30 H83        -3.6640    1.2060    2.6280 hc        1 AMU      0.074700
     31 H9          1.3730    1.7410    1.5990 h1        1 AMU      0.030700
     32 H111        3.4500   -0.5050    2.1040 hc        1 AMU      0.032700
     33 H112        3.6600    0.9230    0.9940 hc        1 AMU      0.032700
     34 H113        3.5340    1.1630    2.7970 hc        1 AMU      0.032700
     35 HO1        -2.9850   -0.2920   -1.6660 ho        1 AMU      0.440000
     36 HO4         3.0140   -0.1910   -0.6950 ho        1 AMU      0.428000
     37 HO6        -0.3120    0.1420   -5.1480 ho        1 AMU      0.416000
     38 HN2        -1.0080    0.9250    1.5280 hn        1 AMU      0.364500
@<TRIPOS>BOND
     1    1    2 1   
     2    1   12 1   
     3    1   15 1   
     4    1   21 1   
     5    2    3 1   
     6    2   20 1   
     7    2   22 1   
     8    3    4 1   
     9    3   13 1   
    10    3   23 1   
    11    4    5 1   
    12    4   14 1   
    13    4   24 1   
    14    5    6 1   
    15    5   15 1   
    16    5   25 1   
    17    6   16 1   
    18    6   26 1   
    19    6   27 1   
    20    7    8 1   
    21    7   17 2   
    22    7   20 1   
    23    8   28 1   
    24    8   29 1   
    25    8   30 1   
    26    9   10 1   
    27    9   11 1   
    28    9   13 1   
    29    9   31 1   
    30   10   18 1   
    31   10   19 1   
    32   11   32 1   
    33   11   33 1   
    34   11   34 1   
    35   12   35 1   
    36   14   36 1   
    37   16   37 1   
    38   20   38 1   
@<TRIPOS>SUBSTRUCTURE
     1 AMU         1 TEMP              0 ****  ****    0 ROOT
