@<TRIPOS>MOLECULE
AMU
   38    37     1     0     0
SMALL
bcc


@<TRIPOS>ATOM
      1 C1         -1.9610    0.0630   -1.0150 c3        1 AMU      0.143000
      2 C2         -0.4540    0.0450   -1.0080 c3        1 AMU     -0.029000
      3 C3          0.1030   -0.0220    0.3650 c3        1 AMU     -0.022000
      4 C4         -0.4670    1.0340    1.2620 c3        1 AMU     -0.006000
      5 C5         -1.9800    1.0490    1.2440 c3        1 AMU      0.000000
      6 C6         -2.4630    2.2440    2.0190 c3        1 AMU     -0.009000
      7 C7          0.3760   -0.9850   -3.1410 c1        1 AMU      0.314000
      8 C8          0.7350   -2.2250   -3.9660 c2        1 AMU     -0.251000
      9 C9          2.2520   -0.6660    1.1890 c3        1 AMU     -0.040000
     10 C10         3.0350   -1.6970    0.4150 c2        1 AMU      0.305000
     11 C11         3.2110    0.1930    2.0060 c3        1 AMU     -0.194000
     12 O1         -2.4000    0.3000   -2.3070 oh        1 AMU     -0.314000
     13 O3          1.5410    0.1480    0.2970 os        1 AMU     -0.289000
     14 O4         -0.0210    0.7940    2.6060 oh        1 AMU     -0.340000
     15 O5         -2.5240    1.1120   -0.1140 os        1 AMU     -0.324000
     16 O6         -3.8550    2.3640    1.8730 oh        1 AMU     -0.341000
     17 O7          0.3030    0.0920   -3.6760 o         1 AMU     -0.433000
     18 O10         2.9280   -2.9190    0.7070 o         1 AMU     -0.570500
     19 O11         3.7600   -1.3420   -0.5560 o         1 AMU     -0.570500
     20 N2          0.0100   -1.1240   -1.7670 n3        1 AMU     -0.357000
     21 H1         -2.2920   -0.8200   -0.7220 h2        1 AMU      0.118000
     22 H2         -0.1270    0.8540   -1.4420 h1        1 AMU      0.123000
     23 H3         -0.0930   -0.8960    0.7430 h1        1 AMU      0.152000
     24 H4         -0.1410    1.9020    0.9720 h1        1 AMU      0.092000
     25 H5         -2.3050    0.2440    1.6750 h1        1 AMU      0.101000
     26 H61        -2.2410    2.1280    2.9730 h1        1 AMU      0.092500
     27 H62        -2.0290    3.0510    1.6780 h1        1 AMU      0.092500
     28 H81         0.7390   -3.0140   -3.3850 ha        1 AMU      0.112667
     29 H82         1.6230   -2.1080   -4.3630 ha        1 AMU      0.112667
     30 H83         0.0710   -2.3470   -4.6800 ha        1 AMU      0.112667
     31 H9          1.6270   -1.1140    1.7870 h1        1 AMU      0.059000
     32 H111        3.2960    1.0770    1.5880 hc        1 AMU      0.074667
     33 H112        4.0940   -0.2410    2.0380 hc        1 AMU      0.074667
     34 H113        2.8620    0.2940    2.9200 hc        1 AMU      0.074667
     35 HO1        -3.2350    0.0230   -2.3890 ho        1 AMU      0.226000
     36 HO4         0.1380    1.5710    3.0090 ho        1 AMU      0.220000
     37 HO6        -4.1780    2.8810    2.5230 ho        1 AMU      0.214000
     38 HN2         0.0670   -1.9440   -1.3570 hn        1 AMU      0.278000
@<TRIPOS>BOND
     1    1    2 1   
     2    1   12 1   
     3    1   15 1   
     4    1   21 1   
     5    2    3 1   
     6    2   20 1   
     7    2   22 1   
     8    3    4 1   
     9    3   13 1   
    10    3   23 1   
    11    4    5 1   
    12    4   14 1   
    13    4   24 1   
    14    5    6 1   
    15    5   15 1   
    16    5   25 1   
    17    6   16 1   
    18    6   26 1   
    19    6   27 1   
    20    7   17 1   
    21    7   20 1   
    22    8   28 1   
    23    8   29 1   
    24    8   30 1   
    25    9   10 1   
    26    9   11 1   
    27    9   13 1   
    28    9   31 1   
    29   10   18 1   
    30   10   19 1   
    31   11   32 1   
    32   11   33 1   
    33   11   34 1   
    34   12   35 1   
    35   14   36 1   
    36   16   37 1   
    37   20   38 1   
@<TRIPOS>SUBSTRUCTURE
     1 AMU         1 TEMP              0 ****  ****    0 ROOT
