@<TRIPOS>MOLECULE
AMV
   41    40     1     0     0
SMALL
bcc


@<TRIPOS>ATOM
      1 C1         -1.3540    0.1790   -0.9580 c3        1 AMV      0.157000
      2 C2          0.1540   -0.0460   -1.0560 c3        1 AMV      0.004000
      3 C3          0.8650    0.0060    0.3340 c3        1 AMV      0.006000
      4 C4          0.1110   -1.2150    0.9660 c3        1 AMV     -0.017000
      5 C5         -1.3880   -0.9930    1.0490 c3        1 AMV      0.008000
      6 C6         -1.7750   -0.5850    2.5290 c3        1 AMV     -0.015000
      7 C7          1.4090   -1.4740   -2.6540 c1        1 AMV      0.299000
      8 C8          1.5620   -2.8070   -3.4020 c2        1 AMV     -0.244000
      9 C9          1.7580    1.6870    1.5860 c3        1 AMV     -0.044000
     10 C10         2.4910    2.5260    0.5880 c2        1 AMV      0.309000
     11 C11         1.3090    2.5540    2.7390 c3        1 AMV     -0.202000
     12 O1         -1.6630    1.6040   -1.3420 os        1 AMV     -0.254000
     13 O3          0.6110    1.0910    0.9590 os        1 AMV     -0.266000
     14 O4          0.3530   -2.3330    0.1960 oh        1 AMV     -0.381000
     15 O5         -1.7740   -0.0320    0.2190 os        1 AMV     -0.323000
     16 O6         -2.8140   -1.4430    3.0020 oh        1 AMV     -0.345000
     17 O7          2.0620   -0.5220   -2.9890 o         1 AMV     -0.383000
     18 O11         3.7010    2.3020    0.3490 o         1 AMV     -0.571500
     19 N2          0.3890   -1.3250   -1.6500 n3        1 AMV     -0.370000
     20 C12        -2.8380    1.7460   -2.1560 c3        1 AMV     -0.061000
     21 OXT         1.9030    3.4990    0.0250 o         1 AMV     -0.571500
     22 H1         -1.8200   -0.4410   -1.5910 h2        1 AMV      0.077000
     23 H2          0.5500    0.6650   -1.6480 h1        1 AMV      0.154000
     24 H3          1.8520   -0.1640    0.2530 h1        1 AMV      0.126000
     25 HA         -0.1280   -2.0520   -1.4040 hn        1 AMV      0.241000
     26 H4          0.4720   -1.3760    1.9040 h1        1 AMV      0.137000
     27 H5         -1.8460   -1.8190    0.8170 h1        1 AMV      0.089000
     28 HB          0.5280   -3.0260    0.7250 ho        1 AMV      0.261000
     29 H6C1       -2.0870    0.3380    2.5400 h1        1 AMV      0.097500
     30 H6C2       -0.9890   -0.6730    3.1090 h1        1 AMV      0.097500
     31 H6         -3.0690   -1.1810    3.8090 ho        1 AMV      0.206000
     32 H8C1        0.6900   -3.2520   -3.4620 ha        1 AMV      0.099333
     33 H8C2        1.9100   -2.6340   -4.3190 ha        1 AMV      0.099333
     34 H8C3        2.1850   -3.3770   -2.9220 ha        1 AMV      0.099333
     35 H9          2.3590    0.9720    1.9230 h1        1 AMV      0.070000
     36 H111        0.5630    3.1090    2.4550 hc        1 AMV      0.071000
     37 H112        2.0430    3.1210    3.0230 hc        1 AMV      0.071000
     38 H113        1.0380    2.0050    3.4610 hc        1 AMV      0.071000
     39 H121       -3.3760    2.5310   -1.8350 h1        1 AMV      0.066333
     40 H122       -2.5770    1.8890   -3.0750 h1        1 AMV      0.066333
     41 H123       -3.3700    0.9440   -2.0940 h1        1 AMV      0.066333
@<TRIPOS>BOND
     1    1    2 1   
     2    1   12 1   
     3    1   15 1   
     4    1   22 1   
     5    2    3 1   
     6    2   19 1   
     7    2   23 1   
     8    3    4 1   
     9    3   13 1   
    10    3   24 1   
    11    4    5 1   
    12    4   14 1   
    13    4   26 1   
    14    5    6 1   
    15    5   15 1   
    16    5   27 1   
    17    6   16 1   
    18    6   29 1   
    19    6   30 1   
    20    7   17 1   
    21    7   19 1   
    22    8   32 1   
    23    8   33 1   
    24    8   34 1   
    25    9   10 1   
    26    9   11 1   
    27    9   13 1   
    28    9   35 1   
    29   10   18 1   
    30   10   21 1   
    31   11   36 1   
    32   11   37 1   
    33   11   38 1   
    34   12   20 1   
    35   14   28 1   
    36   16   31 1   
    37   19   25 1   
    38   20   39 1   
    39   20   40 1   
    40   20   41 1   
@<TRIPOS>SUBSTRUCTURE
     1 AMV         1 TEMP              0 ****  ****    0 ROOT
