@<TRIPOS>MOLECULE
AMV
   42    42     1     0     0
SMALL
bcc


@<TRIPOS>ATOM
      1 C1         -0.1500   -0.1540    0.1390 c3        1 AMV      0.319900
      2 C2          1.3950   -0.1700   -0.0550 c3        1 AMV      0.054700
      3 C3          2.0160   -0.1620    1.3650 c3        1 AMV      0.102100
      4 C4          1.4910    1.0580    2.1490 c3        1 AMV      0.109100
      5 C5         -0.0430    1.0490    2.1850 c3        1 AMV      0.108100
      6 C6         -0.5870    2.3430    2.7990 c3        1 AMV      0.140400
      7 C7          2.7060   -1.0880   -1.9280 c         1 AMV      0.657100
      8 C8          2.8490   -2.2120   -2.9200 c3        1 AMV     -0.176100
      9 C9          4.2100   -1.1190    1.6060 c3        1 AMV      0.050100
     10 C10         5.5360   -0.9750    0.8800 c         1 AMV      0.631100
     11 C11         4.4210   -1.1850    3.1070 c3        1 AMV     -0.122100
     12 O1         -0.7380    0.0340   -1.1280 os        1 AMV     -0.411600
     13 O3          3.4280    0.0300    1.2660 os        1 AMV     -0.429600
     14 O4          1.9380    0.9950    3.4920 oh        1 AMV     -0.595800
     15 O5         -0.5610    1.0010    0.8550 os        1 AMV     -0.443600
     16 O6         -1.9920    2.3000    2.9060 oh        1 AMV     -0.592800
     17 O7          3.3790   -0.0430   -2.0140 o         1 AMV     -0.598100
     18 O11         5.6600   -0.1370   -0.1750 oh        1 AMV     -0.567100
     19 N2          1.8320   -1.2850   -0.8580 n         1 AMV     -0.553900
     20 C12        -2.1610    0.0070   -1.1170 c3        1 AMV      0.120700
     21 OXT         6.5570   -1.6020    1.1680 o         1 AMV     -0.505000
     22 H1         -0.5280   -1.0860    0.6470 h2        1 AMV      0.039700
     23 H2          1.6980    0.7950   -0.5670 h1        1 AMV      0.118700
     24 H3          1.7700   -1.1060    1.9210 h1        1 AMV      0.064700
     25 HA          1.1870   -2.0380   -0.9380 hn        1 AMV      0.301500
     26 H4          1.8640    2.0010    1.6600 h1        1 AMV      0.071700
     27 H5         -0.4120    0.1590    2.7650 h1        1 AMV      0.067700
     28 HB          2.9060    0.9960    3.4560 ho        1 AMV      0.422000
     29 H6C1       -0.2630    3.2240    2.1850 h1        1 AMV      0.066700
     30 H6C2       -0.2040    2.4360    3.8510 h1        1 AMV      0.066700
     31 H6         -2.3410    2.2220    2.0090 ho        1 AMV      0.409000
     32 H8C1        1.8900   -2.3610   -3.4730 hc        1 AMV      0.072033
     33 H8C2        3.1270   -3.1640   -2.4060 hc        1 AMV      0.072033
     34 H8C3        3.6520   -1.9460   -3.6500 hc        1 AMV      0.072033
     35 H9          3.7150   -2.0590    1.2320 h1        1 AMV      0.076700
     36 H111        3.4410   -1.3200    3.6240 hc        1 AMV      0.059700
     37 H112        4.8910   -0.2410    3.4750 hc        1 AMV      0.059700
     38 H113        5.0970   -2.0400    3.3500 hc        1 AMV      0.059700
     39 H121       -2.5280   -0.9810   -0.7450 h1        1 AMV      0.043367
     40 H122       -2.5640    0.8340   -0.4840 h1        1 AMV      0.043367
     41 H123       -2.4380    0.1570   -2.1900 h1        1 AMV      0.043367
     42 H22         4.8070    0.2830   -0.3910 ho        1 AMV      0.467000
@<TRIPOS>BOND
     1    1    2 1   
     2    1   12 1   
     3    1   15 1   
     4    1   22 1   
     5    2    3 1   
     6    2   19 1   
     7    2   23 1   
     8    3    4 1   
     9    3   13 1   
    10    3   24 1   
    11    4    5 1   
    12    4   14 1   
    13    4   26 1   
    14    5    6 1   
    15    5   15 1   
    16    5   27 1   
    17    6   16 1   
    18    6   29 1   
    19    6   30 1   
    20    7    8 1   
    21    7   17 2   
    22    7   19 1   
    23    8   32 1   
    24    8   33 1   
    25    8   34 1   
    26    9   10 1   
    27    9   11 1   
    28    9   13 1   
    29    9   35 1   
    30   10   18 1   
    31   10   21 2   
    32   11   36 1   
    33   11   37 1   
    34   11   38 1   
    35   12   20 1   
    36   14   28 1   
    37   16   31 1   
    38   18   42 1   
    39   19   25 1   
    40   20   39 1   
    41   20   40 1   
    42   20   41 1   
@<TRIPOS>SUBSTRUCTURE
     1 AMV         1 TEMP              0 ****  ****    0 ROOT
