@<TRIPOS>MOLECULE
AMV
   41    41     1     0     0
SMALL
bcc


@<TRIPOS>ATOM
      1 C1          4.6220   -1.3380    0.4060 c3        1 AMV      0.323900
      2 C2          3.5960   -0.5990    1.3170 c3        1 AMV      0.083700
      3 C3          3.4820    0.8420    0.7450 c3        1 AMV      0.075100
      4 C4          4.8780    1.4900    0.7720 c3        1 AMV      0.104100
      5 C5          5.8320    0.6640   -0.0990 c3        1 AMV      0.113100
      6 C6          7.2630    1.1980   -0.0090 c3        1 AMV      0.139400
      7 C7          1.7490   -1.6680    2.5470 c         1 AMV      0.669100
      8 C8          0.2820   -2.0190    2.4940 c3        1 AMV     -0.190100
      9 C9          1.4780    2.1640    0.9350 c3        1 AMV      0.019100
     10 C10         0.5620    1.0460    0.3820 c         1 AMV      0.889600
     11 C11         0.7860    3.0010    1.9890 c3        1 AMV     -0.073100
     12 O1          4.9710   -2.5590    1.0220 os        1 AMV     -0.386600
     13 O3          2.6480    1.6270    1.5840 os        1 AMV     -0.427600
     14 O4          4.8490    2.8080    0.2440 oh        1 AMV     -0.614800
     15 O5          5.8900   -0.6790    0.3740 os        1 AMV     -0.470600
     16 O6          8.1520    0.4480   -0.8120 oh        1 AMV     -0.613800
     17 O7          2.4030   -1.7600    3.6090 o         1 AMV     -0.644100
     18 O11        -0.5120    0.7700    0.9810 o         1 AMV     -0.836800
     19 N2          2.3330   -1.2860    1.3480 n         1 AMV     -0.542900
     20 C12         5.6700   -3.4470    0.1650 c3        1 AMV      0.120700
     21 OXT         0.9560    0.4430   -0.6630 o         1 AMV     -0.836800
     22 H1          4.2380   -1.4760   -0.6430 h2        1 AMV      0.047700
     23 H2          4.0240   -0.5570    2.3620 h1        1 AMV      0.104700
     24 H3          3.0860    0.8090   -0.3110 h1        1 AMV      0.111700
     25 HA          1.7100   -1.0630    0.5910 hn        1 AMV      0.349500
     26 H4          5.2580    1.5340    1.8310 h1        1 AMV      0.055700
     27 H5          5.4810    0.6690   -1.1680 h1        1 AMV      0.059700
     28 HB          4.0290    3.2090    0.5670 ho        1 AMV      0.423000
     29 H6C1        7.6100    1.1840    1.0580 h1        1 AMV      0.055200
     30 H6C2        7.2940    2.2440   -0.4140 h1        1 AMV      0.055200
     31 H6          8.0340   -0.4790   -0.5670 ho        1 AMV      0.410000
     32 H8C1       -0.0660   -2.2810    3.5210 hc        1 AMV      0.072367
     33 H8C2       -0.3030   -1.1380    2.1100 hc        1 AMV      0.072367
     34 H8C3        0.1130   -2.8870    1.8150 hc        1 AMV      0.072367
     35 H9          1.8210    2.8060    0.0760 h1        1 AMV      0.018700
     36 H111        0.4260    2.3410    2.8150 hc        1 AMV      0.035033
     37 H112       -0.0970    3.5010    1.5240 hc        1 AMV      0.035033
     38 H113        1.4780    3.7680    2.4070 hc        1 AMV      0.035033
     39 H121        5.8620   -4.3470    0.8010 h1        1 AMV      0.028367
     40 H122        6.6320   -2.9920   -0.1750 h1        1 AMV      0.028367
     41 H123        5.0420   -3.7180   -0.7190 h1        1 AMV      0.028367
@<TRIPOS>BOND
     1    1    2 1   
     2    1   12 1   
     3    1   15 1   
     4    1   22 1   
     5    2    3 1   
     6    2   19 1   
     7    2   23 1   
     8    3    4 1   
     9    3   13 1   
    10    3   24 1   
    11    4    5 1   
    12    4   14 1   
    13    4   26 1   
    14    5    6 1   
    15    5   15 1   
    16    5   27 1   
    17    6   16 1   
    18    6   29 1   
    19    6   30 1   
    20    7    8 1   
    21    7   17 2   
    22    7   19 1   
    23    8   32 1   
    24    8   33 1   
    25    8   34 1   
    26    9   10 1   
    27    9   11 1   
    28    9   13 1   
    29    9   35 1   
    30   10   18 1   
    31   10   21 1   
    32   11   36 1   
    33   11   37 1   
    34   11   38 1   
    35   12   20 1   
    36   14   28 1   
    37   16   31 1   
    38   19   25 1   
    39   20   39 1   
    40   20   40 1   
    41   20   41 1   
@<TRIPOS>SUBSTRUCTURE
     1 AMV         1 TEMP              0 ****  ****    0 ROOT
