@<TRIPOS>MOLECULE
AMV
   42    42     1     0     0
SMALL
bcc


@<TRIPOS>ATOM
      1 C1         -0.1370   -0.1770    0.0520 c3        1 AMV      0.317900
      2 C2          1.4130   -0.2070   -0.1040 c3        1 AMV      0.052700
      3 C3          2.0030   -0.1500    1.3280 c3        1 AMV      0.103100
      4 C4          1.4570    1.0950    2.0600 c3        1 AMV      0.105100
      5 C5         -0.0800    1.0640    2.0730 c3        1 AMV      0.148100
      6 C6         -0.6490    2.3530    2.6700 c3        1 AMV      0.135400
      7 C7          2.7600   -1.1980   -1.9120 c         1 AMV      0.657100
      8 C8          2.9150   -2.3560   -2.8630 c3        1 AMV     -0.176100
      9 C9          4.1930   -1.0920    1.6470 c3        1 AMV      0.050100
     10 C10         5.5360   -0.9620    0.9520 c         1 AMV      0.631100
     11 C11         4.3650   -1.1150    3.1540 c3        1 AMV     -0.122100
     12 O1         -0.6910   -0.0220   -1.2340 os        1 AMV     -0.413600
     13 O3          3.4160    0.0440    1.2540 os        1 AMV     -0.430600
     14 O4          1.8920    1.0900    3.4080 oh        1 AMV     -0.595800
     15 O5         -0.5550    1.0000    0.7270 os        1 AMV     -0.427600
     16 O6         -1.9250    2.0290    3.1990 oh        1 AMV     -0.599800
     17 O7          3.4460   -0.1620   -2.0190 o         1 AMV     -0.600100
     18 O11         5.6810   -0.1600   -0.1290 oh        1 AMV     -0.567100
     19 N2          1.8630   -1.3530   -0.8560 ns        1 AMV     -0.552900
     20 C12        -2.1140   -0.0180   -1.2560 c3        1 AMV      0.119700
     21 OXT         6.5550   -1.5680    1.2880 o         1 AMV     -0.506000
     22 H1         -0.5320   -1.0930    0.5750 h2        1 AMV      0.039700
     23 H2          1.7330    0.7380   -0.6430 h1        1 AMV      0.117700
     24 H3          1.7470   -1.0750    1.9090 h1        1 AMV      0.064700
     25 HA          4.8300    0.2420   -0.3830 ho        1 AMV      0.468000
     26 H4          1.8230    2.0230    1.5390 h1        1 AMV      0.069700
     27 H5         -0.4490    0.1740    2.6540 h1        1 AMV      0.075700
     28 HB          2.8600    1.0800    3.3810 ho        1 AMV      0.421000
     29 H6C1        0.0280    2.7020    3.4960 h1        1 AMV      0.050700
     30 H6C2       -0.7360    3.1420    1.8770 h1        1 AMV      0.050700
     31 H6         -2.3420    2.8640    3.4390 ho        1 AMV      0.406000
     32 H8C1        1.9690   -2.5120   -3.4360 hc        1 AMV      0.071700
     33 H8C2        3.1680   -3.2940   -2.3110 hc        1 AMV      0.071700
     34 H8C3        3.7410   -2.1240   -3.5800 hc        1 AMV      0.071700
     35 H9          3.7100   -2.0430    1.2860 h1        1 AMV      0.077700
     36 H111        5.0340   -1.9640    3.4380 hc        1 AMV      0.059367
     37 H112        4.8270   -0.1620    3.5070 hc        1 AMV      0.059367
     38 H113        3.3720   -1.2360    3.6500 hc        1 AMV      0.059367
     39 H121       -2.3630    0.0990   -2.3400 h1        1 AMV      0.044700
     40 H122       -2.5140    0.8380   -0.6610 h1        1 AMV      0.044700
     41 H123       -2.5100   -0.9850   -0.8590 h1        1 AMV      0.044700
     42 H22         1.2120   -2.1020   -0.9270 hn        1 AMV      0.301500
@<TRIPOS>BOND
     1    1    2 1   
     2    1   12 1   
     3    1   15 1   
     4    1   22 1   
     5    2    3 1   
     6    2   19 1   
     7    2   23 1   
     8    3    4 1   
     9    3   13 1   
    10    3   24 1   
    11    4    5 1   
    12    4   14 1   
    13    4   26 1   
    14    5    6 1   
    15    5   15 1   
    16    5   27 1   
    17    6   16 1   
    18    6   29 1   
    19    6   30 1   
    20    7    8 1   
    21    7   17 2   
    22    7   19 1   
    23    8   32 1   
    24    8   33 1   
    25    8   34 1   
    26    9   10 1   
    27    9   11 1   
    28    9   13 1   
    29    9   35 1   
    30   10   18 1   
    31   10   21 2   
    32   11   36 1   
    33   11   37 1   
    34   11   38 1   
    35   12   20 1   
    36   14   28 1   
    37   16   31 1   
    38   18   25 1   
    39   19   42 1   
    40   20   39 1   
    41   20   40 1   
    42   20   41 1   
@<TRIPOS>SUBSTRUCTURE
     1 AMV         1 TEMP              0 ****  ****    0 ROOT
