@<TRIPOS>MOLECULE
AMV
   42    42     1     0     0
SMALL
bcc


@<TRIPOS>ATOM
      1 C1         -0.1520   -0.1610    0.1430 c3        1 AMV      0.319900
      2 C2          1.3920   -0.1750   -0.0540 c3        1 AMV      0.054700
      3 C3          2.0170   -0.1570    1.3640 c3        1 AMV      0.102100
      4 C4          1.4910    1.0690    2.1410 c3        1 AMV      0.109100
      5 C5         -0.0420    1.0570    2.1810 c3        1 AMV      0.108100
      6 C6         -0.5870    2.3540    2.7880 c3        1 AMV      0.140400
      7 C7          2.7000   -1.1030   -1.9230 c         1 AMV      0.657100
      8 C8          2.8430   -2.2350   -2.9090 c3        1 AMV     -0.176100
      9 C9          4.2130   -1.1080    1.6070 c3        1 AMV      0.050100
     10 C10         5.5370   -0.9660    0.8770 c         1 AMV      0.631100
     11 C11         4.4270   -1.1630    3.1070 c3        1 AMV     -0.122100
     12 O1         -0.7440    0.0170   -1.1230 os        1 AMV     -0.411600
     13 O3          3.4280    0.0380    1.2600 os        1 AMV     -0.429600
     14 O4          1.9420    1.0150    3.4830 oh        1 AMV     -0.595800
     15 O5         -0.5640    0.9990    0.8520 os        1 AMV     -0.443600
     16 O6         -1.9910    2.3090    2.8980 oh        1 AMV     -0.592800
     17 O7          3.3720   -0.0580   -2.0180 o         1 AMV     -0.598100
     18 O11         5.6570   -0.1360   -0.1850 oh        1 AMV     -0.567100
     19 N2          1.8290   -1.2950   -0.8510 n         1 AMV     -0.553900
     20 C12        -2.1670   -0.0110   -1.1090 c3        1 AMV      0.120700
     21 OXT         6.5600   -1.5890    1.1670 o         1 AMV     -0.505000
     22 H1         -0.5270   -1.0890    0.6590 h2        1 AMV      0.039700
     23 H2          1.6930    0.7870   -0.5730 h1        1 AMV      0.118700
     24 H3          1.7740   -1.0970    1.9270 h1        1 AMV      0.064700
     25 HA          4.8030    0.2820   -0.4020 ho        1 AMV      0.467000
     26 H4          1.8620    2.0090    1.6450 h1        1 AMV      0.071700
     27 H5         -0.4090    0.1700    2.7680 h1        1 AMV      0.067700
     28 HB          2.9090    1.0170    3.4450 ho        1 AMV      0.422000
     29 H6C1       -0.2660    3.2310    2.1660 h1        1 AMV      0.066700
     30 H6C2       -0.2020    2.4550    3.8380 h1        1 AMV      0.066700
     31 H6         -2.3430    2.2240    2.0020 ho        1 AMV      0.409000
     32 H8C1        3.6460   -1.9730   -3.6410 hc        1 AMV      0.072033
     33 H8C2        3.1210   -3.1830   -2.3890 hc        1 AMV      0.072033
     34 H8C3        1.8830   -2.3860   -3.4600 hc        1 AMV      0.072033
     35 H9          3.7180   -2.0510    1.2400 h1        1 AMV      0.076700
     36 H111        5.1050   -2.0150    3.3550 hc        1 AMV      0.059700
     37 H112        3.4480   -1.2970    3.6280 hc        1 AMV      0.059700
     38 H113        4.8960   -0.2160    3.4680 hc        1 AMV      0.059700
     39 H121       -2.4470    0.1310   -2.1830 h1        1 AMV      0.043367
     40 H122       -2.5700    0.8190   -0.4800 h1        1 AMV      0.043367
     41 H123       -2.5310   -0.9970   -0.7290 h1        1 AMV      0.043367
     42 H22         1.1860   -2.0500   -0.9240 hn        1 AMV      0.301500
@<TRIPOS>BOND
     1    1    2 1   
     2    1   12 1   
     3    1   15 1   
     4    1   22 1   
     5    2    3 1   
     6    2   19 1   
     7    2   23 1   
     8    3    4 1   
     9    3   13 1   
    10    3   24 1   
    11    4    5 1   
    12    4   14 1   
    13    4   26 1   
    14    5    6 1   
    15    5   15 1   
    16    5   27 1   
    17    6   16 1   
    18    6   29 1   
    19    6   30 1   
    20    7    8 1   
    21    7   17 2   
    22    7   19 1   
    23    8   32 1   
    24    8   33 1   
    25    8   34 1   
    26    9   10 1   
    27    9   11 1   
    28    9   13 1   
    29    9   35 1   
    30   10   18 1   
    31   10   21 2   
    32   11   36 1   
    33   11   37 1   
    34   11   38 1   
    35   12   20 1   
    36   14   28 1   
    37   16   31 1   
    38   18   25 1   
    39   19   42 1   
    40   20   39 1   
    41   20   40 1   
    42   20   41 1   
@<TRIPOS>SUBSTRUCTURE
     1 AMV         1 TEMP              0 ****  ****    0 ROOT
