@<TRIPOS>MOLECULE
AMY
   76    77     1     0     0
SMALL
bcc


@<TRIPOS>ATOM
      1 C1         -1.2420   -0.1500   -5.3710 ca        1 AMY      0.145100
      2 C2         -1.3390    0.4860   -6.6540 ca        1 AMY      0.034600
      3 C3         -0.2880    1.3290   -7.0520 ca        1 AMY     -0.111000
      4 C5          0.8940    0.9300   -4.9780 ca        1 AMY     -0.100000
      5 O5          2.2390   -1.5310    0.4730 os        1 AMY     -0.426900
      6 C6         -0.1410    0.0930   -4.5350 ca        1 AMY     -0.202600
      7 C7         -0.0600   -0.5570   -3.2000 c         1 AMY      0.692700
      8 C9          0.5980   -0.3320   -0.8280 c3        1 AMY      0.000700
      9 O9         -1.7980   -1.6640    4.9070 o         1 AMY     -0.539000
     10 C11        -0.9020   -1.3380    1.5740 c3        1 AMY      0.126100
     11 C12        -0.1430   -1.1230    2.9000 c3        1 AMY      0.128100
     12 C13         1.2890   -0.6170    2.6470 c3        1 AMY     -0.153700
     13 C14         2.0130   -1.6510    1.8250 c         1 AMY      0.708600
     14 C4          0.8140    1.5360   -6.2210 ca        1 AMY     -0.141000
     15 N1         -2.4620    0.2360   -7.4580 n         1 AMY     -0.472100
     16 N2          0.5200    0.1710   -2.1740 n         1 AMY     -0.549900
     17 O1         -2.2980   -0.9560   -5.0180 oh        1 AMY     -0.525100
     18 O2         -2.0860    1.6580   -9.2630 o         1 AMY     -0.590100
     19 O3         -0.4820   -1.7170   -2.9960 o         1 AMY     -0.626100
     20 C10         2.0380   -0.2970   -0.2240 c3        1 AMY      0.143100
     21 O4         -1.1880   -0.0650    0.9780 os        1 AMY     -0.400900
     22 C15         2.0300   -0.3960    3.9600 c3        1 AMY     -0.074400
     23 C16         3.3400    0.3300    3.7440 c3        1 AMY     -0.083400
     24 C17         4.0690    0.5340    5.0540 c3        1 AMY     -0.077400
     25 C18         5.3800    1.2630    4.8440 c3        1 AMY     -0.080400
     26 C19         6.1100    1.4700    6.1460 c3        1 AMY     -0.093100
     27 C20        -0.3180    0.4940    0.0820 c         1 AMY      0.683600
     28 O7         -0.4220    1.7210    0.0320 o         1 AMY     -0.574500
     29 O8         -0.7920   -0.0970    3.6590 os        1 AMY     -0.424900
     30 C21        -1.6310   -0.4650    4.6830 c         1 AMY      0.639100
     31 C22        -2.1980    0.7270    5.3900 c3        1 AMY     -0.125400
     32 C23        -3.6370    0.4850    5.8250 c3        1 AMY     -0.065700
     33 C24        -4.0460    1.5340    6.8380 c3        1 AMY     -0.093600
     34 C25        -4.5710    0.5030    4.6330 c3        1 AMY     -0.093600
     35 C26         3.1460   -0.2590   -1.2640 c3        1 AMY     -0.093100
     36 C27        -2.2480   -2.0000    1.8080 c3        1 AMY     -0.099100
     37 H3         -0.3210    1.8360   -8.0330 ha        1 AMY      0.182000
     38 H5          1.7830    1.0950   -4.3500 ha        1 AMY      0.137000
     39 H8         -3.7430    0.4350   -9.0800 h5        1 AMY      0.036200
     40 H9          0.2570   -1.4140   -0.8510 h1        1 AMY      0.130700
     41 H11        -0.2690   -1.9800    0.9030 h1        1 AMY      0.066700
     42 H12        -0.1190   -2.0930    3.4710 h1        1 AMY      0.108700
     43 H13         1.2100    0.3680    2.1100 hc        1 AMY      0.084700
     44 H4          1.6290    2.1910   -6.5670 ha        1 AMY      0.144000
     45 HN1        -3.1130   -0.4190   -7.0770 hn        1 AMY      0.336500
     46 HN2         0.7030    1.1400   -2.3040 hn        1 AMY      0.332500
     47 HO1        -2.0210   -1.5680   -4.3160 ho        1 AMY      0.465000
     48 H10         2.1470    0.5870    0.4610 h1        1 AMY      0.062700
     49 H151        2.2190   -1.3890    4.4490 hc        1 AMY      0.067200
     50 H152        1.3720    0.2050    4.6420 hc        1 AMY      0.067200
     51 H161        3.1480    1.3250    3.2610 hc        1 AMY      0.042200
     52 H162        3.9850   -0.2650    3.0430 hc        1 AMY      0.042200
     53 H171        4.2650   -0.4600    5.5350 hc        1 AMY      0.043700
     54 H172        3.4220    1.1210    5.7580 hc        1 AMY      0.043700
     55 H181        5.1830    2.2560    4.3610 hc        1 AMY      0.039200
     56 H182        6.0260    0.6740    4.1390 hc        1 AMY      0.039200
     57 H191        7.0730    2.0070    5.9690 hc        1 AMY      0.034033
     58 H192        5.4930    2.0750    6.8530 hc        1 AMY      0.034033
     59 H193        6.3370    0.4890    6.6310 hc        1 AMY      0.034033
     60 H221       -1.5500    0.9140    6.2890 hc        1 AMY      0.083700
     61 H222       -2.1370    1.6260    4.7220 hc        1 AMY      0.083700
     62 H23        -3.6930   -0.5310    6.3100 hc        1 AMY      0.070700
     63 H241       -5.1050    1.3690    7.1510 hc        1 AMY      0.039700
     64 H242       -3.3960    1.4800    7.7440 hc        1 AMY      0.039700
     65 H243       -3.9620    2.5580    6.4000 hc        1 AMY      0.039700
     66 H251       -4.5640    1.5040    4.1380 hc        1 AMY      0.039700
     67 H252       -4.2550   -0.2650    3.8850 hc        1 AMY      0.039700
     68 H253       -5.6140    0.2750    4.9580 hc        1 AMY      0.039700
     69 H261        4.1310   -0.3940   -0.7550 hc        1 AMY      0.057700
     70 H262        3.0200   -1.0830   -2.0060 hc        1 AMY      0.057700
     71 H263        3.1400    0.7250   -1.7900 hc        1 AMY      0.057700
     72 H271       -2.7800   -2.1390    0.8380 hc        1 AMY      0.060033
     73 H272       -2.0900   -2.9910    2.2970 hc        1 AMY      0.060033
     74 H273       -2.8760   -1.3630    2.4780 hc        1 AMY      0.060033
     75 O6          2.4390   -2.7290    2.2420 o         1 AMY     -0.558500
     76 C8         -2.7760    0.8160   -8.6700 c         1 AMY      0.667900
@<TRIPOS>BOND
     1    1    2 ar  
     2    1    6 ar  
     3    1   17 1   
     4    2    3 ar  
     5    2   15 1   
     6    3   14 ar  
     7    3   37 1   
     8    4    6 ar  
     9    4   14 ar  
    10    4   38 1   
    11    5   13 1   
    12    5   20 1   
    13    6    7 1   
    14    7   16 1   
    15    7   19 2   
    16    8   16 1   
    17    8   20 1   
    18    8   27 1   
    19    8   40 1   
    20    9   30 2   
    21   10   11 1   
    22   10   21 1   
    23   10   36 1   
    24   10   41 1   
    25   11   12 1   
    26   11   29 1   
    27   11   42 1   
    28   12   13 1   
    29   12   22 1   
    30   12   43 1   
    31   13   75 2   
    32   14   44 1   
    33   15   45 1   
    34   15   76 1   
    35   16   46 1   
    36   17   47 1   
    37   18   76 2   
    38   20   35 1   
    39   20   48 1   
    40   21   27 1   
    41   22   23 1   
    42   22   49 1   
    43   22   50 1   
    44   23   24 1   
    45   23   51 1   
    46   23   52 1   
    47   24   25 1   
    48   24   53 1   
    49   24   54 1   
    50   25   26 1   
    51   25   55 1   
    52   25   56 1   
    53   26   57 1   
    54   26   58 1   
    55   26   59 1   
    56   27   28 2   
    57   29   30 1   
    58   30   31 1   
    59   31   32 1   
    60   31   60 1   
    61   31   61 1   
    62   32   33 1   
    63   32   34 1   
    64   32   62 1   
    65   33   63 1   
    66   33   64 1   
    67   33   65 1   
    68   34   66 1   
    69   34   67 1   
    70   34   68 1   
    71   35   69 1   
    72   35   70 1   
    73   35   71 1   
    74   36   72 1   
    75   36   73 1   
    76   36   74 1   
    77   39   76 1   
@<TRIPOS>SUBSTRUCTURE
     1 AMY         1 TEMP              0 ****  ****    0 ROOT
