@<TRIPOS>MOLECULE
AMY
   76    73     1     0     0
SMALL
bcc


@<TRIPOS>ATOM
      1 C1          4.6930    4.2160    3.2830 c1        1 AMY      0.105000
      2 C2          6.0780    4.2920    3.3900 c1        1 AMY      0.039000
      3 C3          6.8840    3.5680    2.5160 c1        1 AMY     -0.111000
      4 C5          4.9160    2.6930    1.4280 c1        1 AMY     -0.122000
      5 O5          0.3050    1.2290   -1.0690 os        1 AMY     -0.303000
      6 C6          4.1120    3.4130    2.2970 c1        1 AMY     -0.185000
      7 C7          2.6010    3.4330    2.0920 c2        1 AMY      0.366000
      8 C8          8.0300    4.9000    4.8460 c1        1 AMY      0.269000
      9 C9          0.6360    2.7340    0.7770 c3        1 AMY      0.018000
     10 O9         -4.4280   -2.3910   -0.2480 o         1 AMY     -0.339000
     11 C11        -1.8020    0.0100    1.0520 c3        1 AMY      0.036000
     12 C12        -2.2140   -0.8420   -0.1380 c3        1 AMY      0.034000
     13 C13        -1.2810   -0.6090   -1.3250 c3        1 AMY     -0.098000
     14 C14        -1.0360    0.9140   -1.4000 c2        1 AMY      0.337000
     15 C4          6.3060    2.7700    1.5360 c1        1 AMY     -0.122000
     16 N1          6.6840    5.1560    4.3920 n2        1 AMY     -0.325000
     17 N2          2.0090    2.6060    1.0800 n         1 AMY     -0.363000
     18 O1          3.8820    4.8920    4.2040 oh        1 AMY     -0.277000
     19 O2          8.6580    3.9630    4.3900 o         1 AMY     -0.353000
     20 O3          1.9180    4.2450    2.6880 o         1 AMY     -0.387000
     21 C10         0.4320    2.5960   -0.7010 c3        1 AMY      0.062000
     22 O4         -1.2490    1.2460    0.6220 os        1 AMY     -0.296000
     23 O6         -1.8540    1.7210   -1.7860 o         1 AMY     -0.330000
     24 C15        -1.8250   -1.2020   -2.6490 c3        1 AMY     -0.157000
     25 C16        -0.6580   -1.5350   -3.5770 c3        1 AMY     -0.161000
     26 C17        -1.1940   -1.7850   -5.0140 c3        1 AMY     -0.156000
     27 C18        -0.0680   -2.3700   -5.8880 c3        1 AMY     -0.159000
     28 C19        -0.5660   -2.5170   -7.3420 c3        1 AMY     -0.211000
     29 C20        -0.1290    1.6060    1.4120 c2        1 AMY      0.303000
     30 O7          0.1510    1.0990    2.4810 o         1 AMY     -0.324000
     31 O8         -2.1700   -2.2080    0.2300 os        1 AMY     -0.279000
     32 C21        -3.4790   -2.8170    0.3870 c2        1 AMY      0.307000
     33 C22        -3.6850   -3.9620    1.4170 c3        1 AMY     -0.154000
     34 C23        -4.9490   -4.7620    1.0510 c3        1 AMY     -0.101000
     35 C24        -4.6690   -6.2570    1.2080 c3        1 AMY     -0.215000
     36 C25        -6.0770   -4.3660    1.9630 c3        1 AMY     -0.215000
     37 C26        -0.8230    3.3370   -1.0980 c3        1 AMY     -0.248000
     38 C27        -0.7790   -0.7340    1.8630 c3        1 AMY     -0.247000
     39 H3          7.8530    3.6210    2.5910 ha        1 AMY      0.181000
     40 H5          4.5090    2.1310    0.7380 ha        1 AMY      0.140500
     41 H8          8.4560    5.5090    5.4980 ha        1 AMY      0.128000
     42 H9          0.4490    3.6250    1.1440 h1        1 AMY      0.168000
     43 H11        -2.5930    0.1870    1.6130 h1        1 AMY      0.121000
     44 H12        -3.1330   -0.6080   -0.3990 h1        1 AMY      0.135000
     45 H13        -0.4430   -1.1000   -1.2220 hc        1 AMY      0.129000
     46 H4          6.8730    2.2620    0.9230 ha        1 AMY      0.140500
     47 HN1         6.1900    5.8200    4.7810 hn        1 AMY      0.251000
     48 HN2         2.5140    1.9900    0.6460 hn        1 AMY      0.242000
     49 HO1         3.9390    4.4920    4.9990 ho        1 AMY      0.265000
     50 H10         1.1980    2.9860   -1.1700 h1        1 AMY      0.114000
     51 H151       -2.4100   -0.5490   -3.0820 hc        1 AMY      0.103000
     52 H152       -2.3310   -2.0160   -2.4560 hc        1 AMY      0.103000
     53 H161       -0.2030   -2.3400   -3.2540 hc        1 AMY      0.083500
     54 H162       -0.0250   -0.7850   -3.5900 hc        1 AMY      0.083500
     55 H171       -1.9400   -2.4160   -4.9790 hc        1 AMY      0.080500
     56 H172       -1.5000   -0.9420   -5.3990 hc        1 AMY      0.080500
     57 H181        0.7040   -1.7700   -5.8670 hc        1 AMY      0.079000
     58 H182        0.1920   -3.2500   -5.5400 hc        1 AMY      0.079000
     59 H191        0.1050   -3.0120   -7.8720 hc        1 AMY      0.072667
     60 H192       -0.7010   -1.6270   -7.7340 hc        1 AMY      0.072667
     61 H193       -1.4180   -3.0120   -7.3490 hc        1 AMY      0.072667
     62 H221       -2.9110   -4.5550    1.4040 hc        1 AMY      0.120500
     63 H222       -3.7890   -3.5810    2.3130 hc        1 AMY      0.120500
     64 H23        -5.1970   -4.5730    0.1260 hc        1 AMY      0.098000
     65 H241       -5.4940   -6.7650    1.0340 hc        1 AMY      0.081000
     66 H242       -3.9770   -6.5280    0.5690 hc        1 AMY      0.081000
     67 H243       -4.3600   -6.4370    2.1200 hc        1 AMY      0.081000
     68 H251       -6.9010   -4.8010    1.6690 hc        1 AMY      0.081000
     69 H252       -5.8700   -4.6440    2.8780 hc        1 AMY      0.081000
     70 H253       -6.1920   -3.4010    1.9350 hc        1 AMY      0.081000
     71 H261       -0.9510    3.2680   -2.0650 hc        1 AMY      0.104667
     72 H262       -0.7390    4.2790   -0.8460 hc        1 AMY      0.104667
     73 H263       -1.5920    2.9450   -0.6400 hc        1 AMY      0.104667
     74 H271        0.0520   -0.8040    1.3540 hc        1 AMY      0.099000
     75 H272       -1.1130   -1.6290    2.0660 hc        1 AMY      0.099000
     76 H273       -0.6110   -0.2520    2.6960 hc        1 AMY      0.099000
@<TRIPOS>BOND
     1    1    6 1   
     2    1   18 1   
     3    2    3 1   
     4    2   16 1   
     5    3   39 1   
     6    4   15 1   
     7    4   40 1   
     8    5   14 1   
     9    5   21 1   
    10    6    7 1   
    11    7   17 1   
    12    7   20 1   
    13    8   19 1   
    14    8   41 1   
    15    9   17 1   
    16    9   21 1   
    17    9   29 1   
    18    9   42 1   
    19   10   32 1   
    20   11   12 1   
    21   11   22 1   
    22   11   38 1   
    23   11   43 1   
    24   12   13 1   
    25   12   31 1   
    26   12   44 1   
    27   13   14 1   
    28   13   24 1   
    29   13   45 1   
    30   14   23 1   
    31   15   46 1   
    32   16   47 1   
    33   17   48 1   
    34   18   49 1   
    35   21   37 1   
    36   21   50 1   
    37   22   29 1   
    38   24   25 1   
    39   24   51 1   
    40   24   52 1   
    41   25   26 1   
    42   25   53 1   
    43   25   54 1   
    44   26   27 1   
    45   26   55 1   
    46   26   56 1   
    47   27   28 1   
    48   27   57 1   
    49   27   58 1   
    50   28   59 1   
    51   28   60 1   
    52   28   61 1   
    53   29   30 1   
    54   31   32 1   
    55   32   33 1   
    56   33   34 1   
    57   33   62 1   
    58   33   63 1   
    59   34   35 1   
    60   34   36 1   
    61   34   64 1   
    62   35   65 1   
    63   35   66 1   
    64   35   67 1   
    65   36   68 1   
    66   36   69 1   
    67   36   70 1   
    68   37   71 1   
    69   37   72 1   
    70   37   73 1   
    71   38   74 1   
    72   38   75 1   
    73   38   76 1   
@<TRIPOS>SUBSTRUCTURE
     1 AMY         1 TEMP              0 ****  ****    0 ROOT
