@<TRIPOS>MOLECULE
AMY
   76    73     1     0     0
SMALL
bcc


@<TRIPOS>ATOM
      1 C1          1.3760   -0.2100    0.6340 c2        1 AMY      0.051000
      2 C2          2.0840    0.2960   -0.4230 c2        1 AMY     -0.017000
      3 C3          2.4370    1.7200   -0.4370 c2        1 AMY     -0.479000
      4 C5          1.7200    1.2530    2.5930 c2        1 AMY     -0.141000
      5 O5         -5.5690   -2.6720    1.4610 o         1 AMY     -0.303000
      6 C6          0.9030    0.5950    1.7650 c2        1 AMY     -0.135000
      7 C7         -0.5800    0.5740    1.9750 c2        1 AMY      0.342000
      8 C9         -4.5280   -0.5120    1.5830 c3        1 AMY     -0.250000
      9 O9        -10.1770    1.4270    4.3780 o         1 AMY     -0.342000
     10 C11        -7.4200    0.5390    1.6670 c3        1 AMY      0.072000
     11 C12        -8.1200    0.3950    2.9930 c2        1 AMY     -0.020000
     12 C13        -8.7270   -0.7260    3.3960 c2        1 AMY     -0.232000
     13 C14        -8.1020   -2.9180    0.6920 c1        1 AMY      0.179000
     14 C4          1.9410    2.6350   -1.2450 c1        1 AMY      0.253000
     15 N1          2.4660   -0.5000   -1.5270 n3        1 AMY     -0.283000
     16 N2         -1.2270    1.7600    2.1630 n         1 AMY     -0.410000
     17 O1          1.0870   -1.5580    0.6340 oh        1 AMY     -0.260000
     18 O2          4.6050    0.3470   -2.0670 oh        1 AMY     -0.235000
     19 O3         -1.2110   -0.5100    1.9890 o         1 AMY     -0.413000
     20 C10        -4.9310   -1.8510    2.1210 c2        1 AMY      0.204000
     21 O4         -6.1990    1.2890    1.7670 os        1 AMY     -0.236000
     22 C15       -10.8430   -3.4260    2.8660 c3        1 AMY     -0.215000
     23 C16       -10.3310   -3.9400    4.1870 c3        1 AMY     -0.158000
     24 C17       -11.3620   -3.7790    5.2820 c3        1 AMY     -0.189000
     25 C18       -10.8470   -4.2840    6.6130 c3        1 AMY     -0.254000
     26 C19       -11.7250   -4.1840    7.7560 c1        1 AMY     -0.057000
     27 C20        -5.1410    0.6070    2.3760 cx        1 AMY      0.131000
     28 O7         -4.2570    1.6210    2.8670 os        1 AMY     -0.272000
     29 O8         -8.0080    1.5450    3.7760 os        1 AMY     -0.229000
     30 C21        -9.1110    2.0380    4.4400 c2        1 AMY      0.338000
     31 C22        -8.7920    3.2900    5.1560 cx        1 AMY     -0.194000
     32 C23        -9.8840    4.3340    5.2880 cx        1 AMY     -0.123000
     33 C24        -9.4510    3.5430    6.4880 cx        1 AMY     -0.180000
     34 C25        -9.5230    5.7720    5.1640 c3        1 AMY     -0.193000
     35 C26        -4.9330    0.8070    3.8440 cx        1 AMY     -0.101000
     36 C27        -8.2780    1.3170    0.6820 c3        1 AMY     -0.208000
     37 H3          3.1710    2.0310    0.3360 ha        1 AMY      0.192000
     38 H5          2.8130    1.2260    2.4780 ha        1 AMY      0.130500
     39 H8          4.5240    0.9960   -1.3420 ho        1 AMY      0.177000
     40 H9         -2.2150    1.7710    2.2830 hn        1 AMY      0.244000
     41 H11        -4.8300   -0.4100    0.5060 hc        1 AMY      0.149500
     42 H12        -7.1940   -0.4950    1.2700 h1        1 AMY      0.111000
     43 H13        -8.7290   -1.6290    2.7650 ha        1 AMY      0.144500
     44 H4          1.3510    1.8390    3.4470 ha        1 AMY      0.130500
     45 HN1         1.8520   -1.2700   -1.7110 hn        1 AMY      0.263000
     46 HN2        -0.7440    2.6180    2.0920 hn        1 AMY      0.244000
     47 HO1         0.3180   -1.7090    1.2120 ho        1 AMY      0.256000
     48 H10        -3.4030   -0.4340    1.6370 hc        1 AMY      0.149500
     49 H151      -10.0600   -3.5390    2.0750 hc        1 AMY      0.074667
     50 H152       -9.2850   -0.7950    4.3390 ha        1 AMY      0.144500
     51 H161      -11.1080   -2.3420    2.9450 hc        1 AMY      0.074667
     52 H162      -11.7520   -3.9900    2.5460 hc        1 AMY      0.074667
     53 H171      -10.0500   -5.0220    4.0910 hc        1 AMY      0.077000
     54 H172       -9.3990   -3.3770    4.4670 hc        1 AMY      0.077000
     55 H181      -11.6420   -2.6940    5.3720 hc        1 AMY      0.084500
     56 H182      -12.2940   -4.3370    5.0040 hc        1 AMY      0.084500
     57 H191       -9.8950   -3.7400    6.8910 hc        1 AMY      0.144500
     58 H192      -10.5570   -5.3740    6.5290 hc        1 AMY      0.144500
     59 H193      -12.7250   -3.7570    7.5770 ha        1 AMY      0.036000
     60 H221      -11.8200   -0.3230    4.9210 ha        1 AMY      0.002000
     61 H222      -11.5650   -0.5830    4.3490 ha        1 AMY      0.002000
     62 H23        -7.7470    3.6260    4.9980 hc        1 AMY      0.155000
     63 H241      -10.1380    2.7770    6.8930 hc        1 AMY      0.124500
     64 H242      -10.8720    4.0880    4.8440 hc        1 AMY      0.139000
     65 H243       -8.8540    4.0350    7.2770 hc        1 AMY      0.124500
     66 H251       -8.5290    5.9850    5.6270 hc        1 AMY      0.083667
     67 H252      -10.2930    6.4020    5.6740 hc        1 AMY      0.083667
     68 H253       -9.4810    6.0670    4.0870 hc        1 AMY      0.083667
     69 H261       -4.6020   -2.0660    3.1630 h4        1 AMY      0.098000
     70 H262       -5.6980    1.3470    4.4330 h1        1 AMY      0.131500
     71 H263       -4.2700    0.1320    4.4150 h1        1 AMY      0.131500
     72 H271       -7.7450    1.4080   -0.2940 hc        1 AMY      0.093333
     73 H272       -9.2440    0.7790    0.5320 hc        1 AMY      0.093333
     74 H273       -8.4820    2.3410    1.0750 hc        1 AMY      0.093333
     75 O6         -7.8560   -3.8820    0.0770 o         1 AMY     -0.179000
     76 C8          3.6030   -0.4910   -2.2500 c1        1 AMY      0.091000
@<TRIPOS>BOND
     1    1    2 1   
     2    1    6 1   
     3    1   17 1   
     4    2    3 1   
     5    2   15 1   
     6    3   14 1   
     7    3   37 1   
     8    4    6 1   
     9    4   38 1   
    10    4   44 1   
    11    5   20 1   
    12    6    7 1   
    13    7   16 1   
    14    7   19 1   
    15    8   20 1   
    16    8   27 1   
    17    8   41 1   
    18    8   48 1   
    19    9   30 1   
    20   10   11 1   
    21   10   21 1   
    22   10   36 1   
    23   10   42 1   
    24   11   12 1   
    25   11   29 1   
    26   12   43 1   
    27   12   50 1   
    28   13   75 1   
    29   15   45 1   
    30   15   76 1   
    31   16   40 1   
    32   16   46 1   
    33   17   47 1   
    34   18   39 1   
    35   18   76 1   
    36   20   69 1   
    37   21   27 1   
    38   22   23 1   
    39   22   49 1   
    40   22   51 1   
    41   22   52 1   
    42   23   24 1   
    43   23   53 1   
    44   23   54 1   
    45   24   25 1   
    46   24   55 1   
    47   24   56 1   
    48   25   26 1   
    49   25   57 1   
    50   25   58 1   
    51   26   59 1   
    52   27   28 1   
    53   27   35 1   
    54   28   35 1   
    55   29   30 1   
    56   30   31 1   
    57   31   32 1   
    58   31   33 1   
    59   31   62 1   
    60   32   33 1   
    61   32   34 1   
    62   32   64 1   
    63   33   63 1   
    64   33   65 1   
    65   34   66 1   
    66   34   67 1   
    67   34   68 1   
    68   35   70 1   
    69   35   71 1   
    70   36   72 1   
    71   36   73 1   
    72   36   74 1   
    73   60   61 1   
@<TRIPOS>SUBSTRUCTURE
     1 AMY         1 TEMP              0 ****  ****    0 ROOT
