@<TRIPOS>MOLECULE
AMZ
   35    36     1     0     0
SMALL
bcc


@<TRIPOS>ATOM
      1 O5         -0.1130    0.6460    6.1250 o         1 AMZ     -0.696100
      2 C6          0.9360    0.5510    5.4360 c         1 AMZ      0.621600
      3 N2          2.1490    0.8150    6.0400 n         1 AMZ     -0.669000
      4 C3A         0.9200    0.1610    4.0330 cc        1 AMZ      0.121800
      5 C7A        -0.2580   -0.2240    3.3070 cd        1 AMZ      0.111000
      6 N3         -1.5360   -0.4340    3.7910 nh        1 AMZ     -0.809200
      7 N1          2.0320    0.1440    3.1690 nc        1 AMZ     -0.681000
      8 C5          1.5600   -0.2200    1.9690 cd        1 AMZ      0.429400
      9 N           0.1720   -0.4630    1.9920 na        1 AMZ     -0.229900
     10 C1         -0.6920   -0.8700    0.8970 c3        1 AMZ      0.220800
     11 C2         -1.7520    0.2110    0.4980 c3        1 AMZ      0.089100
     12 C3         -1.6650    0.2900   -1.0410 c3        1 AMZ      0.136100
     13 O2         -2.8930   -0.1320   -1.5890 oh        1 AMZ     -0.692800
     14 O1         -3.0010   -0.1650    1.0350 oh        1 AMZ     -0.640800
     15 O           0.1010   -1.1710   -0.2410 os        1 AMZ     -0.437600
     16 C          -0.5280   -0.6630   -1.4480 c3        1 AMZ      0.066100
     17 C4          0.5470   -0.0030   -2.3480 c3        1 AMZ      0.237400
     18 O3          0.2880   -0.2650   -3.6630 os        1 AMZ     -0.557200
     19 P          -0.4710    1.0590   -4.5130 p5        1 AMZ      1.336900
     20 OP1        -0.6500    0.5290   -5.9000 o         1 AMZ     -0.930500
     21 O4         -1.7200    1.1600   -3.6550 o         1 AMZ     -0.930500
     22 OP2         0.5140    2.1680   -4.2860 o         1 AMZ     -0.930500
     23 H11         2.1500    1.2000    6.9490 hn        1 AMZ      0.302000
     24 H12         2.9750    0.8660    5.5010 hn        1 AMZ      0.302000
     25 H9         -1.6830    0.0190    4.6720 hn        1 AMZ      0.426300
     26 H10        -2.2730   -0.3160    3.1240 hn        1 AMZ      0.426300
     27 H13         2.1260   -0.3300    1.0330 h5        1 AMZ      0.090100
     28 H2         -1.2150   -1.8200    1.2250 h2        1 AMZ      0.059700
     29 H3         -1.5170    1.2110    0.9530 h1        1 AMZ      0.064700
     30 H4         -1.4460    1.3440   -1.3750 h1        1 AMZ      0.123700
     31 H5         -2.8800    0.1870   -2.5260 ho        1 AMZ      0.519000
     32 H1         -3.5360   -0.5420    0.3220 ho        1 AMZ      0.441000
     33 H6         -0.9500   -1.5620   -1.9750 h1        1 AMZ      0.073700
     34 H7          0.5790    1.1060   -2.1510 h1        1 AMZ      0.001700
     35 H8          1.5400   -0.4570   -2.0550 h1        1 AMZ      0.001700
@<TRIPOS>BOND
     1    1    2 2   
     2    2    3 1   
     3    2    4 1   
     4    3   23 1   
     5    3   24 1   
     6    4    5 2   
     7    4    7 1   
     8    5    6 1   
     9    5    9 1   
    10    6   25 1   
    11    6   26 1   
    12    7    8 2   
    13    8    9 1   
    14    8   27 1   
    15    9   10 1   
    16   10   11 1   
    17   10   15 1   
    18   10   28 1   
    19   11   12 1   
    20   11   14 1   
    21   11   29 1   
    22   12   13 1   
    23   12   16 1   
    24   12   30 1   
    25   13   31 1   
    26   14   32 1   
    27   15   16 1   
    28   16   17 1   
    29   16   33 1   
    30   17   18 1   
    31   17   34 1   
    32   17   35 1   
    33   18   19 1   
    34   19   20 1   
    35   19   21 1   
    36   19   22 1   
@<TRIPOS>SUBSTRUCTURE
     1 AMZ         1 TEMP              0 ****  ****    0 ROOT
