@<TRIPOS>MOLECULE
AMZ
   35    32     1     0     0
SMALL
bcc


@<TRIPOS>ATOM
      1 O5          2.9780   -2.9290    3.4830 o         1 AMZ     -0.445000
      2 C6          1.7480   -3.1710    3.3930 c1        1 AMZ      0.402000
      3 N2          1.1080   -4.0840    4.3460 n2        1 AMZ     -0.382500
      4 C3A         0.9210   -2.4470    2.3840 c2        1 AMZ     -0.347000
      5 C7A         1.3850   -1.8780    1.2380 c1        1 AMZ      0.217000
      6 N3          2.7650   -1.9780    0.7240 n2        1 AMZ     -0.382500
      7 N1         -0.3910   -2.1470    2.4970 n2        1 AMZ     -0.132000
      8 C5         -0.7460   -1.3890    1.4190 c1        1 AMZ     -0.117000
      9 N           0.3510   -1.2230    0.6440 n2        1 AMZ     -0.216000
     10 C1          0.4280   -0.4370   -0.5610 c2        1 AMZ      0.135000
     11 C2         -0.5090   -0.8100   -1.4100 c3        1 AMZ     -0.017000
     12 C3         -0.8980    0.4940   -2.1770 c3        1 AMZ      0.021000
     13 O2         -0.4120    0.4580   -3.4330 oh        1 AMZ     -0.415000
     14 O1          0.0030   -1.8030   -2.3250 oh        1 AMZ     -0.355000
     15 O           0.1510    1.1420   -0.2390 os        1 AMZ     -0.300000
     16 C          -0.2410    1.6760   -1.3710 c3        1 AMZ     -0.057000
     17 C4         -1.2710    2.7750   -1.1110 c3        1 AMZ      0.081000
     18 O3         -0.6020    4.0800   -1.1000 os        1 AMZ     -0.713000
     19 P          -1.4780    5.3540   -0.9040 p5        1 AMZ      1.567500
     20 OP1        -0.7020    6.3830   -0.1660 o         1 AMZ     -0.926833
     21 O4         -1.8970    5.9180   -2.2870 o         1 AMZ     -0.926833
     22 OP2        -2.7390    4.9830   -0.1020 o         1 AMZ     -0.926833
     23 H11         1.5910   -4.3770    5.1320 hn        1 AMZ      0.236000
     24 H12         0.2750   -4.2910    4.2490 hn        1 AMZ      0.236000
     25 H9          2.9700   -1.6420   -0.0900 hn        1 AMZ      0.236000
     26 H10         3.4150   -2.2840    1.2550 hn        1 AMZ      0.236000
     27 H13        -1.5950   -0.9970    1.2730 DU        1 AMZ      0.189000
     28 H2          1.2940   -0.5390   -0.9650 h4        1 AMZ      0.099000
     29 H3         -1.2810   -1.1610   -0.9280 h1        1 AMZ      0.106000
     30 H4         -1.8370    0.5960   -2.1940 h1        1 AMZ      0.158000
     31 H5         -1.0900    0.5420   -4.0210 ho        1 AMZ      0.318000
     32 H1         -0.6620   -2.2720   -2.6480 ho        1 AMZ      0.233000
     33 H6          0.6110    2.0730   -1.9170 h1        1 AMZ      0.111000
     34 H7         -1.6910    2.6240   -0.2670 h1        1 AMZ      0.038000
     35 H8         -1.9520    2.7610   -1.8200 h1        1 AMZ      0.038000
@<TRIPOS>BOND
     1    1    2 1   
     2    2    4 1   
     3    3   23 1   
     4    3   24 1   
     5    4    5 1   
     6    4    7 1   
     7    5    9 1   
     8    6   25 1   
     9    6   26 1   
    10    7    8 1   
    11    8    9 1   
    12   10   11 1   
    13   10   15 1   
    14   10   28 1   
    15   11   12 1   
    16   11   14 1   
    17   11   29 1   
    18   12   13 1   
    19   12   16 1   
    20   12   30 1   
    21   13   31 1   
    22   14   32 1   
    23   15   16 1   
    24   16   17 1   
    25   16   33 1   
    26   17   18 1   
    27   17   34 1   
    28   17   35 1   
    29   18   19 1   
    30   19   20 1   
    31   19   21 1   
    32   19   22 1   
@<TRIPOS>SUBSTRUCTURE
     1 AMZ         1 TEMP              0 ****  ****    0 ROOT
