@<TRIPOS>MOLECULE
AN0
   24    23     1     0     0
SMALL
bcc


@<TRIPOS>ATOM
      1 CA          1.7740    0.6130   -0.0350 c3        1 AN0     -0.053500
      2 C           0.2120    0.9690   -0.1000 c         1 AN0      0.929600
      3 O          -0.5540    0.0020    0.0280 o         1 AN0     -0.761800
      4 OXT        -0.0490    2.1880   -0.2950 o         1 AN0     -0.761800
      5 CB          2.0990    0.0810    1.3490 c3        1 AN0     -0.098400
      6 CG          3.4710   -0.5490    1.4430 c3        1 AN0     -0.089400
      7 CD          3.6860   -1.1820    2.7950 c3        1 AN0     -0.093100
      8 N1          2.5740    1.8400   -0.3820 n4        1 AN0     -0.668800
      9 C1          2.9430    1.8920   -1.8280 c         1 AN0      0.564100
     10 O1          4.1450    1.9570   -2.0730 o         1 AN0     -0.480100
     11 C2          1.8220    1.8710   -2.8100 c3        1 AN0     -0.193100
     12 HA          1.9830   -0.1740   -0.8090 hx        1 AN0      0.085700
     13 HB1         1.3080   -0.6930    1.5700 hc        1 AN0      0.085200
     14 HB2         1.9880    0.8870    2.1210 hc        1 AN0      0.085200
     15 HG1         3.5820   -1.3290    0.6430 hc        1 AN0      0.032200
     16 HG2         4.2700    0.2200    1.2670 hc        1 AN0      0.032200
     17 HD1         3.5960   -0.4200    3.6060 hc        1 AN0      0.040700
     18 HD2         2.9270   -1.9810    2.9780 hc        1 AN0      0.040700
     19 HD3         4.7030   -1.6400    2.8500 hc        1 AN0      0.040700
     20 HN1         3.4070    1.9090    0.2040 hn        1 AN0      0.461800
     21 H21         0.8590    2.2520   -2.3670 hc        1 AN0      0.113700
     22 H22         1.6570    0.8120   -3.1410 hc        1 AN0      0.113700
     23 H23         2.1070    2.4900   -3.6970 hc        1 AN0      0.113700
     24 H12         1.9270    2.6420   -0.1870 hn        1 AN0      0.461800
@<TRIPOS>BOND
     1    1    2 1   
     2    1    5 1   
     3    1    8 1   
     4    1   12 1   
     5    2    3 1   
     6    2    4 1   
     7    5    6 1   
     8    5   13 1   
     9    5   14 1   
    10    6    7 1   
    11    6   15 1   
    12    6   16 1   
    13    7   17 1   
    14    7   18 1   
    15    7   19 1   
    16    8    9 1   
    17    8   20 1   
    18    8   24 1   
    19    9   10 2   
    20    9   11 1   
    21   11   21 1   
    22   11   22 1   
    23   11   23 1   
@<TRIPOS>SUBSTRUCTURE
     1 AN0         1 TEMP              0 ****  ****    0 ROOT
