@<TRIPOS>MOLECULE
AN0
   23    22     1     0     0
SMALL
bcc


@<TRIPOS>ATOM
      1 CA          0.2100   -0.4250   -0.0930 c3        1 AN0     -0.046300
      2 C          -0.0450   -1.9260    0.3100 c         1 AN0      0.910600
      3 O          -0.8790   -2.1750    1.2260 o         1 AN0     -0.833800
      4 OXT         0.6110   -2.7930   -0.3260 o         1 AN0     -0.833800
      5 CB          1.6640   -0.0870    0.2560 c3        1 AN0     -0.069400
      6 CG          2.1610    1.1400   -0.4770 c3        1 AN0     -0.085400
      7 CD          3.5550    1.5180   -0.0470 c3        1 AN0     -0.085100
      8 N1         -0.7500    0.4620    0.5320 n         1 AN0     -0.516900
      9 C1         -1.3450    1.5130   -0.1110 c         1 AN0      0.638100
     10 O1         -0.9170    2.0000   -1.1860 o         1 AN0     -0.662100
     11 C2         -2.5430    2.1480    0.5710 c3        1 AN0     -0.176100
     12 HA          0.0940   -0.3540   -1.2140 h1        1 AN0      0.059700
     13 HB1         2.2840   -0.9780   -0.0330 hc        1 AN0      0.046700
     14 HB2         1.7750    0.0590    1.3610 hc        1 AN0      0.046700
     15 HG1         1.4600    1.9980   -0.3010 hc        1 AN0      0.043700
     16 HG2         2.1500    0.9400   -1.5820 hc        1 AN0      0.043700
     17 HD1         3.5780    1.7650    1.0420 hc        1 AN0      0.017033
     18 HD2         4.2650    0.6750   -0.2280 hc        1 AN0      0.017033
     19 HD3         3.9130    2.4090   -0.6170 hc        1 AN0      0.017033
     20 HN1        -1.2480    0.0290    1.2860 hn        1 AN0      0.323500
     21 H21        -2.2740    2.4940    1.5970 hc        1 AN0      0.048700
     22 H22        -2.8800    3.0240   -0.0320 hc        1 AN0      0.048700
     23 H23        -3.3780    1.4110    0.6440 hc        1 AN0      0.048700
@<TRIPOS>BOND
     1    1    2 1   
     2    1    5 1   
     3    1    8 1   
     4    1   12 1   
     5    2    3 1   
     6    2    4 1   
     7    5    6 1   
     8    5   13 1   
     9    5   14 1   
    10    6    7 1   
    11    6   15 1   
    12    6   16 1   
    13    7   17 1   
    14    7   18 1   
    15    7   19 1   
    16    8    9 1   
    17    8   20 1   
    18    9   10 2   
    19    9   11 1   
    20   11   21 1   
    21   11   22 1   
    22   11   23 1   
@<TRIPOS>SUBSTRUCTURE
     1 AN0         1 TEMP              0 ****  ****    0 ROOT
