@<TRIPOS>MOLECULE
AN0
   23    22     1     0     0
SMALL
bcc


@<TRIPOS>ATOM
      1 CA         -0.4730   -0.1930   -0.2530 c3        1 AN0     -0.041300
      2 C          -1.9820   -0.1140   -0.2890 c         1 AN0      0.910600
      3 O          -2.6550   -1.0980   -0.6950 o         1 AN0     -0.833800
      4 OXT        -2.5670    0.9330    0.0930 o         1 AN0     -0.833800
      5 CB         -0.0030   -0.2000    1.1850 c3        1 AN0     -0.060400
      6 CG          0.3630   -1.6120    1.5890 c3        1 AN0     -0.095400
      7 CD          0.9380   -1.6030    2.9880 c3        1 AN0     -0.082100
      8 N1          0.0770    0.9310   -0.9250 n         1 AN0     -0.522900
      9 C1         -0.0050    1.0220   -2.3380 c         1 AN0      0.641100
     10 O1         -0.5410    0.1370   -2.9740 o         1 AN0     -0.661100
     11 C2          0.5830    2.2180   -3.0540 c3        1 AN0     -0.176100
     12 HA         -0.1780   -1.0130   -0.6960 h1        1 AN0      0.062700
     13 HB1        -0.7190    0.1290    1.7640 hc        1 AN0      0.026700
     14 HB2         0.7810    0.3780    1.2740 hc        1 AN0      0.026700
     15 HG1        -0.4370   -2.1740    1.5690 hc        1 AN0      0.062200
     16 HG2         1.0270   -1.9670    0.9650 hc        1 AN0      0.062200
     17 HD1         1.7410   -1.0410    3.0070 hc        1 AN0      0.015033
     18 HD2         0.2740   -1.2440    3.6120 hc        1 AN0      0.015033
     19 HD3         1.1730   -2.5170    3.2510 hc        1 AN0      0.015033
     20 HN1         0.4720    1.6000   -0.4470 hn        1 AN0      0.325500
     21 H21         0.4870    2.0990   -4.0220 hc        1 AN0      0.048033
     22 H22         0.1100    3.0300   -2.7770 hc        1 AN0      0.048033
     23 H23         1.5330    2.2990   -2.8280 hc        1 AN0      0.048033
@<TRIPOS>BOND
     1    1    2 1   
     2    1    5 1   
     3    1    8 1   
     4    1   12 1   
     5    2    3 1   
     6    2    4 1   
     7    5    6 1   
     8    5   13 1   
     9    5   14 1   
    10    6    7 1   
    11    6   15 1   
    12    6   16 1   
    13    7   17 1   
    14    7   18 1   
    15    7   19 1   
    16    8    9 1   
    17    8   20 1   
    18    9   10 2   
    19    9   11 1   
    20   11   21 1   
    21   11   22 1   
    22   11   23 1   
@<TRIPOS>SUBSTRUCTURE
     1 AN0         1 TEMP              0 ****  ****    0 ROOT
