@<TRIPOS>MOLECULE
AN0
   24    23     1     0     0
SMALL
bcc


@<TRIPOS>ATOM
      1 CA          1.7710    0.6030   -0.0210 c3        1 AN0     -0.053500
      2 C           0.2030    0.9380   -0.0570 c         1 AN0      0.929600
      3 O          -0.5480   -0.0360    0.1110 o         1 AN0     -0.762300
      4 OXT        -0.0780    2.1490   -0.2710 o         1 AN0     -0.762300
      5 CB          2.1340    0.1040    1.3660 c3        1 AN0     -0.098400
      6 CG          3.5170   -0.5060    1.4410 c3        1 AN0     -0.089400
      7 CD          3.7710   -1.1070    2.8000 c3        1 AN0     -0.093100
      8 N1          2.5460    1.8310   -0.4140 ny        1 AN0     -0.668800
      9 C1          2.8800    1.8560   -1.8690 c         1 AN0      0.564100
     10 O1          4.0740    1.9310   -2.1440 o         1 AN0     -0.480100
     11 C2          1.7360    1.8000   -2.8230 c3        1 AN0     -0.193100
     12 HA          1.9710   -0.1990   -0.7830 hx        1 AN0      0.085700
     13 HB1         2.0320    0.9260    2.1230 hc        1 AN0      0.085200
     14 HB2         1.3590   -0.6740    1.6220 hc        1 AN0      0.085200
     15 HG1         4.3010    0.2690    1.2300 hc        1 AN0      0.032200
     16 HG2         3.6190   -1.3010    0.6550 hc        1 AN0      0.032200
     17 HD1         3.6890   -0.3300    3.5970 hc        1 AN0      0.040700
     18 HD2         4.7950   -1.5510    2.8410 hc        1 AN0      0.040700
     19 HD3         3.0270   -1.9120    3.0180 hc        1 AN0      0.040700
     20 HN1         3.3930    1.9230    0.1510 hn        1 AN0      0.461800
     21 H21         0.7800    2.1800   -2.3660 hc        1 AN0      0.113700
     22 H22         1.9920    2.4030   -3.7300 hc        1 AN0      0.113700
     23 H23         1.5760    0.7320   -3.1260 hc        1 AN0      0.113700
     24 H12         1.8950    2.6300   -0.2200 hn        1 AN0      0.461800
@<TRIPOS>BOND
     1    1    2 1   
     2    1    5 1   
     3    1    8 1   
     4    1   12 1   
     5    2    3 1   
     6    2    4 1   
     7    5    6 1   
     8    5   13 1   
     9    5   14 1   
    10    6    7 1   
    11    6   15 1   
    12    6   16 1   
    13    7   17 1   
    14    7   18 1   
    15    7   19 1   
    16    8    9 1   
    17    8   20 1   
    18    8   24 1   
    19    9   10 2   
    20    9   11 1   
    21   11   21 1   
    22   11   22 1   
    23   11   23 1   
@<TRIPOS>SUBSTRUCTURE
     1 AN0         1 TEMP              0 ****  ****    0 ROOT
