@<TRIPOS>MOLECULE
AN0
   24    23     1     0     0
SMALL
bcc


@<TRIPOS>ATOM
      1 CA          1.8000    0.4930   -0.0750 c3        1 AN0     -0.053500
      2 C           0.2070    0.5160   -0.2580 c         1 AN0      0.929600
      3 O          -0.3500   -0.5880   -0.1640 o         1 AN0     -0.762300
      4 OXT        -0.2850    1.6540   -0.4940 o         1 AN0     -0.762300
      5 CB          2.1250    0.0470    1.3390 c3        1 AN0     -0.098400
      6 CG          3.5880   -0.2830    1.5420 c3        1 AN0     -0.089400
      7 CD          3.8290   -0.8520    2.9180 c3        1 AN0     -0.093100
      8 N1          2.3520    1.8570   -0.3900 n4        1 AN0     -0.668800
      9 C1          2.8070    1.9760   -1.8080 c         1 AN0      0.564100
     10 O1          3.9840    2.2880   -1.9690 o         1 AN0     -0.480100
     11 C2          1.7890    1.7180   -2.8650 c3        1 AN0     -0.193100
     12 HA          2.2230   -0.2390   -0.8170 hx        1 AN0      0.085700
     13 HB1         1.7940    0.8170    2.0850 hc        1 AN0      0.085200
     14 HB2         1.4980   -0.8730    1.5190 hc        1 AN0      0.085200
     15 HG1         4.2200    0.6340    1.4090 hc        1 AN0      0.032200
     16 HG2         3.9160   -1.0260    0.7680 hc        1 AN0      0.032200
     17 HD1         4.9110   -1.0880    3.0550 hc        1 AN0      0.040700
     18 HD2         3.5220   -0.1230    3.7060 hc        1 AN0      0.040700
     19 HD3         3.2410   -1.7910    3.0620 hc        1 AN0      0.040700
     20 HN1         3.1090    2.1000    0.2510 hn        1 AN0      0.461800
     21 H21         1.8690    0.6460   -3.1840 hc        1 AN0      0.113700
     22 H22         0.7390    1.8950   -2.4990 hc        1 AN0      0.113700
     23 H23         2.0040    2.3770   -3.7430 hc        1 AN0      0.113700
     24 H12         1.5420    2.5090   -0.2570 hn        1 AN0      0.461800
@<TRIPOS>BOND
     1    1    2 1   
     2    1    5 1   
     3    1    8 1   
     4    1   12 1   
     5    2    3 1   
     6    2    4 1   
     7    5    6 1   
     8    5   13 1   
     9    5   14 1   
    10    6    7 1   
    11    6   15 1   
    12    6   16 1   
    13    7   17 1   
    14    7   18 1   
    15    7   19 1   
    16    8    9 1   
    17    8   20 1   
    18    8   24 1   
    19    9   10 2   
    20    9   11 1   
    21   11   21 1   
    22   11   22 1   
    23   11   23 1   
@<TRIPOS>SUBSTRUCTURE
     1 AN0         1 TEMP              0 ****  ****    0 ROOT
