@<TRIPOS>MOLECULE
AN1
   35    37     1     0     0
SMALL
bcc


@<TRIPOS>ATOM
      1 O1         -0.4700   -0.5130   -4.9770 o         1 AN1     -0.845800
      2 C1         -0.8450   -0.1460   -3.8300 c         1 AN1      0.908600
      3 O2         -1.9190    0.4900   -3.6040 o         1 AN1     -0.845800
      4 C2          0.0420   -0.5120   -2.6260 c3        1 AN1     -0.198400
      5 C3          0.2440    0.6810   -1.7120 c3        1 AN1     -0.050100
      6 C4          0.1820    0.3240   -0.2650 ca        1 AN1      0.004700
      7 C5          1.3540    0.1330    0.4920 ca        1 AN1     -0.058000
      8 C6          2.6500    0.1270   -0.1230 ca        1 AN1     -0.088000
      9 C7          3.7920   -0.0020    0.6130 ca        1 AN1     -0.167500
     10 C8          3.7130   -0.1320    2.0270 ca        1 AN1     -0.123000
     11 C9          2.4990   -0.1700    2.6460 ca        1 AN1     -0.147500
     12 C10         1.2720   -0.0780    1.9060 ca        1 AN1     -0.012000
     13 C11         0.0170   -0.1750    2.5300 ca        1 AN1     -0.102300
     14 C12        -1.1590   -0.0040    1.7710 ca        1 AN1     -0.012000
     15 C13        -1.0780    0.2130    0.3620 ca        1 AN1     -0.058000
     16 C14        -2.2930    0.3050   -0.3970 ca        1 AN1     -0.088000
     17 C15        -3.5110    0.2460    0.2190 ca        1 AN1     -0.167500
     18 C16        -3.5940    0.0960    1.6290 ca        1 AN1     -0.123000
     19 C17        -2.4580   -0.0280    2.3770 ca        1 AN1     -0.147500
     20 C18        -0.0890   -0.4710    3.9810 c3        1 AN1     -0.042800
     21 H2          1.0280   -0.8930   -2.9880 hc        1 AN1      0.032200
     22 H3         -0.4700   -1.3430   -2.0780 hc        1 AN1      0.032200
     23 H4         -0.5550    1.4460   -1.9350 hc        1 AN1      0.058700
     24 H5          1.2160    1.1870   -1.9550 hc        1 AN1      0.058700
     25 H6          2.7110    0.2040   -1.2210 ha        1 AN1      0.184000
     26 H7          4.7790   -0.0110    0.1310 ha        1 AN1      0.126500
     27 H8          4.6460   -0.2010    2.6050 ha        1 AN1      0.113000
     28 H9          2.4540   -0.2580    3.7410 ha        1 AN1      0.116500
     29 H10        -2.2320    0.4000   -1.5080 ha        1 AN1      0.184000
     30 H11        -4.4380    0.3110   -0.3690 ha        1 AN1      0.126500
     31 H12        -4.5850    0.0780    2.1050 ha        1 AN1      0.113000
     32 H13        -2.5350   -0.1330    3.4690 ha        1 AN1      0.116500
     33 H14        -0.2050    0.4770    4.5630 hc        1 AN1      0.033367
     34 H15        -0.9710   -1.1270    4.1940 hc        1 AN1      0.033367
     35 H16         0.8070   -1.0160    4.3660 hc        1 AN1      0.033367
@<TRIPOS>BOND
     1    1    2 1   
     2    2    3 1   
     3    2    4 1   
     4    4    5 1   
     5    4   21 1   
     6    4   22 1   
     7    5    6 1   
     8    5   23 1   
     9    5   24 1   
    10    6    7 ar  
    11    6   15 ar  
    12    7    8 ar  
    13    7   12 ar  
    14    8    9 ar  
    15    8   25 1   
    16    9   10 ar  
    17    9   26 1   
    18   10   11 ar  
    19   10   27 1   
    20   11   12 ar  
    21   11   28 1   
    22   12   13 ar  
    23   13   14 ar  
    24   13   20 1   
    25   14   15 ar  
    26   14   19 ar  
    27   15   16 ar  
    28   16   17 ar  
    29   16   29 1   
    30   17   18 ar  
    31   17   30 1   
    32   18   19 ar  
    33   18   31 1   
    34   19   32 1   
    35   20   33 1   
    36   20   34 1   
    37   20   35 1   
@<TRIPOS>SUBSTRUCTURE
     1 AN1         1 TEMP              0 ****  ****    0 ROOT
