@<TRIPOS>MOLECULE
AN1
   35    37     1     0     0
SMALL
bcc


@<TRIPOS>ATOM
      1 O1          0.5020    0.4550    0.5450 o         1 AN1     -0.845800
      2 C1          1.5480    0.8310   -0.0520 c         1 AN1      0.908600
      3 O2          2.1730    1.9010    0.2180 o         1 AN1     -0.845800
      4 C2          2.0870   -0.0490   -1.1950 c3        1 AN1     -0.198400
      5 C3          3.5830   -0.2570   -1.0670 c3        1 AN1     -0.050100
      6 C4          4.2950   -0.1880   -2.3770 ca        1 AN1      0.004700
      7 C5          4.6400    1.0750   -2.9050 ca        1 AN1     -0.058000
      8 C6          4.1990    2.2870   -2.2730 ca        1 AN1     -0.088000
      9 C7          4.5750    3.5080   -2.7590 ca        1 AN1     -0.167500
     10 C8          5.4140    3.5970   -3.9010 ca        1 AN1     -0.123000
     11 C9          5.8250    2.4650   -4.5460 ca        1 AN1     -0.147500
     12 C10         5.4300    1.1640   -4.0910 ca        1 AN1     -0.012000
     13 C11         5.8110   -0.0080   -4.7770 ca        1 AN1     -0.102300
     14 C12         5.4580   -1.2660   -4.2590 ca        1 AN1     -0.012000
     15 C13         4.6600   -1.3550   -3.0740 ca        1 AN1     -0.058000
     16 C14         4.2370   -2.6540   -2.6330 ca        1 AN1     -0.088000
     17 C15         4.6340   -3.7910   -3.2720 ca        1 AN1     -0.167500
     18 C16         5.4920   -3.7070   -4.4030 ca        1 AN1     -0.123000
     19 C17         5.8850   -2.4900   -4.8770 ca        1 AN1     -0.147500
     20 C18         6.5710    0.1050   -6.0470 c3        1 AN1     -0.042800
     21 H2          1.8440    0.4710   -2.1560 hc        1 AN1      0.032200
     22 H3          1.5580   -1.0340   -1.1930 hc        1 AN1      0.032200
     23 H4          3.7900   -1.2330   -0.5540 hc        1 AN1      0.058700
     24 H5          4.0010    0.5360   -0.3810 hc        1 AN1      0.058700
     25 H6          3.5210    2.2220   -1.3890 ha        1 AN1      0.184000
     26 H7          4.2300    4.4320   -2.2740 ha        1 AN1      0.126500
     27 H8          5.7250    4.5900   -4.2570 ha        1 AN1      0.113000
     28 H9          6.4820    2.5460   -5.4230 ha        1 AN1      0.116500
     29 H10         3.5540   -2.7190   -1.7710 ha        1 AN1      0.184000
     30 H11         4.3000   -4.7800   -2.9300 ha        1 AN1      0.126500
     31 H12         5.8280   -4.6370   -4.8850 ha        1 AN1      0.113000
     32 H13         6.5580   -2.4410   -5.7450 ha        1 AN1      0.116500
     33 H14         6.2310    0.9910   -6.6400 hc        1 AN1      0.033367
     34 H15         6.4280   -0.7870   -6.7040 hc        1 AN1      0.033367
     35 H16         7.6640    0.2180   -5.8360 hc        1 AN1      0.033367
@<TRIPOS>BOND
     1    1    2 1   
     2    2    3 1   
     3    2    4 1   
     4    4    5 1   
     5    4   21 1   
     6    4   22 1   
     7    5    6 1   
     8    5   23 1   
     9    5   24 1   
    10    6    7 ar  
    11    6   15 ar  
    12    7    8 ar  
    13    7   12 ar  
    14    8    9 ar  
    15    8   25 1   
    16    9   10 ar  
    17    9   26 1   
    18   10   11 ar  
    19   10   27 1   
    20   11   12 ar  
    21   11   28 1   
    22   12   13 ar  
    23   13   14 ar  
    24   13   20 1   
    25   14   15 ar  
    26   14   19 ar  
    27   15   16 ar  
    28   16   17 ar  
    29   16   29 1   
    30   17   18 ar  
    31   17   30 1   
    32   18   19 ar  
    33   18   31 1   
    34   19   32 1   
    35   20   33 1   
    36   20   34 1   
    37   20   35 1   
@<TRIPOS>SUBSTRUCTURE
     1 AN1         1 TEMP              0 ****  ****    0 ROOT
