@<TRIPOS>MOLECULE
AN1
   35    37     1     0     0
SMALL
bcc


@<TRIPOS>ATOM
      1 O1          0.5020    0.4520    0.5440 o         1 AN1     -0.845800
      2 C1          1.5400    0.8350   -0.0600 c         1 AN1      0.908600
      3 O2          2.1490    1.9190    0.1900 o         1 AN1     -0.845800
      4 C2          2.0910   -0.0560   -1.1900 c3        1 AN1     -0.198400
      5 C3          3.5910   -0.2380   -1.0610 c3        1 AN1     -0.050100
      6 C4          4.2990   -0.1790   -2.3730 ca        1 AN1      0.004700
      7 C5          4.6230    1.0810   -2.9230 ca        1 AN1     -0.058000
      8 C6          4.1640    2.2960   -2.3110 ca        1 AN1     -0.088000
      9 C7          4.5200    3.5140   -2.8170 ca        1 AN1     -0.167500
     10 C8          5.3560    3.5970   -3.9630 ca        1 AN1     -0.123000
     11 C9          5.7830    2.4620   -4.5890 ca        1 AN1     -0.147500
     12 C10         5.4090    1.1620   -4.1120 ca        1 AN1     -0.012000
     13 C11         5.8080   -0.0150   -4.7790 ca        1 AN1     -0.102300
     14 C12         5.4760   -1.2700   -4.2390 ca        1 AN1     -0.012000
     15 C13         4.6820   -1.3510   -3.0510 ca        1 AN1     -0.058000
     16 C14         4.2810   -2.6490   -2.5880 ca        1 AN1     -0.088000
     17 C15         4.6950   -3.7910   -3.2090 ca        1 AN1     -0.167500
     18 C16         5.5490   -3.7120   -4.3430 ca        1 AN1     -0.123000
     19 C17         5.9210   -2.4970   -4.8380 ca        1 AN1     -0.147500
     20 C18         6.5640    0.0890   -6.0520 c3        1 AN1     -0.042800
     21 H2          1.8390    0.4450   -2.1590 hc        1 AN1      0.032200
     22 H3          1.5780   -1.0480   -1.1700 hc        1 AN1      0.032200
     23 H4          3.8140   -1.2010   -0.5330 hc        1 AN1      0.058700
     24 H5          3.9970    0.5740   -0.3900 hc        1 AN1      0.058700
     25 H6          3.4890    2.2340   -1.4240 ha        1 AN1      0.184000
     26 H7          4.1610    4.4410   -2.3470 ha        1 AN1      0.126500
     27 H8          5.6500    4.5890   -4.3360 ha        1 AN1      0.113000
     28 H9          6.4380    2.5380   -5.4680 ha        1 AN1      0.116500
     29 H10         3.6000   -2.7110   -1.7240 ha        1 AN1      0.184000
     30 H11         4.3770   -4.7790   -2.8500 ha        1 AN1      0.126500
     31 H12         5.8990   -4.6440   -4.8100 ha        1 AN1      0.113000
     32 H13         6.5920   -2.4520   -5.7080 ha        1 AN1      0.116500
     33 H14         6.2100    0.9600   -6.6590 hc        1 AN1      0.033367
     34 H15         6.4320   -0.8160   -6.6950 hc        1 AN1      0.033367
     35 H16         7.6560    0.2210   -5.8460 hc        1 AN1      0.033367
@<TRIPOS>BOND
     1    1    2 1   
     2    2    3 1   
     3    2    4 1   
     4    4    5 1   
     5    4   21 1   
     6    4   22 1   
     7    5    6 1   
     8    5   23 1   
     9    5   24 1   
    10    6    7 ar  
    11    6   15 ar  
    12    7    8 ar  
    13    7   12 ar  
    14    8    9 ar  
    15    8   25 1   
    16    9   10 ar  
    17    9   26 1   
    18   10   11 ar  
    19   10   27 1   
    20   11   12 ar  
    21   11   28 1   
    22   12   13 ar  
    23   13   14 ar  
    24   13   20 1   
    25   14   15 ar  
    26   14   19 ar  
    27   15   16 ar  
    28   16   17 ar  
    29   16   29 1   
    30   17   18 ar  
    31   17   30 1   
    32   18   19 ar  
    33   18   31 1   
    34   19   32 1   
    35   20   33 1   
    36   20   34 1   
    37   20   35 1   
@<TRIPOS>SUBSTRUCTURE
     1 AN1         1 TEMP              0 ****  ****    0 ROOT
