@<TRIPOS>MOLECULE
AN1
   35    31     1     0     0
SMALL
bcc


@<TRIPOS>ATOM
      1 O1         -3.4660    1.1900    3.4920 o         1 AN1     -0.580500
      2 C1         -3.3220    0.0490    2.9630 c2        1 AN1      0.328000
      3 O2         -3.8610   -0.9610    3.4910 o         1 AN1     -0.580500
      4 C2         -2.5940   -0.0850    1.6200 c3        1 AN1     -0.227000
      5 C3         -1.2230   -0.7530    1.8400 c3        1 AN1     -0.136000
      6 C4         -0.2650   -0.3730    0.6650 c2        1 AN1      0.012000
      7 C5         -0.1940   -1.2180   -0.4700 c2        1 AN1     -0.063000
      8 C6         -0.8860   -2.4420   -0.4790 c1        1 AN1     -0.086000
      9 C7         -0.7550   -3.3060   -1.5590 c1        1 AN1     -0.145250
     10 C8          0.0620   -2.9600   -2.6350 c1        1 AN1     -0.145250
     11 C9          0.7440   -1.7540   -2.6270 c1        1 AN1     -0.135000
     12 C10         0.6130   -0.8760   -1.5320 c1        1 AN1     -0.014000
     13 C11         1.3710    0.3200   -1.4900 c1        1 AN1     -0.095000
     14 C12         1.3010    1.1620   -0.3590 c1        1 AN1     -0.010000
     15 C13         0.4930    0.8210    0.7070 c1        1 AN1     -0.053000
     16 C14         0.3950    1.6800    1.8170 c1        1 AN1     -0.090000
     17 C15         1.1110    2.8700    1.8400 c1        1 AN1     -0.145250
     18 C16         1.9290    3.2150    0.7600 c1        1 AN1     -0.145250
     19 C17         2.0260    2.3690   -0.3350 c1        1 AN1     -0.160000
     20 C18         2.2430    0.7850   -2.6490 c3        1 AN1     -0.168000
     21 H2         -2.4640    0.8040    1.2290 hc        1 AN1      0.071500
     22 H3         -3.1290   -0.6330    1.0130 hc        1 AN1      0.071500
     23 H4         -0.8390   -0.4410    2.6900 hc        1 AN1      0.098000
     24 H5         -1.3340   -1.7210    1.8700 hc        1 AN1      0.098000
     25 H6         -1.4580   -2.6860    0.2750 ha        1 AN1      0.145000
     26 H7         -1.2360   -4.1560   -1.5640 ha        1 AN1      0.119750
     27 H8          0.1530   -3.5680   -3.3940 ha        1 AN1      0.119750
     28 H9          1.3190   -1.5100   -3.3860 ha        1 AN1      0.118000
     29 H10        -0.1740    1.4410    2.5690 ha        1 AN1      0.223000
     30 H11         1.0430    3.4650    2.6080 ha        1 AN1      0.119750
     31 H12         2.4660    4.0310    0.7960 ha        1 AN1      0.119750
     32 H13         2.6420    2.5860   -1.0700 ha        1 AN1      0.115000
     33 H14         2.0990    0.1980   -3.4230 hc        1 AN1      0.072667
     34 H15         3.1840    0.7500   -2.3840 hc        1 AN1      0.072667
     35 H16         2.0050    1.7060   -2.8880 hc        1 AN1      0.072667
@<TRIPOS>BOND
     1    1    2 1   
     2    2    3 1   
     3    2    4 1   
     4    4    5 1   
     5    4   21 1   
     6    4   22 1   
     7    5    6 1   
     8    5   23 1   
     9    5   24 1   
    10    6    7 1   
    11    6   15 1   
    12    7    8 1   
    13    7   12 1   
    14    8   25 1   
    15    9   10 1   
    16    9   26 1   
    17   10   27 1   
    18   11   12 1   
    19   11   28 1   
    20   13   14 1   
    21   13   20 1   
    22   14   19 1   
    23   15   16 1   
    24   16   29 1   
    25   17   18 1   
    26   17   30 1   
    27   18   31 1   
    28   19   32 1   
    29   20   33 1   
    30   20   34 1   
    31   20   35 1   
@<TRIPOS>SUBSTRUCTURE
     1 AN1         1 TEMP              0 ****  ****    0 ROOT
