@<TRIPOS>MOLECULE
AN2
   43    45     1     0     0
SMALL
bcc


@<TRIPOS>ATOM
      1 N3B         1.2760    3.3720    1.7440 n3        1 AN2     -1.081400
      2 PB          3.5570    2.6300    2.6730 p5        1 AN2      1.592800
      3 O2B         3.6390    3.9410    3.3590 o         1 AN2     -0.844500
      4 O1B         2.7150    1.5030    3.0670 o         1 AN2     -0.844500
      5 O3A         3.8740    2.7150    1.0040 os        1 AN2     -0.701800
      6 PA          5.3680    2.1690    0.9090 p5        1 AN2      1.685500
      7 O1A         5.8240    1.0660    0.0790 o         1 AN2     -0.821300
      8 O2A         5.1790    2.1200    2.4820 os        1 AN2     -0.701800
      9 O5'         6.3330    3.4480    0.6010 os        1 AN2     -0.578200
     10 C5'         7.5930    3.1930    0.0480 c3        1 AN2      0.160400
     11 C4'         7.7100    3.7400   -1.3830 c3        1 AN2      0.075100
     12 O4'         6.5990    4.5710   -1.7410 os        1 AN2     -0.392600
     13 C3'         8.9850    4.5890   -1.5830 c3        1 AN2      0.084100
     14 O3'         9.6350    4.2660   -2.7990 oh        1 AN2     -0.599800
     15 C2'         8.5010    6.0560   -1.7030 c3        1 AN2      0.140100
     16 O2'         8.8710    6.6930   -2.8980 oh        1 AN2     -0.573800
     17 C1'         6.9420    5.9540   -1.6380 c3        1 AN2      0.201800
     18 N9          6.3060    6.5500   -0.4750 na        1 AN2     -0.269000
     19 C8          4.8820    6.6520   -0.4120 cc        1 AN2      0.498700
     20 N7          4.3750    6.7160    0.8240 nd        1 AN2     -0.560100
     21 C5          5.4860    6.5860    1.6740 ca        1 AN2     -0.115200
     22 C4          6.7270    6.4870    0.8720 ca        1 AN2      0.484800
     23 N3          7.9520    6.4030    1.4400 nb        1 AN2     -0.667000
     24 C2          7.9330    6.3960    2.8010 ca        1 AN2      0.666900
     25 N1          6.8670    6.4010    3.6420 nb        1 AN2     -0.700000
     26 C6          5.6330    6.4530    3.0650 ca        1 AN2      0.570200
     27 N6          4.4400    6.2740    3.8980 n4        1 AN2     -0.820300
     28 H3B1        0.6020    4.1020    1.6800 hn        1 AN2      0.363133
     29 H3B2        0.9110    2.5970    2.2620 hn        1 AN2      0.363133
     30 H5'1        7.7950    2.0840    0.0250 h1        1 AN2      0.058700
     31 H5'2        8.3500    3.6970    0.7150 h1        1 AN2      0.058700
     32 H4'         7.6600    2.8900   -2.1200 h1        1 AN2      0.100700
     33 H3'         9.7010    4.4790   -0.7270 h1        1 AN2      0.073700
     34 HA          9.9230    3.3470   -2.7310 ho        1 AN2      0.424000
     35 H2'         8.9390    6.6990   -0.8940 h1        1 AN2      0.118700
     36 HB          8.8020    6.0580   -3.6260 ho        1 AN2      0.430000
     37 H1'         6.4730    6.4510   -2.5410 h2        1 AN2      0.108700
     38 H8          4.2850    6.6910   -1.3360 h5        1 AN2      0.092800
     39 H2          8.9280    6.3510    3.2970 h5        1 AN2      0.075100
     40 H6N1        3.6330    6.0240    3.2840 hn        1 AN2      0.492467
     41 H6N2        4.5650    5.4270    4.4950 hn        1 AN2      0.492467
     42 H3B3        1.5480    3.0690    0.8320 hn        1 AN2      0.363133
     43 H63         4.2520    7.0990    4.4600 hn        1 AN2      0.492467
@<TRIPOS>BOND
     1    1   28 1   
     2    1   29 1   
     3    1   42 1   
     4    2    3 1   
     5    2    4 1   
     6    2    5 1   
     7    2    8 1   
     8    5    6 1   
     9    6    7 2   
    10    6    8 1   
    11    6    9 1   
    12    9   10 1   
    13   10   11 1   
    14   10   30 1   
    15   10   31 1   
    16   11   12 1   
    17   11   13 1   
    18   11   32 1   
    19   12   17 1   
    20   13   14 1   
    21   13   15 1   
    22   13   33 1   
    23   14   34 1   
    24   15   16 1   
    25   15   17 1   
    26   15   35 1   
    27   16   36 1   
    28   17   18 1   
    29   17   37 1   
    30   18   19 1   
    31   18   22 1   
    32   19   20 2   
    33   19   38 1   
    34   20   21 1   
    35   21   22 ar  
    36   21   26 ar  
    37   22   23 ar  
    38   23   24 ar  
    39   24   25 ar  
    40   24   39 1   
    41   25   26 ar  
    42   26   27 1   
    43   27   40 1   
    44   27   41 1   
    45   27   43 1   
@<TRIPOS>SUBSTRUCTURE
     1 AN2         1 TEMP              0 ****  ****    0 ROOT
