@<TRIPOS>MOLECULE
AN2
   41    39     1     0     0
SMALL
bcc


@<TRIPOS>ATOM
      1 N3B        -2.8170   -6.2120   -4.1110 n3        1 AN2     -1.070900
      2 PB         -2.0240   -6.2760   -2.6410 p5        1 AN2      1.573700
      3 O2B        -2.7740   -7.2040   -1.6990 o         1 AN2     -0.885500
      4 O1B        -0.6040   -6.8030   -2.8510 o         1 AN2     -0.885500
      5 O3A        -1.9620   -4.8230   -2.0130 os        1 AN2     -0.818800
      6 PA         -0.9740   -4.4140   -0.8820 p5        1 AN2      1.618800
      7 O1A        -1.3800   -5.1000    0.4210 o         1 AN2     -0.905500
      8 O2A         0.4310   -4.8420   -1.2650 o         1 AN2     -0.905500
      9 O5'        -1.0150   -2.8020   -0.6810 os        1 AN2     -0.569200
     10 C5'         0.1340   -2.1530   -0.1250 c3        1 AN2      0.214400
     11 C4'         0.2030   -0.7010   -0.6440 c3        1 AN2      0.056100
     12 O4'        -0.2920    0.1170    0.2330 os        1 AN2     -0.425600
     13 C3'         1.6670   -0.2690   -0.8130 c3        1 AN2      0.124100
     14 O3'         1.9740   -0.1550   -2.1210 oh        1 AN2     -0.659800
     15 C2'         1.7780    1.1250   -0.1010 c3        1 AN2      0.107100
     16 O2'         2.4440    2.0920   -0.9750 oh        1 AN2     -0.603800
     17 C1'         0.5710    1.4810    0.1140 c3        1 AN2      0.216800
     18 N9          0.4890    2.2180    1.3240 n3        1 AN2     -0.103400
     19 C8          0.5540    1.7430    2.5960 c1        1 AN2      0.212400
     20 N7          0.2800    2.7760    3.4470 ne        1 AN2     -0.424400
     21 C5          0.0420    3.9030    2.6890 cg        1 AN2     -0.167000
     22 C4          0.1690    3.5650    1.3860 c1        1 AN2      0.321500
     23 N3          0.0180    4.5100    0.4230 n1        1 AN2     -0.507800
     24 C2         -0.2630    5.8020    0.7710 c1        1 AN2      0.372300
     25 N1         -0.3920    6.1450    2.0900 n1        1 AN2     -0.602800
     26 C6         -0.2440    5.2160    3.0400 c1        1 AN2      0.245800
     27 N6         -0.2190    5.8230    4.3540 n3        1 AN2     -0.799400
     28 H3B1       -2.3290   -6.2000   -4.8990 hn        1 AN2      0.378800
     29 H3B2       -3.7310   -6.1150   -4.1350 hn        1 AN2      0.378800
     30 H5'1        0.9580   -2.6420   -0.3980 h1        1 AN2      0.012700
     31 H5'2        0.0670   -2.1470    0.8330 h1        1 AN2      0.012700
     32 H4'        -0.2700   -0.6210   -1.4790 h1        1 AN2      0.093700
     33 H3'         2.2650   -0.9200   -0.3790 h1        1 AN2      0.100700
     34 HA          2.6460   -0.6510   -2.3010 ho        1 AN2      0.504000
     35 H2'         2.2470    1.0410    0.7160 h1        1 AN2      0.075700
     36 HB          2.0540    2.1000   -1.7440 ho        1 AN2      0.430000
     37 H1'         0.2480    2.0140   -0.6210 h2        1 AN2      0.099700
     38 H8          0.8020    0.8650    2.8490 DU        1 AN2      0.240000
     39 H2         -0.3740    6.4990    0.0590 ha        1 AN2      0.113500
     40 H6N1       -0.7690    6.4870    4.5430 hn        1 AN2      0.416300
     41 H6N2        0.3910    5.5280    4.9910 hn        1 AN2      0.416300
@<TRIPOS>BOND
     1    1    2 1   
     2    1   28 1   
     3    1   29 1   
     4    2    3 1   
     5    2    4 1   
     6    2    5 1   
     7    5    6 1   
     8    6    7 1   
     9    6    8 1   
    10    6    9 1   
    11    9   10 1   
    12   10   11 1   
    13   10   30 1   
    14   10   31 1   
    15   11   12 1   
    16   11   13 1   
    17   11   32 1   
    18   12   17 1   
    19   13   14 1   
    20   13   15 1   
    21   13   33 1   
    22   14   34 1   
    23   15   16 1   
    24   15   17 1   
    25   15   35 1   
    26   16   36 1   
    27   17   18 1   
    28   17   37 1   
    29   18   19 2   
    30   18   22 1   
    31   19   20 2   
    32   20   21 1   
    33   21   26 3   
    34   22   23 3   
    35   24   25 3   
    36   24   39 1   
    37   26   27 1   
    38   27   40 1   
    39   27   41 1   
@<TRIPOS>SUBSTRUCTURE
     1 AN2         1 TEMP              0 ****  ****    0 ROOT
