@<TRIPOS>MOLECULE
AN2
   42    44     1     0     0
SMALL
bcc


@<TRIPOS>ATOM
      1 N3B         0.6580   -0.9000   -1.1200 n9        1 AN2     -1.084400
      2 PB          2.2950    0.2320    0.5310 p5        1 AN2      1.521800
      3 O2B         1.0580    0.9430    0.8760 o         1 AN2     -0.805500
      4 O1B         2.5840   -1.1780    0.8210 o         1 AN2     -0.805500
      5 O3A         3.0750    0.8140   -0.8770 os        1 AN2     -0.690800
      6 PA          4.2780    1.6420   -0.2780 p5        1 AN2      1.690500
      7 O1A         5.6940    1.4820   -0.6220 o         1 AN2     -0.876300
      8 O2A         3.6350    1.1790    1.0830 os        1 AN2     -0.690800
      9 O5'         4.0090    3.2350   -0.4960 os        1 AN2     -0.569200
     10 C5'         4.9260    4.1220    0.0780 c3        1 AN2      0.190400
     11 C4'         5.9540    4.6090   -0.9570 c3        1 AN2      0.066100
     12 O4'         6.1990    6.0090   -0.7470 os        1 AN2     -0.412600
     13 C3'         7.3050    3.8640   -0.8950 c3        1 AN2      0.106100
     14 O3'         7.5350    3.1500   -2.0880 oh        1 AN2     -0.624800
     15 C2'         8.3790    4.9650   -0.7670 c3        1 AN2      0.112100
     16 O2'         9.1230    5.2010   -1.9370 oh        1 AN2     -0.583800
     17 C1'         7.5680    6.2560   -0.4110 c3        1 AN2      0.209800
     18 N9          7.6930    6.6430    0.9770 na        1 AN2     -0.271000
     19 C8          7.4430    5.8450    2.1220 cc        1 AN2      0.418700
     20 N7          7.5350    6.5120    3.2810 nd        1 AN2     -0.551100
     21 C5          7.8390    7.8320    2.9160 ca        1 AN2     -0.224200
     22 C4          7.9260    7.9400    1.4610 ca        1 AN2      0.464800
     23 N3          8.2040    9.1100    0.8090 nb        1 AN2     -0.723000
     24 C2          8.3760   10.1500    1.6550 ca        1 AN2      0.673900
     25 N1          8.3190   10.1990    3.0150 nb        1 AN2     -0.798000
     26 C6          8.0620    9.0240    3.6780 ca        1 AN2      0.739200
     27 N6          8.0690    8.9710    5.0580 nv        1 AN2     -0.945500
     28 H3B1        0.3540   -1.0990   -2.0440 hn        1 AN2      0.362800
     29 H3B2        0.9160   -1.7340   -0.6350 hn        1 AN2      0.362800
     30 H5'1        5.4400    3.6270    0.9470 h1        1 AN2      0.043700
     31 H5'2        4.3350    5.0100    0.4430 h1        1 AN2      0.043700
     32 H4'         5.5090    4.5350   -1.9890 h1        1 AN2      0.098700
     33 H3'         7.3500    3.1740   -0.0100 h1        1 AN2      0.084700
     34 HA          7.1310    2.2730   -1.9690 ho        1 AN2      0.473000
     35 H2'         9.1400    4.7090    0.0170 h1        1 AN2      0.088700
     36 HB          8.5780    4.9550   -2.6980 ho        1 AN2      0.429000
     37 H1'         7.8900    7.1310   -1.0520 h2        1 AN2      0.124700
     38 H8          7.2000    4.7780    2.0180 h5        1 AN2      0.079800
     39 H2          8.5940   11.1250    1.1690 h5        1 AN2      0.044100
     40 H6N1        8.0330    9.8200    5.5680 hn        1 AN2      0.432300
     41 H6N2        7.6700    8.1650    5.4760 hn        1 AN2      0.432300
     42 H3B3       -0.0350   -0.3950   -0.6090 hn        1 AN2      0.362800
@<TRIPOS>BOND
     1    1   28 1   
     2    1   29 1   
     3    1   42 1   
     4    2    3 1   
     5    2    4 1   
     6    2    5 1   
     7    2    8 1   
     8    5    6 1   
     9    6    7 2   
    10    6    8 1   
    11    6    9 1   
    12    9   10 1   
    13   10   11 1   
    14   10   30 1   
    15   10   31 1   
    16   11   12 1   
    17   11   13 1   
    18   11   32 1   
    19   12   17 1   
    20   13   14 1   
    21   13   15 1   
    22   13   33 1   
    23   14   34 1   
    24   15   16 1   
    25   15   17 1   
    26   15   35 1   
    27   16   36 1   
    28   17   18 1   
    29   17   37 1   
    30   18   19 1   
    31   18   22 1   
    32   19   20 2   
    33   19   38 1   
    34   20   21 1   
    35   21   22 ar  
    36   21   26 ar  
    37   22   23 ar  
    38   23   24 ar  
    39   24   25 ar  
    40   24   39 1   
    41   25   26 ar  
    42   26   27 1   
    43   27   40 1   
    44   27   41 1   
@<TRIPOS>SUBSTRUCTURE
     1 AN2         1 TEMP              0 ****  ****    0 ROOT
