@<TRIPOS>MOLECULE
AN2
   42    44     1     0     0
SMALL
bcc


@<TRIPOS>ATOM
      1 N3B         0.6980   -0.9540   -1.0380 n3        1 AN2     -1.084400
      2 PB          2.3760    0.1720    0.5750 p5        1 AN2      1.521800
      3 O2B         1.1410    0.8530    0.9810 o         1 AN2     -0.805500
      4 O1B         2.7000   -1.2390    0.8230 o         1 AN2     -0.805500
      5 O3A         3.0930    0.7970   -0.8480 os        1 AN2     -0.690800
      6 PA          4.3030    1.6340   -0.2760 p5        1 AN2      1.690500
      7 O1A         5.7080    1.5070   -0.6750 o         1 AN2     -0.876300
      8 O2A         3.7200    1.1310    1.0970 os        1 AN2     -0.690800
      9 O5'         3.9990    3.2260   -0.4490 os        1 AN2     -0.569200
     10 C5'         4.9210    4.1180    0.1100 c3        1 AN2      0.190400
     11 C4'         5.9010    4.6450   -0.9520 c3        1 AN2      0.066100
     12 O4'         6.1300    6.0440   -0.7200 os        1 AN2     -0.412600
     13 C3'         7.2660    3.9230   -0.9560 c3        1 AN2      0.106100
     14 O3'         7.4640    3.2390   -2.1720 oh        1 AN2     -0.624800
     15 C2'         8.3250    5.0400   -0.8430 c3        1 AN2      0.112100
     16 O2'         9.0210    5.3140   -2.0340 oh        1 AN2     -0.583800
     17 C1'         7.5060    6.3090   -0.4290 c3        1 AN2      0.209800
     18 N9          7.6760    6.6680    0.9630 na        1 AN2     -0.271000
     19 C8          7.4840    5.8390    2.0970 cc        1 AN2      0.418700
     20 N7          7.6060    6.4820    3.2670 nd        1 AN2     -0.551100
     21 C5          7.8690    7.8170    2.9210 ca        1 AN2     -0.224200
     22 C4          7.8990    7.9580    1.4670 ca        1 AN2      0.464800
     23 N3          8.1290    9.1480    0.8320 nb        1 AN2     -0.723000
     24 C2          8.3110   10.1730    1.6950 ca        1 AN2      0.673900
     25 N1          8.3030   10.1900    3.0560 nb        1 AN2     -0.798000
     26 C6          8.0950    8.9960    3.7020 ca        1 AN2      0.739200
     27 N6          8.1550    8.9130    5.0780 nh        1 AN2     -0.945500
     28 H3B1        0.9880   -1.7930   -0.5810 hn        1 AN2      0.362800
     29 H3B2        0.0160   -0.4710   -0.4920 hn        1 AN2      0.362800
     30 H5'1        4.3290    4.9870    0.5160 h1        1 AN2      0.043700
     31 H5'2        5.4760    3.6130    0.9480 h1        1 AN2      0.043700
     32 H4'         5.4200    4.5840   -1.9680 h1        1 AN2      0.098700
     33 H3'         7.3560    3.2150   -0.0880 h1        1 AN2      0.084700
     34 HA          7.0790    2.3530   -2.0570 ho        1 AN2      0.473000
     35 H2'         9.1200    4.7820   -0.0930 h1        1 AN2      0.088700
     36 HB          8.4520    5.0750   -2.7790 ho        1 AN2      0.429000
     37 H1'         7.7880    7.2020   -1.0610 h2        1 AN2      0.124700
     38 H8          7.2600    4.7700    1.9780 h5        1 AN2      0.079800
     39 H2          8.4910   11.1620    1.2220 h5        1 AN2      0.044100
     40 H6N1        8.1200    9.7490    5.6080 hn        1 AN2      0.432300
     41 H6N2        7.7880    8.0890    5.4920 hn        1 AN2      0.432300
     42 H3B3        0.3630   -1.1390   -1.9550 hn        1 AN2      0.362800
@<TRIPOS>BOND
     1    1   28 1   
     2    1   29 1   
     3    1   42 1   
     4    2    3 1   
     5    2    4 1   
     6    2    5 1   
     7    2    8 1   
     8    5    6 1   
     9    6    7 2   
    10    6    8 1   
    11    6    9 1   
    12    9   10 1   
    13   10   11 1   
    14   10   30 1   
    15   10   31 1   
    16   11   12 1   
    17   11   13 1   
    18   11   32 1   
    19   12   17 1   
    20   13   14 1   
    21   13   15 1   
    22   13   33 1   
    23   14   34 1   
    24   15   16 1   
    25   15   17 1   
    26   15   35 1   
    27   16   36 1   
    28   17   18 1   
    29   17   37 1   
    30   18   19 1   
    31   18   22 1   
    32   19   20 2   
    33   19   38 1   
    34   20   21 1   
    35   21   22 ar  
    36   21   26 ar  
    37   22   23 ar  
    38   23   24 ar  
    39   24   25 ar  
    40   24   39 1   
    41   25   26 ar  
    42   26   27 1   
    43   27   40 1   
    44   27   41 1   
@<TRIPOS>SUBSTRUCTURE
     1 AN2         1 TEMP              0 ****  ****    0 ROOT
