@<TRIPOS>MOLECULE
AN3
   24    26     1     0     0
SMALL
bcc


@<TRIPOS>ATOM
      1 C1          1.2180    0.7150    0.0000 ca        1 AN3     -0.034000
      2 C2          2.4730    1.4050    0.0000 ca        1 AN3     -0.118000
      3 C3          1.2180   -0.7140    0.0000 ca        1 AN3     -0.034000
      4 C4          3.6500    0.7130    0.0000 ca        1 AN3     -0.127000
      5 C5          2.4730   -1.4040    0.0010 ca        1 AN3     -0.118000
      6 C6          3.6500   -0.7130    0.0010 ca        1 AN3     -0.127000
      7 C7         -3.6500   -0.7130   -0.0000 ca        1 AN3     -0.127000
      8 C8         -3.6500    0.7130   -0.0000 ca        1 AN3     -0.127000
      9 C9         -2.4730   -1.4040    0.0000 ca        1 AN3     -0.118000
     10 C10        -2.4730    1.4050   -0.0000 ca        1 AN3     -0.118000
     11 C11        -1.2180   -0.7140    0.0000 ca        1 AN3     -0.034000
     12 C12        -1.2180    0.7150   -0.0000 ca        1 AN3     -0.034000
     13 C13        -0.0000    1.4040   -0.0000 ca        1 AN3     -0.107000
     14 C14         0.0000   -1.4030    0.0000 ca        1 AN3     -0.107000
     15 H2          2.4600    2.5050   -0.0000 ha        1 AN3      0.132000
     16 H4          4.6160    1.2390    0.0000 ha        1 AN3      0.132000
     17 H5          2.4600   -2.5050    0.0010 ha        1 AN3      0.132000
     18 H6          4.6160   -1.2390    0.0010 ha        1 AN3      0.132000
     19 H7         -4.6160   -1.2390   -0.0000 ha        1 AN3      0.132000
     20 H8         -4.6160    1.2390   -0.0000 ha        1 AN3      0.132000
     21 H9         -2.4600   -2.5050    0.0000 ha        1 AN3      0.132000
     22 H10        -2.4600    2.5050   -0.0010 ha        1 AN3      0.132000
     23 H13        -0.0000    2.5050   -0.0000 ha        1 AN3      0.134000
     24 H14         0.0000   -2.5040    0.0010 ha        1 AN3      0.134000
@<TRIPOS>BOND
     1    1    2 ar  
     2    1    3 ar  
     3    1   13 ar  
     4    2    4 ar  
     5    2   15 1   
     6    3    5 ar  
     7    3   14 ar  
     8    4    6 ar  
     9    4   16 1   
    10    5    6 ar  
    11    5   17 1   
    12    6   18 1   
    13    7    8 ar  
    14    7    9 ar  
    15    7   19 1   
    16    8   10 ar  
    17    8   20 1   
    18    9   11 ar  
    19    9   21 1   
    20   10   12 ar  
    21   10   22 1   
    22   11   12 ar  
    23   11   14 ar  
    24   12   13 ar  
    25   13   23 1   
    26   14   24 1   
@<TRIPOS>SUBSTRUCTURE
     1 AN3         1 TEMP              0 ****  ****    0 ROOT
