@<TRIPOS>MOLECULE
AN3
   24    20     1     0     0
SMALL
bcc


@<TRIPOS>ATOM
      1 C1          1.4030   -0.0000    0.0130 c1        1 AN3      0.029100
      2 C2          2.8090   -0.0000    0.0130 c1        1 AN3     -0.065000
      3 C3          0.7140   -0.0000    1.2070 c1        1 AN3      0.029100
      4 C4          3.5040   -0.0000    1.2160 c1        1 AN3     -0.065000
      5 C5          1.4190   -0.0000    2.4250 c1        1 AN3     -0.065000
      6 C6          2.8080   -0.0000    2.4230 c1        1 AN3     -0.065000
      7 C7         -3.5040    0.0000   -1.2160 c1        1 AN3     -0.065000
      8 C8         -2.8080    0.0000   -2.4230 c1        1 AN3     -0.065000
      9 C9         -2.8090    0.0000   -0.0130 c1        1 AN3     -0.065000
     10 C10        -1.4190    0.0000   -2.4250 c1        1 AN3     -0.065000
     11 C11        -1.4030    0.0000   -0.0130 cg        1 AN3     -0.067300
     12 C12        -0.7140    0.0000   -1.2070 ch        1 AN3     -0.067300
     13 C13         0.6960   -0.0000   -1.2080 cf        1 AN3     -0.136800
     14 C14        -0.6960   -0.0000    1.2080 ce        1 AN3     -0.136800
     15 H2          3.2970   -0.0000   -0.8330 ha        1 AN3      0.074500
     16 H4          4.4800   -0.0000    1.2160 ha        1 AN3      0.074500
     17 H5          0.9320   -0.0000    3.2710 ha        1 AN3      0.074500
     18 H6          3.2970   -0.0000    3.2680 ha        1 AN3      0.074500
     19 H7         -4.4800    0.0000   -1.2160 ha        1 AN3      0.074500
     20 H8         -3.2970    0.0000   -3.2680 ha        1 AN3      0.074500
     21 H9         -3.2970    0.0000    0.8330 ha        1 AN3      0.074500
     22 H10        -0.9320   -0.0000   -3.2710 ha        1 AN3      0.074500
     23 H13         1.1840    0.0000   -2.0540 ha        1 AN3      0.134000
     24 H14        -1.1840   -0.0000    2.0540 ha        1 AN3      0.134000
@<TRIPOS>BOND
     1    1    3 2   
     2    1   13 2   
     3    2    4 3   
     4    2   15 1   
     5    3   14 2   
     6    4   16 1   
     7    5    6 3   
     8    5   17 1   
     9    6   18 1   
    10    7    9 3   
    11    7   19 1   
    12    8   10 3   
    13    8   20 1   
    14    9   21 1   
    15   10   22 1   
    16   11   12 3   
    17   11   14 1   
    18   12   13 1   
    19   13   23 1   
    20   14   24 1   
@<TRIPOS>SUBSTRUCTURE
     1 AN3         1 TEMP              0 ****  ****    0 ROOT
