@<TRIPOS>MOLECULE
AN4
   24    25     1     0     0
SMALL
bcc


@<TRIPOS>ATOM
      1 N1          0.0390    0.4030    0.0730 n2        1 AN4     -0.585900
      2 C5          1.4690    0.3880    0.2030 c3        1 AN4      0.101800
      3 C4          2.0510   -0.1260    1.5180 c3        1 AN4     -0.108400
      4 C3          1.2440   -1.2920    2.0460 c3        1 AN4     -0.079400
      5 C2         -0.2200   -0.9190    2.1700 c3        1 AN4     -0.165700
      6 C1         -0.7140   -0.1890    0.9440 ce        1 AN4      0.464900
      7 N2         -4.3660   -0.1430    1.8510 nb        1 AN4     -0.668000
      8 C7         -2.7850   -0.2020   -0.4800 ca        1 AN4     -0.057000
      9 C8         -4.1780   -0.2020   -0.5650 ca        1 AN4     -0.253300
     10 C9         -4.9260   -0.1730    0.6250 ca        1 AN4      0.399200
     11 C10        -3.0230   -0.1470    1.9200 ca        1 AN4      0.407200
     12 C70        -2.1810   -0.1790    0.7850 ca        1 AN4     -0.248200
     13 H51C        1.8650   -0.2370   -0.6500 h1        1 AN4      0.065700
     14 H52C        1.8160    1.4480    0.0330 h1        1 AN4      0.065700
     15 H21C       -0.8360   -1.8420    2.3290 hc        1 AN4      0.061700
     16 H22C       -0.3670   -0.2510    3.0610 hc        1 AN4      0.061700
     17 H31C        1.6360   -1.6070    3.0480 hc        1 AN4      0.047200
     18 H32C        1.3510   -2.1680    1.3530 hc        1 AN4      0.047200
     19 H41C        3.1140   -0.4380    1.3530 hc        1 AN4      0.049200
     20 H42C        2.0550    0.7000    2.2760 hc        1 AN4      0.049200
     21 H10        -2.6000   -0.1160    2.9400 h4        1 AN4      0.022100
     22 H7         -2.1700   -0.2170   -1.3930 ha        1 AN4      0.155000
     23 H8         -4.6830   -0.2200   -1.5400 ha        1 AN4      0.145000
     24 H9         -6.0300   -0.1710    0.6020 h4        1 AN4      0.022100
@<TRIPOS>BOND
     1    1    2 1   
     2    1    6 2   
     3    2    3 1   
     4    2   13 1   
     5    2   14 1   
     6    3    4 1   
     7    3   19 1   
     8    3   20 1   
     9    4    5 1   
    10    4   17 1   
    11    4   18 1   
    12    5    6 1   
    13    5   15 1   
    14    5   16 1   
    15    6   12 1   
    16    7   10 ar  
    17    7   11 ar  
    18    8    9 ar  
    19    8   12 ar  
    20    8   22 1   
    21    9   10 ar  
    22    9   23 1   
    23   10   24 1   
    24   11   12 ar  
    25   11   21 1   
@<TRIPOS>SUBSTRUCTURE
     1 AN4         1 TEMP              0 ****  ****    0 ROOT
