@<TRIPOS>MOLECULE
AN4
   24    21     1     0     0
SMALL
bcc


@<TRIPOS>ATOM
      1 N1          0.7730    0.8310   -1.3410 n1        1 AN4     -0.173000
      2 C5          2.1490    0.8970   -1.3940 c2        1 AN4     -0.102000
      3 C4          2.8070    0.9730    0.0860 c3        1 AN4     -0.187000
      4 C3          2.4440    0.1460    0.8560 c3        1 AN4     -0.158000
      5 C2          0.8930    0.0860    1.1190 c3        1 AN4     -0.169000
      6 C1          0.1510    0.0250   -0.0940 c2        1 AN4      0.018000
      7 N2         -3.5720    0.4650    0.1630 n1        1 AN4     -0.142000
      8 C7         -1.7740   -1.5500   -0.3570 c1        1 AN4     -0.057000
      9 C8         -3.1150   -1.8040   -0.3940 c1        1 AN4     -0.127000
     10 C9         -4.0200   -0.7880   -0.1310 c1        1 AN4     -0.127000
     11 C10        -2.2340    0.7200    0.2000 c1        1 AN4     -0.058000
     12 C70        -1.3270   -0.2940   -0.0620 c1        1 AN4     -0.099000
     13 H51C        2.6340    0.2450   -1.9380 ha        1 AN4      0.105000
     14 H52C        2.3450    1.7160   -1.8950 ha        1 AN4      0.105000
     15 H21C        0.7300   -0.5760    1.8200 hc        1 AN4      0.101000
     16 H22C        0.5730    0.8960    1.5680 hc        1 AN4      0.101000
     17 H31C        2.8930    0.3090    1.7120 hc        1 AN4      0.086500
     18 H32C        2.7310   -0.7300    0.5210 hc        1 AN4      0.086500
     19 H41C        2.6030    1.8530    0.4650 hc        1 AN4      0.088500
     20 H42C        3.7790    0.8960   -0.0090 hc        1 AN4      0.088500
     21 H9         -4.9790   -0.9700   -0.1580 ha        1 AN4      0.152000
     22 H10        -1.9140    1.6180    0.4120 ha        1 AN4      0.159000
     23 H7         -1.1360   -2.2650   -0.5420 ha        1 AN4      0.155000
     24 H8         -3.4350   -2.7010   -0.6050 ha        1 AN4      0.152000
@<TRIPOS>BOND
     1    1    6 1   
     2    2    3 1   
     3    2   13 1   
     4    2   14 1   
     5    3    4 1   
     6    3   19 1   
     7    3   20 1   
     8    4    5 1   
     9    4   17 1   
    10    4   18 1   
    11    5    6 1   
    12    5   15 1   
    13    5   16 1   
    14    6   12 1   
    15    7   11 1   
    16    8   12 1   
    17    8   23 1   
    18    9   10 1   
    19    9   24 1   
    20   10   21 1   
    21   11   22 1   
@<TRIPOS>SUBSTRUCTURE
     1 AN4         1 TEMP              0 ****  ****    0 ROOT
