@<TRIPOS>MOLECULE
AN4
   24    25     1     0     0
SMALL
bcc


@<TRIPOS>ATOM
      1 N1          1.3210    1.2200    0.3010 n2        1 AN4     -0.585900
      2 C5          2.7560    1.2600    0.2990 c3        1 AN4      0.101800
      3 C4          3.4970   -0.0760    0.2960 c3        1 AN4     -0.108400
      4 C3          2.7790   -1.0900   -0.5680 c3        1 AN4     -0.079400
      5 C2          1.3320   -1.2330   -0.1390 c3        1 AN4     -0.165700
      6 C1          0.6860    0.1120    0.0950 ce        1 AN4      0.464900
      7 N2         -2.8370   -1.1260    0.5700 nb        1 AN4     -0.668000
      8 C7         -1.5360    1.1780   -0.3960 ca        1 AN4     -0.057000
      9 C8         -2.9300    1.0970   -0.3910 ca        1 AN4     -0.253300
     10 C9         -3.5350   -0.0730    0.1000 ca        1 AN4      0.399200
     11 C10        -1.4950   -1.0370    0.5590 ca        1 AN4      0.407200
     12 C70        -0.7900    0.0920    0.0830 ca        1 AN4     -0.248200
     13 H51C        3.0620    1.8570   -0.6090 h1        1 AN4      0.065700
     14 H52C        3.0610    1.8510    1.2100 h1        1 AN4      0.065700
     15 H21C        0.7570   -1.7940   -0.9200 hc        1 AN4      0.061700
     16 H22C        1.2780   -1.8220    0.8160 hc        1 AN4      0.061700
     17 H31C        2.8220   -0.7650   -1.6410 hc        1 AN4      0.047200
     18 H32C        3.2910   -2.0840   -0.4970 hc        1 AN4      0.047200
     19 H41C        4.5390    0.0820   -0.0820 hc        1 AN4      0.049200
     20 H42C        3.5730   -0.4660    1.3440 hc        1 AN4      0.049200
     21 H10        -0.9560   -1.9160    0.9570 h4        1 AN4      0.022100
     22 H7         -1.0320    2.0840   -0.7660 ha        1 AN4      0.155000
     23 H8         -3.5440    1.9280   -0.7590 ha        1 AN4      0.145000
     24 H9         -4.6340   -0.1790    0.1210 h4        1 AN4      0.022100
@<TRIPOS>BOND
     1    1    2 1   
     2    1    6 2   
     3    2    3 1   
     4    2   13 1   
     5    2   14 1   
     6    3    4 1   
     7    3   19 1   
     8    3   20 1   
     9    4    5 1   
    10    4   17 1   
    11    4   18 1   
    12    5    6 1   
    13    5   15 1   
    14    5   16 1   
    15    6   12 1   
    16    7   10 ar  
    17    7   11 ar  
    18    8    9 ar  
    19    8   12 ar  
    20    8   22 1   
    21    9   10 ar  
    22    9   23 1   
    23   10   24 1   
    24   11   12 ar  
    25   11   21 1   
@<TRIPOS>SUBSTRUCTURE
     1 AN4         1 TEMP              0 ****  ****    0 ROOT
