@<TRIPOS>MOLECULE
AN4
   24    25     1     0     0
SMALL
bcc


@<TRIPOS>ATOM
      1 N1          0.0450    0.3900    0.0690 n2        1 AN4     -0.585900
      2 C5          1.4740    0.3720    0.2050 c3        1 AN4      0.101800
      3 C4          2.0500   -0.1310    1.5280 c3        1 AN4     -0.108400
      4 C3          1.2360   -1.2880    2.0660 c3        1 AN4     -0.079400
      5 C2         -0.2270   -0.9100    2.1790 c3        1 AN4     -0.165700
      6 C1         -0.7130   -0.1900    0.9430 ce        1 AN4      0.464900
      7 N2         -4.3690   -0.1230    1.8340 nb        1 AN4     -0.668000
      8 C7         -2.7780   -0.2130   -0.4890 ca        1 AN4     -0.057000
      9 C8         -4.1710   -0.2090   -0.5800 ca        1 AN4     -0.253300
     10 C9         -4.9240   -0.1640    0.6060 ca        1 AN4      0.399200
     11 C10        -3.0270   -0.1300    1.9090 ca        1 AN4      0.407200
     12 C70        -2.1800   -0.1780    0.7780 ca        1 AN4     -0.248200
     13 H51C        1.8260    1.4290    0.0260 h1        1 AN4      0.065700
     14 H52C        1.8720   -0.2630   -0.6390 h1        1 AN4      0.065700
     15 H21C       -0.8470   -1.8290    2.3450 hc        1 AN4      0.061700
     16 H22C       -0.3750   -0.2320    3.0620 hc        1 AN4      0.061700
     17 H31C        1.6230   -1.5930    3.0720 hc        1 AN4      0.047200
     18 H32C        1.3440   -2.1710    1.3820 hc        1 AN4      0.047200
     19 H41C        3.1120   -0.4470    1.3710 hc        1 AN4      0.049200
     20 H42C        2.0530    0.7040    2.2780 hc        1 AN4      0.049200
     21 H10        -2.6070   -0.0890    2.9300 h4        1 AN4      0.022100
     22 H7         -2.1600   -0.2400   -1.3990 ha        1 AN4      0.155000
     23 H8         -4.6720   -0.2370   -1.5560 ha        1 AN4      0.145000
     24 H9         -6.0280   -0.1590    0.5780 h4        1 AN4      0.022100
@<TRIPOS>BOND
     1    1    2 1   
     2    1    6 2   
     3    2    3 1   
     4    2   13 1   
     5    2   14 1   
     6    3    4 1   
     7    3   19 1   
     8    3   20 1   
     9    4    5 1   
    10    4   17 1   
    11    4   18 1   
    12    5    6 1   
    13    5   15 1   
    14    5   16 1   
    15    6   12 1   
    16    7   10 ar  
    17    7   11 ar  
    18    8    9 ar  
    19    8   12 ar  
    20    8   22 1   
    21    9   10 ar  
    22    9   23 1   
    23   10   24 1   
    24   11   12 ar  
    25   11   21 1   
@<TRIPOS>SUBSTRUCTURE
     1 AN4         1 TEMP              0 ****  ****    0 ROOT
