@<TRIPOS>MOLECULE
AN4
   24    25     1     0     0
SMALL
bcc


@<TRIPOS>ATOM
      1 N1          0.0450    0.3590    0.0450 n2        1 AN4     -0.584900
      2 C5          1.4750    0.3380    0.1750 c3        1 AN4      0.101800
      3 C4          2.0540   -0.1310    1.5090 c3        1 AN4     -0.108400
      4 C3          1.2360   -1.2680    2.0820 c3        1 AN4     -0.079400
      5 C2         -0.2240   -0.8790    2.1920 c3        1 AN4     -0.165700
      6 C1         -0.7120   -0.1910    0.9390 ce        1 AN4      0.464900
      7 N2         -4.3630   -0.0770    1.8450 nb        1 AN4     -0.668000
      8 C7         -2.7840   -0.2440   -0.4820 ca        1 AN4     -0.057000
      9 C8         -4.1770   -0.2340   -0.5670 ca        1 AN4     -0.253300
     10 C9         -4.9240   -0.1510    0.6210 ca        1 AN4      0.399200
     11 C10        -3.0200   -0.0900    1.9130 ca        1 AN4      0.407200
     12 C70        -2.1790   -0.1750    0.7800 ca        1 AN4     -0.248200
     13 H51C        1.8650   -0.3240   -0.6530 h1        1 AN4      0.065700
     14 H52C        1.8320    1.3860   -0.0350 h1        1 AN4      0.065700
     15 H21C       -0.8480   -1.7890    2.3870 hc        1 AN4      0.061700
     16 H22C       -0.3640   -0.1760    3.0570 hc        1 AN4      0.061700
     17 H31C        1.6270   -1.5480    3.0950 hc        1 AN4      0.047200
     18 H32C        1.3360   -2.1710    1.4240 hc        1 AN4      0.047200
     19 H41C        3.1140   -0.4580    1.3560 hc        1 AN4      0.049200
     20 H42C        2.0660    0.7230    2.2340 hc        1 AN4      0.049200
     21 H10        -2.5950   -0.0220    2.9310 h4        1 AN4      0.022100
     22 H7         -2.1710   -0.3010   -1.3940 ha        1 AN4      0.155000
     23 H8         -4.6840   -0.2880   -1.5390 ha        1 AN4      0.145000
     24 H9         -6.0290   -0.1400    0.5990 h4        1 AN4      0.022100
@<TRIPOS>BOND
     1    1    2 1   
     2    1    6 2   
     3    2    3 1   
     4    2   13 1   
     5    2   14 1   
     6    3    4 1   
     7    3   19 1   
     8    3   20 1   
     9    4    5 1   
    10    4   17 1   
    11    4   18 1   
    12    5    6 1   
    13    5   15 1   
    14    5   16 1   
    15    6   12 1   
    16    7   10 ar  
    17    7   11 ar  
    18    8    9 ar  
    19    8   12 ar  
    20    8   22 1   
    21    9   10 ar  
    22    9   23 1   
    23   10   24 1   
    24   11   12 ar  
    25   11   21 1   
@<TRIPOS>SUBSTRUCTURE
     1 AN4         1 TEMP              0 ****  ****    0 ROOT
