@<TRIPOS>MOLECULE
AN5
   27    24     1     0     0
SMALL
bcc


@<TRIPOS>ATOM
      1 C11         2.8440    0.3980    2.1810 c1        1 AN5      0.018500
      2 C12         4.1680    0.8220    2.1950 c1        1 AN5     -0.062500
      3 C13         4.7760    1.2290    1.0210 c1        1 AN5     -0.062500
      4 N11         4.0710    1.2130   -0.1620 n1        1 AN5     -0.472800
      5 C14         2.7870    0.8030   -0.1790 c1        1 AN5      0.349300
      6 C15         2.1580    0.3840    1.0280 cg        1 AN5     -0.178200
      7 C16         0.7310   -0.0660    1.0180 c         1 AN5      0.531300
      8 C17        -0.0870   -0.0770   -0.3340 c3        1 AN5     -0.176400
      9 C18        -1.4820   -0.6850   -0.0820 c3        1 AN5     -0.071400
     10 O11         0.2050   -0.4080    2.0380 o         1 AN5     -0.531100
     11 C10        -3.7610   -0.9580   -1.0410 c3        1 AN5      0.151800
     12 N12        -4.6090   -0.6420   -2.1140 n3        1 AN5     -0.905800
     13 C1         -2.4140   -0.3500   -1.2740 c3        1 AN5     -0.122400
     14 H11         2.4290    0.1200    2.9800 ha        1 AN5      0.105500
     15 H12         4.6710    0.8360    3.0430 ha        1 AN5      0.099500
     16 H13         5.7090    1.5250    1.0320 ha        1 AN5      0.099500
     17 H14         2.3020    0.7930   -0.9950 ha        1 AN5      0.104500
     18 H171       -0.1860    0.8060   -0.6450 hc        1 AN5      0.067700
     19 H172        0.4290   -0.6560   -1.0630 hc        1 AN5      0.067700
     20 H181       -1.8970   -0.2690    0.8310 hc        1 AN5      0.057700
     21 H182       -1.4020   -1.6690    0.0080 hc        1 AN5      0.057700
     22 H11C       -2.0390   -0.7040   -2.0860 hc        1 AN5      0.036700
     23 H12C       -2.5010    0.5990   -1.3510 hc        1 AN5      0.036700
     24 H101       -4.1670   -0.5810   -0.1530 h1        1 AN5      0.054700
     25 H102       -3.6670   -1.9950   -0.9670 h1        1 AN5      0.054700
     26 H121       -4.9360    0.2300   -2.0070 hn        1 AN5      0.344800
     27 H122       -4.1310   -0.7000   -2.9210 hn        1 AN5      0.344800
@<TRIPOS>BOND
     1    1    6 3   
     2    1   14 1   
     3    2    3 3   
     4    2   15 1   
     5    3   16 1   
     6    4    5 3   
     7    5   17 1   
     8    6    7 1   
     9    7    8 1   
    10    7   10 2   
    11    8    9 1   
    12    8   18 1   
    13    8   19 1   
    14    9   13 1   
    15    9   20 1   
    16    9   21 1   
    17   11   12 1   
    18   11   13 1   
    19   11   24 1   
    20   11   25 1   
    21   12   26 1   
    22   12   27 1   
    23   13   22 1   
    24   13   23 1   
@<TRIPOS>SUBSTRUCTURE
     1 AN5         1 TEMP              0 ****  ****    0 ROOT
