@<TRIPOS>MOLECULE
AN5
   27    27     1     0     0
SMALL
bcc


@<TRIPOS>ATOM
      1 C11        -2.8100   -1.0910    0.0030 ca        1 AN5     -0.039000
      2 C12        -4.0970   -0.5570   -0.0170 ca        1 AN5     -0.259300
      3 C13        -4.2420    0.8420   -0.0240 ca        1 AN5      0.419200
      4 N11        -3.1990    1.6960   -0.0130 nb        1 AN5     -0.673000
      5 C14        -1.9620    1.1670    0.0060 ca        1 AN5      0.431200
      6 C15        -1.7070   -0.2220    0.0150 ca        1 AN5     -0.294900
      7 C16        -0.3390   -0.7780    0.0360 c         1 AN5      0.582700
      8 C17         0.7930    0.2090    0.0130 c3        1 AN5     -0.175400
      9 C18         2.1470   -0.4680    0.0060 c3        1 AN5     -0.075400
     10 O11        -0.1480   -2.0010    0.0710 o         1 AN5     -0.532100
     11 C10         4.6180   -0.1510   -0.0240 c3        1 AN5      0.159800
     12 N12         5.7340    0.7630   -0.0690 n3        1 AN5     -0.916800
     13 C1          3.2620    0.5540    0.0060 c3        1 AN5     -0.082400
     14 H11        -2.6410   -2.1810    0.0100 ha        1 AN5      0.163000
     15 H12        -4.9810   -1.2090   -0.0270 ha        1 AN5      0.150000
     16 H13        -5.2440    1.3100   -0.0400 h4        1 AN5      0.026100
     17 H14        -1.1360    1.9020    0.0150 h4        1 AN5      0.025100
     18 H171        0.6880    0.8550   -0.9000 hc        1 AN5      0.068700
     19 H172        0.7050    0.8740    0.9140 hc        1 AN5      0.068700
     20 H181        2.2330   -1.1360    0.9040 hc        1 AN5      0.056700
     21 H182        2.2280   -1.1280   -0.8970 hc        1 AN5      0.056700
     22 H11C        3.1630    1.2250   -0.8870 hc        1 AN5      0.045700
     23 H12C        3.1850    1.1990    0.9200 hc        1 AN5      0.045700
     24 H101        4.6720   -0.7930   -0.9500 h1        1 AN5      0.026700
     25 H102        4.6660   -0.8510    0.8650 h1        1 AN5      0.026700
     26 H121        5.6820    1.4330    0.6720 hn        1 AN5      0.348800
     27 H122        6.5970    0.2610    0.0020 hn        1 AN5      0.348800
@<TRIPOS>BOND
     1    1    2 ar  
     2    1    6 ar  
     3    1   14 1   
     4    2    3 ar  
     5    2   15 1   
     6    3    4 ar  
     7    3   16 1   
     8    4    5 ar  
     9    5    6 ar  
    10    5   17 1   
    11    6    7 1   
    12    7    8 1   
    13    7   10 2   
    14    8    9 1   
    15    8   18 1   
    16    8   19 1   
    17    9   13 1   
    18    9   20 1   
    19    9   21 1   
    20   11   12 1   
    21   11   13 1   
    22   11   24 1   
    23   11   25 1   
    24   12   26 1   
    25   12   27 1   
    26   13   22 1   
    27   13   23 1   
@<TRIPOS>SUBSTRUCTURE
     1 AN5         1 TEMP              0 ****  ****    0 ROOT
