@<TRIPOS>MOLECULE
AN5
   28    28     1     0     0
SMALL
bcc


@<TRIPOS>ATOM
      1 C11        -0.0050   -0.0120   -0.0080 ca        1 AN5     -0.029000
      2 C12         1.3890   -0.0060   -0.0050 ca        1 AN5     -0.251300
      3 C13         2.0580    0.0060    1.2340 ca        1 AN5      0.435200
      4 N11         1.4190    0.0120    2.4210 nb        1 AN5     -0.666000
      5 C14         0.0750    0.0060    2.4050 ca        1 AN5      0.433200
      6 C15        -0.6920   -0.0060    1.2190 ca        1 AN5     -0.307900
      7 C16        -2.1610   -0.0120    1.2260 c         1 AN5      0.589700
      8 C17        -2.8360   -0.0030    2.5760 c3        1 AN5     -0.182400
      9 C18        -4.3430   -0.0090    2.4300 c3        1 AN5     -0.076400
     10 O11        -2.8290   -0.0240    0.1850 o         1 AN5     -0.531100
     11 C10        -6.5300   -0.0060    3.5760 c3        1 AN5      0.098800
     12 N12        -7.2910    0.0010    4.8620 n4        1 AN5     -0.839600
     13 C1         -5.0210   -0.0010    3.7860 c3        1 AN5     -0.109400
     14 H11        -0.5750   -0.0210   -0.9520 ha        1 AN5      0.166000
     15 H12         1.9580   -0.0100   -0.9450 ha        1 AN5      0.162000
     16 H13         3.1630    0.0110    1.2840 h4        1 AN5      0.039100
     17 H14        -0.4050    0.0120    3.4000 h4        1 AN5      0.015100
     18 H171       -2.5050    0.9100    3.1380 hc        1 AN5      0.075200
     19 H172       -2.4990   -0.9050    3.1520 hc        1 AN5      0.075200
     20 H181       -4.6590    0.8880    1.8330 hc        1 AN5      0.073700
     21 H182       -4.6540   -0.9170    1.8460 hc        1 AN5      0.073700
     22 H11C       -4.7010   -0.9030    4.3720 hc        1 AN5      0.068700
     23 H12C       -4.7060    0.9120    4.3590 hc        1 AN5      0.068700
     24 H101       -6.8370   -0.9280    3.0010 hx        1 AN5      0.116700
     25 H102       -6.8410    0.9070    2.9890 hx        1 AN5      0.116700
     26 H121       -7.0560    0.8370    5.4060 hn        1 AN5      0.462133
     27 H122       -7.0520   -0.8270    5.4170 hn        1 AN5      0.462133
     28 H123       -8.2990   -0.0030    4.6730 hn        1 AN5      0.462133
@<TRIPOS>BOND
     1    1    2 ar  
     2    1    6 ar  
     3    1   14 1   
     4    2    3 ar  
     5    2   15 1   
     6    3    4 ar  
     7    3   16 1   
     8    4    5 ar  
     9    5    6 ar  
    10    5   17 1   
    11    6    7 1   
    12    7    8 1   
    13    7   10 2   
    14    8    9 1   
    15    8   18 1   
    16    8   19 1   
    17    9   13 1   
    18    9   20 1   
    19    9   21 1   
    20   11   12 1   
    21   11   13 1   
    22   11   24 1   
    23   11   25 1   
    24   12   26 1   
    25   12   27 1   
    26   12   28 1   
    27   13   22 1   
    28   13   23 1   
@<TRIPOS>SUBSTRUCTURE
     1 AN5         1 TEMP              0 ****  ****    0 ROOT
