@<TRIPOS>MOLECULE
AN6
   52    46     1     0     0
SMALL
bcc


@<TRIPOS>ATOM
      1 C'          0.9760    6.1690    0.2270 c1        1 AN6      0.308000
      2 N'         -0.3330    6.3310   -1.7770 n3        1 AN6     -0.327000
      3 O'          2.1110    6.2540   -0.3270 o         1 AN6     -0.579000
      4 C1         -1.7390    1.8950   -3.2420 c3        1 AN6     -0.209000
      5 N1          3.4670   -6.3150    0.9150 n1        1 AN6     -0.277000
      6 C2          2.2430   -6.3880    0.2720 c1        1 AN6      0.015000
      7 C3         -2.2350    1.6810   -1.7860 c3        1 AN6     -0.075000
      8 N3          1.3970   -5.2980    0.2720 n1        1 AN6     -0.233000
      9 C4          1.7660   -4.1490    0.9040 c1        1 AN6     -0.090000
     10 C5          2.9630   -4.0770    1.5340 c1        1 AN6     -0.090000
     11 C6          3.8290   -5.1950    1.5330 c1        1 AN6      0.232000
     12 N6          5.0410   -5.3960    2.3000 n3        1 AN6     -0.350000
     13 N7          3.0560   -2.8470    2.1290 n1        1 AN6     -0.160500
     14 C8          1.8990   -2.1550    1.8620 c1        1 AN6     -0.007000
     15 N9          1.1020   -2.9470    1.1100 n1        1 AN6     -0.160500
     16 C1'        -0.0210   -2.4790    0.3490 c2        1 AN6      0.135000
     17 N10        -1.1250    1.9520   -0.8340 n3        1 AN6     -0.257000
     18 C2'        -1.1220   -2.6020    1.0480 c3        1 AN6     -0.033000
     19 O2'        -1.7930   -3.8690    0.7240 oh        1 AN6     -0.324000
     20 C3'        -2.0160   -1.3860    0.6140 c3        1 AN6      0.012000
     21 O3'        -3.0190   -1.8000   -0.1460 oh        1 AN6     -0.306000
     22 C4'        -1.0780   -0.4390   -0.1940 c3        1 AN6     -0.017000
     23 O4'         0.1380   -0.8880    0.0280 os        1 AN6     -0.263000
     24 C5'        -1.2190    1.0160    0.3130 c3        1 AN6     -0.084000
     25 O5'         0.8490    6.4520    1.4540 os        1 AN6     -0.573000
     26 CA'        -0.2050    5.6250   -0.5480 c3        1 AN6     -0.130000
     27 CB'         0.0110    4.1500   -0.8280 c3        1 AN6     -0.150000
     28 CG'        -1.2220    3.3460   -0.3430 c3        1 AN6     -0.074000
     29 HN'         0.1340    7.1140   -1.7300 hn        1 AN6      0.128500
     30 HN'A       -1.2210    6.5130   -1.9350 hn        1 AN6      0.128500
     31 H1         -2.0590    2.7570   -3.5730 hc        1 AN6      0.075667
     32 H1A        -2.0880    1.1720   -3.8180 hc        1 AN6      0.075667
     33 H1B        -0.7600    1.8830   -3.2580 hc        1 AN6      0.075667
     34 H2          1.9630   -7.1010   -0.3130 ha        1 AN6      0.178000
     35 H3         -2.5390    0.7550   -1.6780 h1        1 AN6      0.062000
     36 H3A        -2.9860    2.2960   -1.6010 h1        1 AN6      0.062000
     37 HN6         5.3920   -4.7030    2.7950 hn        1 AN6      0.239000
     38 HN6A        5.4380   -6.2310    2.3270 hn        1 AN6      0.239000
     39 H8          1.6670   -1.2940    2.2120 DU        1 AN6      0.236000
     40 H1'        -0.0950   -2.9860   -0.4920 h4        1 AN6      0.131000
     41 H2'        -0.9220   -2.5550    2.0170 h1        1 AN6      0.117000
     42 HO2'       -2.2450   -4.1500    1.4250 ho        1 AN6      0.227000
     43 H3'        -2.3600   -0.9250    1.4010 h1        1 AN6      0.138000
     44 HO3'       -3.7850   -1.7340    0.3100 ho        1 AN6      0.215000
     45 H4'        -1.2840   -0.4880   -1.1290 h1        1 AN6      0.139000
     46 H5'        -2.0880    1.1250    0.7530 h1        1 AN6      0.091000
     47 H5'A       -0.5110    1.2070    0.9460 h1        1 AN6      0.091000
     48 HA'        -1.0190    5.7400   -0.0220 h1        1 AN6      0.080000
     49 HB'         0.8110    3.8410   -0.3520 hc        1 AN6      0.093000
     50 HB'A        0.1330    4.0130   -1.7940 hc        1 AN6      0.093000
     51 HG'        -2.0500    3.7650   -0.6950 h1        1 AN6      0.075500
     52 HG'A       -1.2470    3.3460    0.6460 h1        1 AN6      0.075500
@<TRIPOS>BOND
     1    1    3 1   
     2    1   26 1   
     3    2   26 1   
     4    2   29 1   
     5    2   30 1   
     6    4    7 1   
     7    4   31 1   
     8    4   32 1   
     9    4   33 1   
    10    5   11 1   
    11    6    8 1   
    12    6   34 1   
    13    7   17 1   
    14    7   35 1   
    15    7   36 1   
    16    9   10 1   
    17   11   12 1   
    18   12   37 1   
    19   12   38 1   
    20   13   14 1   
    21   14   15 1   
    22   16   18 1   
    23   16   23 1   
    24   16   40 1   
    25   17   24 1   
    26   17   28 1   
    27   18   19 1   
    28   18   20 1   
    29   18   41 1   
    30   19   42 1   
    31   20   21 1   
    32   20   22 1   
    33   20   43 1   
    34   21   44 1   
    35   22   23 1   
    36   22   24 1   
    37   22   45 1   
    38   24   46 1   
    39   24   47 1   
    40   26   27 1   
    41   26   48 1   
    42   27   28 1   
    43   27   49 1   
    44   27   50 1   
    45   28   51 1   
    46   28   52 1   
@<TRIPOS>SUBSTRUCTURE
     1 AN6         1 TEMP              0 ****  ****    0 ROOT
