@<TRIPOS>MOLECULE
AN6
   52    54     1     0     0
SMALL
bcc


@<TRIPOS>ATOM
      1 C'         -4.3560   -2.5190   -1.5170 c         1 AN6      0.889600
      2 N'         -4.6690   -2.3580    1.0020 n3        1 AN6     -0.894800
      3 O'         -4.6210   -3.7490   -1.3980 o         1 AN6     -0.841800
      4 C1         -3.2980    2.2720    2.9700 c3        1 AN6     -0.093100
      5 N1          4.9390   -2.1230   -0.1240 nb        1 AN6     -0.796000
      6 C2          4.9970   -0.8750   -0.6640 ca        1 AN6      0.674900
      7 C3         -2.5340    2.5160    1.6790 c3        1 AN6      0.165800
      8 N3          4.1120    0.1460   -0.6010 nb        1 AN6     -0.755000
      9 C4          3.0030   -0.1690    0.1370 ca        1 AN6      0.435800
     10 C5          2.8000   -1.4580    0.7870 ca        1 AN6     -0.209200
     11 C6          3.8320   -2.4400    0.6270 ca        1 AN6      0.741200
     12 N6          3.7310   -3.6580    1.2660 nh        1 AN6     -0.939500
     13 N7          1.5650   -1.4690    1.4520 nc        1 AN6     -0.554100
     14 C8          1.0290   -0.2600    1.2260 cd        1 AN6      0.449700
     15 N9          1.8550    0.5780    0.4350 na        1 AN6     -0.290000
     16 C1'         1.6590    1.9540    0.0400 c3        1 AN6      0.224800
     17 N10        -2.2190    1.3180    0.9130 n3        1 AN6     -0.734600
     18 C2'         1.5620    2.1560   -1.5100 c3        1 AN6      0.078100
     19 O2'         2.5460    3.0830   -1.9170 oh        1 AN6     -0.597800
     20 C3'         0.1680    2.7770   -1.7500 c3        1 AN6      0.124100
     21 O3'         0.2180    4.0930   -2.2470 oh        1 AN6     -0.577800
     22 C4'        -0.5360    2.7170   -0.3740 c3        1 AN6      0.090100
     23 O4'         0.4750    2.4950    0.6230 os        1 AN6     -0.398600
     24 C5'        -1.6000    1.6140   -0.3700 c3        1 AN6      0.146800
     25 O5'        -4.0520   -1.9540   -2.6040 o         1 AN6     -0.841800
     26 CA'        -4.4350   -1.6230   -0.2340 c3        1 AN6      0.017500
     27 CB'        -3.1850   -0.7420   -0.1930 c3        1 AN6     -0.072400
     28 CG'        -3.3690    0.4210    0.7760 c3        1 AN6      0.158800
     29 HN'        -5.3470   -3.0750    0.7970 hn        1 AN6      0.333300
     30 HN'A       -3.8220   -2.8380    1.2550 hn        1 AN6      0.333300
     31 H1         -4.3420    1.9350    2.7630 hc        1 AN6      0.036367
     32 H1A        -2.7940    1.4990    3.5980 hc        1 AN6      0.036367
     33 H1B        -3.3400    3.2280    3.5460 hc        1 AN6      0.036367
     34 H3         -3.1200    3.2610    1.0620 h1        1 AN6      0.022700
     35 H3A        -1.5460    2.9960    1.9440 h1        1 AN6      0.022700
     36 HN6         2.8300   -3.9100    1.6000 hn        1 AN6      0.434800
     37 HN6A        4.3380   -4.3920    0.9890 hn        1 AN6      0.434800
     38 H1'         2.5150    2.5640    0.4640 h2        1 AN6      0.091700
     39 H2'         1.6690    1.1920   -2.0720 h1        1 AN6      0.083700
     40 HO2'        3.3880    2.6090   -1.9160 ho        1 AN6      0.429000
     41 H3'        -0.4020    2.2000   -2.5290 h1        1 AN6      0.109700
     42 HO3'        0.8940    4.5740   -1.7500 ho        1 AN6      0.415000
     43 H4'        -0.9790    3.7160   -0.1110 h1        1 AN6      0.084700
     44 H5'        -1.1120    0.6540   -0.7100 h1        1 AN6      0.055200
     45 H5'A       -2.3660    1.9110   -1.1490 h1        1 AN6      0.055200
     46 HA'        -5.3350   -0.9550   -0.3790 h1        1 AN6      0.040700
     47 HB'        -2.2890   -1.3490    0.0960 hc        1 AN6      0.053700
     48 HB'A       -3.0260   -0.3680   -1.2400 hc        1 AN6      0.053700
     49 HG'        -3.5600    0.0040    1.8060 h1        1 AN6      0.037200
     50 HG'A       -4.2890    0.9980    0.4630 h1        1 AN6      0.037200
     51 H2          5.9150   -0.6730   -1.2560 h5        1 AN6      0.042100
     52 H8          0.0450    0.0940    1.5780 h5        1 AN6      0.118800
@<TRIPOS>BOND
     1    1    3 1   
     2    1   25 1   
     3    1   26 1   
     4    2   26 1   
     5    2   29 1   
     6    2   30 1   
     7    4    7 1   
     8    4   31 1   
     9    4   32 1   
    10    4   33 1   
    11    5    6 ar  
    12    5   11 ar  
    13    6    8 ar  
    14    6   51 1   
    15    7   17 1   
    16    7   34 1   
    17    7   35 1   
    18    8    9 ar  
    19    9   10 ar  
    20    9   15 1   
    21   10   11 ar  
    22   10   13 1   
    23   11   12 1   
    24   12   36 1   
    25   12   37 1   
    26   13   14 2   
    27   14   15 1   
    28   14   52 1   
    29   15   16 1   
    30   16   18 1   
    31   16   23 1   
    32   16   38 1   
    33   17   24 1   
    34   17   28 1   
    35   18   19 1   
    36   18   20 1   
    37   18   39 1   
    38   19   40 1   
    39   20   21 1   
    40   20   22 1   
    41   20   41 1   
    42   21   42 1   
    43   22   23 1   
    44   22   24 1   
    45   22   43 1   
    46   24   44 1   
    47   24   45 1   
    48   26   27 1   
    49   26   46 1   
    50   27   28 1   
    51   27   47 1   
    52   27   48 1   
    53   28   49 1   
    54   28   50 1   
@<TRIPOS>SUBSTRUCTURE
     1 AN6         1 TEMP              0 ****  ****    0 ROOT
