@<TRIPOS>MOLECULE
AN7
   30    30     1     0     0
SMALL
bcc


@<TRIPOS>ATOM
      1 CAA         0.2830   -1.0760   -0.1900 c3        1 AN7     -0.106400
      2 OAB         0.0960   -0.7900   -5.6350 o         1 AN7     -0.833300
      3 OAC         2.5730   -2.7420   -4.8270 o         1 AN7     -0.561100
      4 OAD         8.0640   -0.5530   -1.0040 o         1 AN7     -0.931500
      5 OAE         1.2140   -1.6010   -7.3930 o         1 AN7     -0.833300
      6 OAF         0.7400   -0.4650   -2.7710 oh        1 AN7     -0.524100
      7 OAG         8.0760    1.1050    0.9410 o         1 AN7     -0.931500
      8 OAH         8.4650    1.9200   -1.4490 o         1 AN7     -0.931500
      9 CAI         3.1420   -0.4180   -4.9890 ce        1 AN7     -0.259200
     10 CAJ         3.4610    0.2150   -3.8560 cf        1 AN7     -0.052200
     11 CAK         3.8670   -0.2400   -0.1460 ca        1 AN7      0.366200
     12 CAL         5.6030    0.4900   -1.8020 c3        1 AN7      0.239700
     13 NAM         2.6600   -0.6100    0.2900 nb        1 AN7     -0.681000
     14 OAN         6.1750    1.1030   -0.7180 os        1 AN7     -0.568200
     15 CAO         1.1130   -1.3210   -6.1670 c         1 AN7      0.844600
     16 CAP         2.3150   -1.6110   -5.2500 c         1 AN7      0.457300
     17 CAQ         1.6600   -0.6980   -0.6230 ca        1 AN7      0.294600
     18 CAR         1.8760   -0.4270   -2.0010 ca        1 AN7      0.036800
     19 CAS         4.1900    0.0450   -1.4990 ca        1 AN7     -0.100600
     20 CAT         3.1690   -0.0840   -2.4630 ca        1 AN7     -0.137800
     21 PAU         7.8980    0.8690   -0.5340 p5        1 AN7      1.314900
     22 HAA        -0.3890   -0.1850   -0.2700 hc        1 AN7      0.022033
     23 HAAA        0.2560   -1.4520    0.8610 hc        1 AN7      0.022033
     24 HAAB       -0.1140   -1.8680   -0.8720 hc        1 AN7      0.022033
     25 HOAF        0.9720   -0.4010   -3.7150 ho        1 AN7      0.458000
     26 HAI         3.4990    0.0160   -5.9440 ha        1 AN7      0.122000
     27 HAJ         4.0820    1.1310   -3.9600 ha        1 AN7      0.128000
     28 HAK         4.6720   -0.1310    0.6110 h4        1 AN7      0.067100
     29 HAL         5.5480    1.2070   -2.6790 h1        1 AN7      0.027200
     30 HALA        6.2120   -0.4160   -2.1090 h1        1 AN7      0.027200
@<TRIPOS>BOND
     1    1   17 1   
     2    1   22 1   
     3    1   23 1   
     4    1   24 1   
     5    2   15 1   
     6    3   16 2   
     7    4   21 1   
     8    5   15 1   
     9    6   18 1   
    10    6   25 1   
    11    7   21 1   
    12    8   21 1   
    13    9   10 2   
    14    9   16 1   
    15    9   26 1   
    16   10   20 1   
    17   10   27 1   
    18   11   13 ar  
    19   11   19 ar  
    20   11   28 1   
    21   12   14 1   
    22   12   19 1   
    23   12   29 1   
    24   12   30 1   
    25   13   17 ar  
    26   14   21 1   
    27   15   16 1   
    28   17   18 ar  
    29   18   20 ar  
    30   19   20 ar  
@<TRIPOS>SUBSTRUCTURE
     1 AN7         1 TEMP              0 ****  ****    0 ROOT
