@<TRIPOS>MOLECULE
AN7
   30    27     1     0     0
SMALL
bcc


@<TRIPOS>ATOM
      1 CAA        -3.3660   -0.1160    2.3170 c3        1 AN7     -0.130000
      2 OAB         0.0190    2.2740   -4.5250 o         1 AN7     -0.567500
      3 OAC        -0.5750    1.8000   -1.4460 o         1 AN7     -0.328000
      4 OAD         4.8770   -1.2060   -0.2690 o         1 AN7     -0.931167
      5 OAE        -2.1380    2.3130   -4.0960 o         1 AN7     -0.567500
      6 OAF        -2.7800   -0.3940   -0.4750 oh        1 AN7     -0.278000
      7 OAG         5.1720   -1.5400    2.2060 o         1 AN7     -0.931167
      8 OAH         4.9290    0.7360    1.2660 o         1 AN7     -0.931167
      9 CAI        -0.5020   -0.2250   -2.5570 c1        1 AN7     -0.152500
     10 CAJ        -0.3490   -0.9640   -1.3910 c1        1 AN7     -0.152500
     11 CAK         0.3800    0.1010    2.2120 c1        1 AN7     -0.104000
     12 CAL         2.0830   -0.1440    0.3260 c3        1 AN7      0.078000
     13 NAM        -0.8880    0.1060    2.6700 n1        1 AN7     -0.154000
     14 OAN         2.9090   -0.7640    1.3040 os        1 AN7     -0.728000
     15 CAO        -0.9590    2.0050   -3.7540 c2        1 AN7      0.315000
     16 CAP        -0.7240    1.2220   -2.4880 c1        1 AN7      0.201000
     17 CAQ        -1.9430   -0.0760    1.7930 c2        1 AN7     -0.127000
     18 CAR        -1.6950   -0.2650    0.4340 c2        1 AN7      0.059000
     19 CAS         0.6330   -0.0900    0.8390 c2        1 AN7     -0.031000
     20 CAT        -0.4110   -0.2700   -0.0310 c1        1 AN7     -0.130000
     21 PAU         4.4880   -0.6820    1.1270 p5        1 AN7      1.549500
     22 HAA        -3.7590   -0.9670    2.1110 hc        1 AN7      0.061667
     23 HAAA       -3.3590    0.0150    3.2920 hc        1 AN7      0.061667
     24 HAAB       -3.8860    0.5910    1.8990 hc        1 AN7      0.061667
     25 HOAF       -3.1470   -1.2060   -0.3890 ho        1 AN7      0.258000
     26 HAI        -0.4640   -0.6550   -3.3950 ha        1 AN7      0.129500
     27 HAJ        -0.1990   -1.9360   -1.4400 ha        1 AN7      0.129500
     28 HAK         1.1300    0.2270    2.8390 ha        1 AN7      0.206000
     29 HAL         2.4100    0.7880    0.1520 h1        1 AN7      0.068000
     30 HALA        2.1170   -0.6770   -0.5310 h1        1 AN7      0.068000
@<TRIPOS>BOND
     1    1   17 1   
     2    1   22 1   
     3    1   23 1   
     4    1   24 1   
     5    2   15 1   
     6    3   16 1   
     7    4   21 1   
     8    5   15 1   
     9    6   18 1   
    10    6   25 1   
    11    7   21 1   
    12    8   21 1   
    13    9   10 1   
    14    9   26 1   
    15   10   27 1   
    16   11   19 1   
    17   11   28 1   
    18   12   14 1   
    19   12   19 1   
    20   12   29 1   
    21   12   30 1   
    22   13   17 1   
    23   14   21 1   
    24   15   16 1   
    25   17   18 1   
    26   18   20 1   
    27   19   20 1   
@<TRIPOS>SUBSTRUCTURE
     1 AN7         1 TEMP              0 ****  ****    0 ROOT
