@<TRIPOS>MOLECULE
AN7
   30    30     1     0     0
SMALL
bcc


@<TRIPOS>ATOM
      1 CAA         0.2930   -1.1300   -0.1960 c3        1 AN7     -0.106400
      2 OAB         0.0920   -0.7590   -5.6350 o         1 AN7     -0.833300
      3 OAC         2.5830   -2.7080   -4.8640 o         1 AN7     -0.561100
      4 OAD         8.0690   -0.5440   -1.0180 o         1 AN7     -0.931500
      5 OAE         1.2110   -1.5340   -7.4090 o         1 AN7     -0.833300
      6 OAF         0.7410   -0.4750   -2.7670 oh        1 AN7     -0.524100
      7 OAG         8.0740    1.0840    0.9530 o         1 AN7     -0.931500
      8 OAH         8.4520    1.9380   -1.4250 o         1 AN7     -0.931500
      9 CAI         3.1360   -0.3780   -4.9900 ce        1 AN7     -0.259200
     10 CAJ         3.4540    0.2390   -3.8480 cf        1 AN7     -0.052200
     11 CAK         3.8720   -0.2720   -0.1460 ca        1 AN7      0.366200
     12 CAL         5.5990    0.4950   -1.7940 c3        1 AN7      0.239700
     13 NAM         2.6680   -0.6560    0.2860 nb        1 AN7     -0.681000
     14 OAN         6.1700    1.0950   -0.7020 os        1 AN7     -0.568200
     15 CAO         1.1110   -1.2740   -6.1780 c         1 AN7      0.844600
     16 CAP         2.3170   -1.5710   -5.2690 c         1 AN7      0.457300
     17 CAQ         1.6660   -0.7370   -0.6260 ca        1 AN7      0.294600
     18 CAR         1.8770   -0.4420   -2.0000 ca        1 AN7      0.036800
     19 CAS         4.1900    0.0370   -1.4960 ca        1 AN7     -0.100600
     20 CAT         3.1670   -0.0840   -2.4590 ca        1 AN7     -0.137800
     21 PAU         7.8940    0.8690   -0.5250 p5        1 AN7      1.314900
     22 HAA        -0.3850   -0.2420   -0.2600 hc        1 AN7      0.022033
     23 HAAA        0.2710   -1.5230    0.8490 hc        1 AN7      0.022033
     24 HAAB       -0.1000   -1.9140   -0.8900 hc        1 AN7      0.022033
     25 HOAF        0.9700   -0.3950   -3.7120 ho        1 AN7      0.458000
     26 HAI         3.4880    0.0740   -5.9390 ha        1 AN7      0.122000
     27 HAJ         4.0700    1.1620   -3.9380 ha        1 AN7      0.128000
     28 HAK         4.6780   -0.1700    0.6110 h4        1 AN7      0.067100
     29 HAL         5.5370    1.2260   -2.6600 h1        1 AN7      0.027200
     30 HALA        6.2130   -0.4010   -2.1170 h1        1 AN7      0.027200
@<TRIPOS>BOND
     1    1   17 1   
     2    1   22 1   
     3    1   23 1   
     4    1   24 1   
     5    2   15 1   
     6    3   16 2   
     7    4   21 1   
     8    5   15 1   
     9    6   18 1   
    10    6   25 1   
    11    7   21 1   
    12    8   21 1   
    13    9   10 2   
    14    9   16 1   
    15    9   26 1   
    16   10   20 1   
    17   10   27 1   
    18   11   13 ar  
    19   11   19 ar  
    20   11   28 1   
    21   12   14 1   
    22   12   19 1   
    23   12   29 1   
    24   12   30 1   
    25   13   17 ar  
    26   14   21 1   
    27   15   16 1   
    28   17   18 ar  
    29   18   20 ar  
    30   19   20 ar  
@<TRIPOS>SUBSTRUCTURE
     1 AN7         1 TEMP              0 ****  ****    0 ROOT
