@<TRIPOS>MOLECULE
AN7
   30    30     1     0     0
SMALL
bcc


@<TRIPOS>ATOM
      1 CAA        -0.9010    4.5920    0.2470 c3        1 AN7     -0.106400
      2 OAB        -5.7560   -0.8280   -0.9120 o         1 AN7     -0.838800
      3 OAC        -3.1640   -2.6620   -0.8670 o         1 AN7     -0.594100
      4 OAD         5.0860   -1.3700    0.8470 o         1 AN7     -0.923833
      5 OAE        -5.5210   -1.7840    1.0900 o         1 AN7     -0.838800
      6 OAF        -2.4620    2.4330   -0.2860 oh        1 AN7     -0.537100
      7 OAG         4.3940    0.9190   -0.0580 o         1 AN7     -0.923833
      8 OAH         3.9140   -1.1780   -1.4180 o         1 AN7     -0.923833
      9 CAI        -2.6780   -0.5230    0.0740 ce        1 AN7     -0.277200
     10 CAJ        -1.4440   -0.3350   -0.4240 cf        1 AN7     -0.035200
     11 CAK         1.5690    1.8610    0.2350 ca        1 AN7      0.364200
     12 CAL         1.5380   -0.6290   -0.0900 c3        1 AN7      0.237700
     13 NAM         1.0590    3.0880    0.3270 nb        1 AN7     -0.677000
     14 OAN         2.6440   -0.6760    0.7170 os        1 AN7     -0.563200
     15 CAO        -5.0630   -1.3980   -0.0220 c         1 AN7      0.849600
     16 CAP        -3.5730   -1.6290   -0.3160 c         1 AN7      0.469300
     17 CAQ        -0.2850    3.2360    0.1580 ca        1 AN7      0.303600
     18 CAR        -1.1270    2.1310   -0.0960 ca        1 AN7     -0.006200
     19 CAS         0.7940    0.6850    0.0030 ca        1 AN7     -0.127600
     20 CAT        -0.5920    0.8170   -0.1580 ca        1 AN7     -0.144800
     21 PAU         4.1930   -0.5790   -0.0650 p5        1 AN7      1.316900
     22 HAA        -1.5840    4.7480   -0.6240 hc        1 AN7      0.020033
     23 HAAA       -1.5120    4.6630    1.1810 hc        1 AN7      0.020033
     24 HAAB       -0.1350    5.4050    0.2580 hc        1 AN7      0.020033
     25 HOAF       -2.8940    1.6560   -0.6730 ho        1 AN7      0.428000
     26 HAI        -3.1190    0.1710    0.8090 ha        1 AN7      0.132000
     27 HAJ        -1.0030   -1.0930   -1.1010 ha        1 AN7      0.146000
     28 HAK         2.7010    1.7160    0.3170 h4        1 AN7      0.154100
     29 HAL         1.8290   -0.7800   -1.1760 h1        1 AN7      0.027700
     30 HALA        0.8230   -1.4500    0.2160 h1        1 AN7      0.027700
@<TRIPOS>BOND
     1    1   17 1   
     2    1   22 1   
     3    1   23 1   
     4    1   24 1   
     5    2   15 1   
     6    3   16 2   
     7    4   21 1   
     8    5   15 1   
     9    6   18 1   
    10    6   25 1   
    11    7   21 1   
    12    8   21 1   
    13    9   10 2   
    14    9   16 1   
    15    9   26 1   
    16   10   20 1   
    17   10   27 1   
    18   11   13 ar  
    19   11   19 ar  
    20   11   28 1   
    21   12   14 1   
    22   12   19 1   
    23   12   29 1   
    24   12   30 1   
    25   13   17 ar  
    26   14   21 1   
    27   15   16 1   
    28   17   18 ar  
    29   18   20 ar  
    30   19   20 ar  
@<TRIPOS>SUBSTRUCTURE
     1 AN7         1 TEMP              0 ****  ****    0 ROOT
