@<TRIPOS>MOLECULE
AN8
   30    29     1     0     0
SMALL
bcc


@<TRIPOS>ATOM
      1 C           3.6850   -0.4620    0.0170 c         1 AN8      0.887600
      2 N           2.6350    1.8480    0.1520 n3        1 AN8     -0.891800
      3 O           4.6940    0.1090   -0.4890 o         1 AN8     -0.845800
      4 CA          2.4610    0.4260    0.4220 c3        1 AN8      0.018500
      5 CB          1.2080   -0.1670   -0.2230 c3        1 AN8     -0.063400
      6 CAA        -6.2860   -0.4470   -0.2920 c3        1 AN8     -0.090100
      7 CAI        -5.0690    0.2180    0.2970 c3        1 AN8     -0.080400
      8 CAJ        -3.7880   -0.3560   -0.2720 c3        1 AN8     -0.079400
      9 CAK        -2.5680    0.3150    0.3220 c3        1 AN8     -0.078400
     10 CAL        -1.2890   -0.2610   -0.2460 c3        1 AN8     -0.080400
     11 CAM        -0.0680    0.4120    0.3470 c3        1 AN8     -0.075400
     12 OXT         3.6050   -1.7020    0.2370 o         1 AN8     -0.845800
     13 HN          3.5860    2.0800    0.3870 hn        1 AN8      0.329300
     14 HNA         2.5500    1.9960   -0.8390 hn        1 AN8      0.329300
     15 HA          2.3590    0.3280    1.5430 h1        1 AN8      0.040700
     16 HB          1.2340   -0.0040   -1.3320 hc        1 AN8      0.045200
     17 HBA         1.2410   -1.2760   -0.0460 hc        1 AN8      0.045200
     18 HAA        -7.2180   -0.0090    0.1400 hc        1 AN8      0.027367
     19 HAAA       -6.3130   -0.3100   -1.4000 hc        1 AN8      0.027367
     20 HAAB       -6.2780   -1.5430   -0.0760 hc        1 AN8      0.027367
     21 HAI        -5.1060    1.3210    0.0910 hc        1 AN8      0.035700
     22 HAIA       -5.0720    0.0910    1.4110 hc        1 AN8      0.035700
     23 HAJ        -3.7480   -1.4580   -0.0660 hc        1 AN8      0.036700
     24 HAJA       -3.7820   -0.2290   -1.3860 hc        1 AN8      0.036700
     25 HAK        -2.6080    1.4170    0.1160 hc        1 AN8      0.035200
     26 HAKA       -2.5740    0.1880    1.4360 hc        1 AN8      0.035200
     27 HAL        -1.2470   -1.3620   -0.0400 hc        1 AN8      0.034200
     28 HALA       -1.2820   -0.1340   -1.3610 hc        1 AN8      0.034200
     29 HAM        -0.0730    0.2810    1.4610 hc        1 AN8      0.035700
     30 HAMA       -0.1120    1.5140    0.1440 hc        1 AN8      0.035700
@<TRIPOS>BOND
     1    1    3 1   
     2    1    4 1   
     3    1   12 1   
     4    2    4 1   
     5    2   13 1   
     6    2   14 1   
     7    4    5 1   
     8    4   15 1   
     9    5   11 1   
    10    5   16 1   
    11    5   17 1   
    12    6    7 1   
    13    6   18 1   
    14    6   19 1   
    15    6   20 1   
    16    7    8 1   
    17    7   21 1   
    18    7   22 1   
    19    8    9 1   
    20    8   23 1   
    21    8   24 1   
    22    9   10 1   
    23    9   25 1   
    24    9   26 1   
    25   10   11 1   
    26   10   27 1   
    27   10   28 1   
    28   11   29 1   
    29   11   30 1   
@<TRIPOS>SUBSTRUCTURE
     1 AN8         1 TEMP              0 ****  ****    0 ROOT
