@<TRIPOS>MOLECULE
AN9
   72    69     1     0     0
SMALL
bcc


@<TRIPOS>ATOM
      1 O19        -0.6100   -3.8700    3.3850 o         1 AN9     -0.349000
      2 C18        -0.4740   -2.8930    4.0880 c1        1 AN9      0.310000
      3 C20         0.2420   -3.0150    5.4380 c2        1 AN9     -0.186000
      4 N17        -0.9890   -1.6370    3.6640 n3        1 AN9     -0.334000
      5 C14        -1.6600   -1.5330    2.4190 c2        1 AN9      0.138000
      6 C13        -2.5120   -2.5680    2.0540 c2        1 AN9     -0.145000
      7 C12        -3.1050   -2.5710    0.7910 c1        1 AN9     -0.090000
      8 C3         -1.3900   -0.4710    1.5010 c1        1 AN9     -0.170000
      9 C2         -1.9740   -0.4740    0.2590 c1        1 AN9     -0.084000
     10 C37        -2.8420   -1.5300   -0.1110 c1        1 AN9     -0.115000
     11 C1         -1.7160    0.6950   -0.7170 c2        1 AN9      0.319000
     12 O15        -2.2100    0.6810   -1.8190 o         1 AN9     -0.312000
     13 C6         -0.8570    1.9110   -0.2630 c2        1 AN9     -0.170000
     14 C11        -0.3300    1.9410    1.0080 c2        1 AN9     -0.084000
     15 C10         0.4770    3.0200    1.4100 c1        1 AN9     -0.117000
     16 C4         -0.5920    0.7690    1.9790 c2        1 AN9      0.319000
     17 O16        -0.1280    0.7970    3.1070 o         1 AN9     -0.316000
     18 C7         -0.5860    2.9680   -1.1640 c1        1 AN9      0.139000
     19 N27        -1.1470    2.7430   -2.4400 n2        1 AN9     -0.335000
     20 C8          0.2170    4.0410   -0.7610 c2        1 AN9     -0.147000
     21 C9          0.7450    4.0680    0.5150 c1        1 AN9     -0.091000
     22 C5         -0.7810    3.6180   -3.5750 c2        1 AN9      0.311000
     23 O1          0.0180    4.5490   -3.4070 o         1 AN9     -0.352000
     24 C15        -1.4670    3.4320   -4.9370 c3        1 AN9     -0.184000
     25 C16        -0.4140    3.0910   -5.9980 c3        1 AN9     -0.056000
     26 N1         -1.0560    2.5020   -7.1410 n3        1 AN9     -0.276000
     27 C17        -0.1940    1.4430   -7.6990 c3        1 AN9     -0.061500
     28 C19        -0.8850    0.0810   -7.5400 c3        1 AN9     -0.212500
     29 C21        -1.2690    3.4840   -8.1070 c3        1 AN9     -0.061500
     30 C22        -2.4220    3.0870   -8.9790 c3        1 AN9     -0.212500
     31 C23         1.5970   -3.7180    5.2380 c3        1 AN9     -0.060000
     32 N2          2.5010   -3.3930    6.3770 n3        1 AN9     -0.273000
     33 C24         3.8170   -3.0060    5.8580 c3        1 AN9     -0.063000
     34 C25         4.0330   -1.5140    6.0710 c3        1 AN9     -0.213500
     35 C26         2.6440   -4.5740    7.2350 c3        1 AN9     -0.063000
     36 C27         2.9470   -4.1300    8.6830 c3        1 AN9     -0.213500
     37 H201       -0.3060   -3.5360    6.0490 ha        1 AN9      0.122500
     38 H202        0.3890   -2.1270    5.8100 ha        1 AN9      0.122500
     39 H17        -0.9600   -0.9180    4.2280 hn        1 AN9      0.263000
     40 H13        -2.6980   -3.3010    2.6870 ha        1 AN9      0.178000
     41 H12        -3.7160   -3.3140    0.5300 ha        1 AN9      0.145000
     42 H37        -3.2580   -1.5330   -0.9960 ha        1 AN9      0.157000
     43 H10         0.8560    3.0400    2.3220 ha        1 AN9      0.156000
     44 H27        -1.7640    2.0880   -2.5540 hn        1 AN9      0.262000
     45 H8          0.4030    4.7660   -1.3790 ha        1 AN9      0.179000
     46 H9          1.3080    4.8200    0.7960 ha        1 AN9      0.145000
     47 H151       -1.9310    4.2670   -5.1890 hc        1 AN9      0.117000
     48 H152       -2.1110    2.7110   -4.8790 hc        1 AN9      0.117000
     49 H161        0.0560    3.9200   -6.2740 h1        1 AN9      0.090000
     50 H162        0.2250    2.4660   -5.6290 h1        1 AN9      0.090000
     51 H171       -0.0330    1.6210   -8.6620 h1        1 AN9      0.069250
     52 H172        0.6690    1.4330   -7.2170 h1        1 AN9      0.069250
     53 H191       -1.8450    0.2160   -7.3870 hc        1 AN9      0.078333
     54 H192       -0.4970   -0.3950   -6.7780 hc        1 AN9      0.078333
     55 H193       -0.7540   -0.4510   -8.3600 hc        1 AN9      0.078333
     56 H211       -1.4730    4.3460   -7.6620 h1        1 AN9      0.069250
     57 H212       -0.4780    3.5810   -8.6460 h1        1 AN9      0.069250
     58 H221       -2.9960    3.8680   -9.1380 hc        1 AN9      0.078333
     59 H222       -2.0840    2.7520   -9.8350 hc        1 AN9      0.078333
     60 H223       -2.9420    2.3830   -8.5340 hc        1 AN9      0.078333
     61 H231        2.0040   -3.4120    4.3990 h1        1 AN9      0.080500
     62 H232        1.4580   -4.6830    5.1980 h1        1 AN9      0.080500
     63 H241        3.8640   -3.2100    4.8930 h1        1 AN9      0.070250
     64 H242        4.5150   -3.5070    6.3330 h1        1 AN9      0.070250
     65 H251        3.4470   -1.1970    6.7970 hc        1 AN9      0.079000
     66 H252        3.8200   -1.0310    5.2420 hc        1 AN9      0.079000
     67 H253        4.9780   -1.3510    6.3150 hc        1 AN9      0.079000
     68 H261        1.8140   -5.0910    7.2200 h1        1 AN9      0.070250
     69 H262        3.3790   -5.1300    6.9040 h1        1 AN9      0.070250
     70 H271        3.9210   -4.0500    8.8050 hc        1 AN9      0.079000
     71 H272        2.5890   -4.8010    9.3160 hc        1 AN9      0.079000
     72 H273        2.5230   -3.2610    8.8540 hc        1 AN9      0.079000
@<TRIPOS>BOND
     1    1    2 1   
     2    2    4 1   
     3    3   31 1   
     4    3   37 1   
     5    3   38 1   
     6    4    5 1   
     7    4   39 1   
     8    5    6 1   
     9    5    8 1   
    10    6    7 1   
    11    6   40 1   
    12    7   41 1   
    13    8   16 1   
    14    9   10 1   
    15    9   11 1   
    16   10   42 1   
    17   11   12 1   
    18   11   13 1   
    19   13   14 1   
    20   13   18 1   
    21   14   15 1   
    22   14   16 1   
    23   15   43 1   
    24   16   17 1   
    25   18   20 1   
    26   19   22 1   
    27   19   44 1   
    28   20   21 1   
    29   20   45 1   
    30   21   46 1   
    31   22   23 1   
    32   22   24 1   
    33   24   25 1   
    34   24   47 1   
    35   24   48 1   
    36   25   26 1   
    37   25   49 1   
    38   25   50 1   
    39   26   27 1   
    40   26   29 1   
    41   27   28 1   
    42   27   51 1   
    43   27   52 1   
    44   28   53 1   
    45   28   54 1   
    46   28   55 1   
    47   29   30 1   
    48   29   56 1   
    49   29   57 1   
    50   30   58 1   
    51   30   59 1   
    52   30   60 1   
    53   31   32 1   
    54   31   61 1   
    55   31   62 1   
    56   32   33 1   
    57   32   35 1   
    58   33   34 1   
    59   33   63 1   
    60   33   64 1   
    61   34   65 1   
    62   34   66 1   
    63   34   67 1   
    64   35   36 1   
    65   35   68 1   
    66   35   69 1   
    67   36   70 1   
    68   36   71 1   
    69   36   72 1   
@<TRIPOS>SUBSTRUCTURE
     1 AN9         1 TEMP              0 ****  ****    0 ROOT
