@<TRIPOS>MOLECULE
AN9
   74    76     1     0     0
SMALL
bcc


@<TRIPOS>ATOM
      1 O19         0.3790   -0.5490    0.1710 o         1 AN9     -0.583100
      2 C18         1.5380   -0.0970    0.1580 c         1 AN9      0.672100
      3 C20         2.2600    0.1770    1.4800 c3        1 AN9     -0.190400
      4 N17         2.2710    0.1600   -0.9860 ns        1 AN9     -0.452100
      5 C14         1.7720    0.1240   -2.3020 ca        1 AN9      0.103600
      6 C13         0.6840   -0.7220   -2.6330 ca        1 AN9     -0.128000
      7 C12         0.1920   -0.7680   -3.9280 ca        1 AN9     -0.083000
      8 C3          2.3780    0.9000   -3.3280 ca        1 AN9     -0.168600
      9 C2          1.8620    0.8260   -4.6350 ca        1 AN9     -0.111600
     10 C37         0.7700    0.0100   -4.9320 ca        1 AN9     -0.094000
     11 C1          2.4450    1.6210   -5.7430 c         1 AN9      0.601300
     12 O15         1.7710    1.8470   -6.7620 o         1 AN9     -0.557100
     13 C6          3.8330    2.0950   -5.5740 ca        1 AN9     -0.168600
     14 C11         4.3470    2.1730   -4.2660 ca        1 AN9     -0.111600
     15 C10         5.6460    2.6230   -4.0290 ca        1 AN9     -0.094000
     16 C4          3.5270    1.7960   -3.0890 c         1 AN9      0.601300
     17 O16         3.8310    2.2230   -1.9620 o         1 AN9     -0.557100
     18 C7          4.6610    2.4790   -6.6640 ca        1 AN9      0.103600
     19 N27         4.1870    2.4000   -7.9870 ns        1 AN9     -0.452100
     20 C8          5.9870    2.9050   -6.4020 ca        1 AN9     -0.128000
     21 C9          6.4630    2.9790   -5.1020 ca        1 AN9     -0.083000
     22 C5          4.6270    3.1710   -9.0460 c         1 AN9      0.672100
     23 O1          5.6120    3.9310   -9.0090 o         1 AN9     -0.583100
     24 C15         3.8360    3.0210  -10.3480 c3        1 AN9     -0.190400
     25 C16         4.4280    3.9880  -11.3690 c3        1 AN9      0.107800
     26 N1          3.7960    3.9000  -12.7230 nx        1 AN9     -0.691400
     27 C17         4.7300    4.4320  -13.7770 c3        1 AN9      0.110800
     28 C19         5.8160    3.4530  -14.1700 c3        1 AN9     -0.135850
     29 C21         2.4840    4.6330  -12.7550 c3        1 AN9      0.110800
     30 C22         1.5600    4.1680  -13.8610 c3        1 AN9     -0.135850
     31 C23         1.2790   -0.1040    2.6140 c3        1 AN9      0.107800
     32 N2          1.8710    0.0530    3.9800 nx        1 AN9     -0.691400
     33 C24         1.0810   -0.7340    4.9920 c3        1 AN9      0.110800
     34 C25         1.3900   -2.2150    4.9780 c3        1 AN9     -0.135850
     35 C26         1.9460    1.5030    4.3730 c3        1 AN9      0.110800
     36 C27         2.9740    1.7840    5.4490 c3        1 AN9     -0.135850
     37 H201        2.6080    1.2440    1.5000 hc        1 AN9      0.090200
     38 H202        3.1600   -0.4900    1.5510 hc        1 AN9      0.090200
     39 H17         3.1570    0.6100   -0.8620 hn        1 AN9      0.346500
     40 H13         0.2060   -1.3450   -1.8580 ha        1 AN9      0.179000
     41 H12        -0.6640   -1.4220   -4.1650 ha        1 AN9      0.162000
     42 H37         0.3670   -0.0100   -5.9590 ha        1 AN9      0.167000
     43 H10         6.0160    2.7010   -2.9930 ha        1 AN9      0.167000
     44 H27         3.3280    1.9030   -8.1180 hn        1 AN9      0.346500
     45 H8          6.6540    3.1950   -7.2330 ha        1 AN9      0.179000
     46 H9          7.4940    3.3250   -4.9170 ha        1 AN9      0.162000
     47 H151        3.9160    1.9600  -10.7040 hc        1 AN9      0.090200
     48 H152        2.7540    3.2480  -10.1540 hc        1 AN9      0.090200
     49 H161        5.5330    3.7690  -11.4770 hx        1 AN9      0.123700
     50 H162        4.3270    5.0480  -10.9950 hx        1 AN9      0.123700
     51 H171        4.1070    4.6830  -14.6840 hx        1 AN9      0.104450
     52 H172        5.1840    5.3860  -13.3810 hx        1 AN9      0.104450
     53 H191        5.3910    2.4980  -14.5650 hc        1 AN9      0.080033
     54 H192        6.5030    3.2200  -13.3200 hc        1 AN9      0.080033
     55 H193        6.4240    3.9250  -14.9850 hc        1 AN9      0.080033
     56 H211        1.9810    4.4740  -11.7570 hx        1 AN9      0.104450
     57 H212        2.7080    5.7320  -12.8670 hx        1 AN9      0.104450
     58 H221        1.3190    3.0800  -13.7720 hc        1 AN9      0.080033
     59 H222        1.9860    4.3620  -14.8760 hc        1 AN9      0.080033
     60 H223        0.6020    4.7440  -13.7740 hc        1 AN9      0.080033
     61 H231        0.8990   -1.1650    2.5110 hx        1 AN9      0.123700
     62 H232        0.3880    0.5840    2.5290 hx        1 AN9      0.123700
     63 H241       -0.0130   -0.5580    4.7830 hx        1 AN9      0.104450
     64 H242        1.3220   -0.3100    6.0100 hx        1 AN9      0.104450
     65 H251        2.4700   -2.4160    5.1830 hc        1 AN9      0.080033
     66 H252        1.1090   -2.6970    4.0110 hc        1 AN9      0.080033
     67 H253        0.7880   -2.6980    5.7920 hc        1 AN9      0.080033
     68 H261        2.2040    2.0930    3.4460 hx        1 AN9      0.104450
     69 H262        0.9200    1.8170    4.7180 hx        1 AN9      0.104450
     70 H271        2.7290    1.2710    6.4100 hc        1 AN9      0.080033
     71 H272        4.0020    1.4820    5.1300 hc        1 AN9      0.080033
     72 H273        2.9790    2.8890    5.6390 hc        1 AN9      0.080033
     73 H11         3.6140    2.9100  -12.9340 hn        1 AN9      0.442800
     74 H21         2.8280   -0.3240    3.9660 hn        1 AN9      0.442800
@<TRIPOS>BOND
     1    1    2 2   
     2    2    3 1   
     3    2    4 1   
     4    3   31 1   
     5    3   37 1   
     6    3   38 1   
     7    4    5 1   
     8    4   39 1   
     9    5    6 ar  
    10    5    8 ar  
    11    6    7 ar  
    12    6   40 1   
    13    7   10 ar  
    14    7   41 1   
    15    8    9 ar  
    16    8   16 1   
    17    9   10 ar  
    18    9   11 1   
    19   10   42 1   
    20   11   12 2   
    21   11   13 1   
    22   13   14 ar  
    23   13   18 ar  
    24   14   15 ar  
    25   14   16 1   
    26   15   21 ar  
    27   15   43 1   
    28   16   17 2   
    29   18   19 1   
    30   18   20 ar  
    31   19   22 1   
    32   19   44 1   
    33   20   21 ar  
    34   20   45 1   
    35   21   46 1   
    36   22   23 2   
    37   22   24 1   
    38   24   25 1   
    39   24   47 1   
    40   24   48 1   
    41   25   26 1   
    42   25   49 1   
    43   25   50 1   
    44   26   27 1   
    45   26   29 1   
    46   26   73 1   
    47   27   28 1   
    48   27   51 1   
    49   27   52 1   
    50   28   53 1   
    51   28   54 1   
    52   28   55 1   
    53   29   30 1   
    54   29   56 1   
    55   29   57 1   
    56   30   58 1   
    57   30   59 1   
    58   30   60 1   
    59   31   32 1   
    60   31   61 1   
    61   31   62 1   
    62   32   33 1   
    63   32   35 1   
    64   32   74 1   
    65   33   34 1   
    66   33   63 1   
    67   33   64 1   
    68   34   65 1   
    69   34   66 1   
    70   34   67 1   
    71   35   36 1   
    72   35   68 1   
    73   35   69 1   
    74   36   70 1   
    75   36   71 1   
    76   36   72 1   
@<TRIPOS>SUBSTRUCTURE
     1 AN9         1 TEMP              0 ****  ****    0 ROOT
