@<TRIPOS>MOLECULE
AN9
   76    78     1     0     0
SMALL
bcc


@<TRIPOS>ATOM
      1 O19         1.5690    1.2220   -0.3720 o         1 AN9     -0.360100
      2 C18         2.2310    0.3010    0.0680 c         1 AN9      0.542100
      3 C20         2.4130   -0.0790    1.5180 c3        1 AN9     -0.180400
      4 N17         2.9870   -0.5710   -0.9240 n4        1 AN9     -0.557200
      5 C14         2.4000   -0.6140   -2.2730 ca        1 AN9      0.005600
      6 C13         1.2150   -1.3660   -2.4250 ca        1 AN9     -0.080000
      7 C12         0.6090   -1.4730   -3.6720 ca        1 AN9     -0.061000
      8 C3          2.9920    0.0260   -3.3900 ca        1 AN9     -0.083600
      9 C2          2.3660   -0.1090   -4.6420 ca        1 AN9     -0.120600
     10 C37         1.1790   -0.8440   -4.7790 ca        1 AN9     -0.017000
     11 C1          2.9190    0.5050   -5.8720 c         1 AN9      0.603300
     12 O15         2.2710    0.4650   -6.9300 o         1 AN9     -0.534100
     13 C6          4.2560    1.1440   -5.8130 ca        1 AN9     -0.083600
     14 C11         4.8700    1.2990   -4.5580 ca        1 AN9     -0.120600
     15 C10         6.1280    1.9100   -4.4410 ca        1 AN9     -0.017000
     16 C4          4.2350    0.8290   -3.3040 c         1 AN9      0.603300
     17 O16         4.7550    1.0950   -2.2080 o         1 AN9     -0.534100
     18 C7          4.9490    1.6070   -6.9590 ca        1 AN9      0.005600
     19 N27         4.4180    1.4640   -8.3240 n4        1 AN9     -0.557200
     20 C8          6.2210    2.2050   -6.8330 ca        1 AN9     -0.080000
     21 C9          6.8010    2.3570   -5.5780 ca        1 AN9     -0.061000
     22 C5          3.9410    2.7620   -8.9580 c         1 AN9      0.542100
     23 O1          3.5720    3.6560   -8.2180 o         1 AN9     -0.360100
     24 C15         3.9650    2.7820  -10.4680 c3        1 AN9     -0.180400
     25 C16         3.3740    4.1110  -10.9600 c3        1 AN9      0.102800
     26 N1          3.4210    4.2990  -12.4400 n4        1 AN9     -0.696400
     27 C17         3.3290    5.7710  -12.7850 c3        1 AN9      0.113800
     28 C19         4.6290    6.5170  -12.5940 c3        1 AN9     -0.144100
     29 C21         2.3240    3.5280  -13.1340 c3        1 AN9      0.113800
     30 C22         2.6300    3.2360  -14.5870 c3        1 AN9     -0.144100
     31 C23         1.6710    0.9370    2.3980 c3        1 AN9      0.102800
     32 N2          1.6940    0.6260    3.8570 n4        1 AN9     -0.696400
     33 C24         0.5510    1.3270    4.5620 c3        1 AN9      0.113800
     34 C25        -0.7820    0.6390    4.3810 c3        1 AN9     -0.144100
     35 C26         3.0120    1.0090    4.4870 c3        1 AN9      0.113800
     36 C27         3.3010    0.2550    5.7670 c3        1 AN9     -0.144100
     37 H201        3.5110   -0.0930    1.7670 hc        1 AN9      0.120200
     38 H202        2.0040   -1.1160    1.6810 hc        1 AN9      0.120200
     39 H17         3.9600   -0.2090   -0.9750 hn        1 AN9      0.486800
     40 H13         0.7490   -1.8820   -1.5660 ha        1 AN9      0.174000
     41 H12        -0.3230   -2.0600   -3.7850 ha        1 AN9      0.209000
     42 H37         0.6950   -0.9260   -5.7730 ha        1 AN9      0.206000
     43 H10         6.5880    2.0350   -3.4400 ha        1 AN9      0.206000
     44 H27         5.1620    1.0590   -8.9100 hn        1 AN9      0.486800
     45 H8          6.7790    2.5580   -7.7190 ha        1 AN9      0.174000
     46 H9          7.7980    2.8310   -5.4840 ha        1 AN9      0.209000
     47 H151        3.3690    1.9110  -10.8630 hc        1 AN9      0.120200
     48 H152        5.0280    2.6670  -10.8210 hc        1 AN9      0.120200
     49 H161        2.2960    4.1920  -10.6310 hx        1 AN9      0.128700
     50 H162        3.9450    4.9620  -10.4800 hx        1 AN9      0.128700
     51 H171        3.0180    5.8320  -13.8720 hx        1 AN9      0.109700
     52 H172        2.5100    6.2210  -12.1550 hx        1 AN9      0.109700
     53 H191        5.4570    6.0860  -13.2090 hc        1 AN9      0.091033
     54 H192        4.4660    7.5740  -12.9420 hc        1 AN9      0.091033
     55 H193        4.9460    6.5570  -11.5250 hc        1 AN9      0.091033
     56 H211        1.3750    4.1330  -13.0480 hx        1 AN9      0.109700
     57 H212        2.1830    2.5590  -12.5770 hx        1 AN9      0.109700
     58 H221        1.7760    2.6350  -15.0020 hc        1 AN9      0.091033
     59 H222        2.7140    4.1670  -15.2000 hc        1 AN9      0.091033
     60 H223        3.5650    2.6360  -14.7080 hc        1 AN9      0.091033
     61 H231        2.1190    1.9640    2.2510 hx        1 AN9      0.128700
     62 H232        0.5890    0.9840    2.0670 hx        1 AN9      0.128700
     63 H241        0.8130    1.3520    5.6620 hx        1 AN9      0.109700
     64 H242        0.5120    2.3880    4.1810 hx        1 AN9      0.109700
     65 H251       -1.5380    1.1990    4.9960 hc        1 AN9      0.091033
     66 H252       -0.7650   -0.4170    4.7500 hc        1 AN9      0.091033
     67 H253       -1.1290    0.6520    3.3200 hc        1 AN9      0.091033
     68 H261        2.9860    2.1200    4.6840 hx        1 AN9      0.109700
     69 H262        3.8230    0.7970    3.7340 hx        1 AN9      0.109700
     70 H271        2.5580    0.4820    6.5720 hc        1 AN9      0.091033
     71 H272        4.3100    0.5840    6.1370 hc        1 AN9      0.091033
     72 H273        3.3350   -0.8500    5.6070 hc        1 AN9      0.091033
     73 H173        3.0210   -1.5360   -0.5650 hn        1 AN9      0.486800
     74 H274        3.6130    0.8070   -8.3230 hn        1 AN9      0.486800
     75 H11         4.3260    3.9570  -12.7940 hn        1 AN9      0.448800
     76 H21         1.5600   -0.3870    3.9880 hn        1 AN9      0.448800
@<TRIPOS>BOND
     1    1    2 2   
     2    2    3 1   
     3    2    4 1   
     4    3   31 1   
     5    3   37 1   
     6    3   38 1   
     7    4    5 1   
     8    4   39 1   
     9    4   73 1   
    10    5    6 ar  
    11    5    8 ar  
    12    6    7 ar  
    13    6   40 1   
    14    7   10 ar  
    15    7   41 1   
    16    8    9 ar  
    17    8   16 1   
    18    9   10 ar  
    19    9   11 1   
    20   10   42 1   
    21   11   12 2   
    22   11   13 1   
    23   13   14 ar  
    24   13   18 ar  
    25   14   15 ar  
    26   14   16 1   
    27   15   21 ar  
    28   15   43 1   
    29   16   17 2   
    30   18   19 1   
    31   18   20 ar  
    32   19   22 1   
    33   19   44 1   
    34   19   74 1   
    35   20   21 ar  
    36   20   45 1   
    37   21   46 1   
    38   22   23 2   
    39   22   24 1   
    40   24   25 1   
    41   24   47 1   
    42   24   48 1   
    43   25   26 1   
    44   25   49 1   
    45   25   50 1   
    46   26   27 1   
    47   26   29 1   
    48   26   75 1   
    49   27   28 1   
    50   27   51 1   
    51   27   52 1   
    52   28   53 1   
    53   28   54 1   
    54   28   55 1   
    55   29   30 1   
    56   29   56 1   
    57   29   57 1   
    58   30   58 1   
    59   30   59 1   
    60   30   60 1   
    61   31   32 1   
    62   31   61 1   
    63   31   62 1   
    64   32   33 1   
    65   32   35 1   
    66   32   76 1   
    67   33   34 1   
    68   33   63 1   
    69   33   64 1   
    70   34   65 1   
    71   34   66 1   
    72   34   67 1   
    73   35   36 1   
    74   35   68 1   
    75   35   69 1   
    76   36   70 1   
    77   36   71 1   
    78   36   72 1   
@<TRIPOS>SUBSTRUCTURE
     1 AN9         1 TEMP              0 ****  ****    0 ROOT
