@<TRIPOS>MOLECULE
AN9
   74    76     1     0     0
SMALL
bcc


@<TRIPOS>ATOM
      1 O19         0.3710   -0.5390    0.1730 o         1 AN9     -0.583100
      2 C18         1.5320   -0.0910    0.1590 c         1 AN9      0.672100
      3 C20         2.2560    0.1800    1.4800 c3        1 AN9     -0.190400
      4 N17         2.2630    0.1650   -0.9860 n         1 AN9     -0.452100
      5 C14         1.7630    0.1330   -2.3010 ca        1 AN9      0.103600
      6 C13         0.6690   -0.7060   -2.6320 ca        1 AN9     -0.128000
      7 C12         0.1760   -0.7480   -3.9260 ca        1 AN9     -0.083000
      8 C3          2.3720    0.9060   -3.3270 ca        1 AN9     -0.168600
      9 C2          1.8540    0.8370   -4.6340 ca        1 AN9     -0.111600
     10 C37         0.7570    0.0270   -4.9300 ca        1 AN9     -0.094000
     11 C1          2.4400    1.6290   -5.7410 c         1 AN9      0.601300
     12 O15         1.7660    1.8610   -6.7590 o         1 AN9     -0.557100
     13 C6          3.8310    2.0940   -5.5740 ca        1 AN9     -0.168600
     14 C11         4.3470    2.1680   -4.2670 ca        1 AN9     -0.111600
     15 C10         5.6490    2.6100   -4.0310 ca        1 AN9     -0.094000
     16 C4          3.5260    1.7960   -3.0890 c         1 AN9      0.601300
     17 O16         3.8340    2.2200   -1.9630 o         1 AN9     -0.557100
     18 C7          4.6600    2.4740   -6.6650 ca        1 AN9      0.103600
     19 N27         4.1840    2.3990   -7.9880 n         1 AN9     -0.452100
     20 C8          5.9890    2.8900   -6.4040 ca        1 AN9     -0.128000
     21 C9          6.4670    2.9610   -5.1050 ca        1 AN9     -0.083000
     22 C5          4.6290    3.1670   -9.0470 c         1 AN9      0.672100
     23 O1          5.6200    3.9180   -9.0110 o         1 AN9     -0.583100
     24 C15         3.8330    3.0240  -10.3480 c3        1 AN9     -0.190400
     25 C16         4.4380    3.9790  -11.3720 c3        1 AN9      0.107800
     26 N1          3.7990    3.9010  -12.7240 n4        1 AN9     -0.691400
     27 C17         4.7390    4.4140  -13.7820 c3        1 AN9      0.110800
     28 C19         5.8050    3.4140  -14.1780 c3        1 AN9     -0.136100
     29 C21         2.5010    4.6580  -12.7520 c3        1 AN9      0.110800
     30 C22         1.5640    4.2080  -13.8530 c3        1 AN9     -0.136100
     31 C23         1.2790   -0.1100    2.6160 c3        1 AN9      0.107800
     32 N2          1.8730    0.0510    3.9810 n4        1 AN9     -0.691400
     33 C24         1.0920   -0.7440    4.9930 c3        1 AN9      0.110800
     34 C25         1.4150   -2.2230    4.9770 c3        1 AN9     -0.136100
     35 C26         1.9360    1.5000    4.3750 c3        1 AN9      0.110800
     36 C27         2.9630    1.7890    5.4490 c3        1 AN9     -0.136100
     37 H201        2.6020    1.2470    1.5040 hc        1 AN9      0.090200
     38 H202        3.1580   -0.4850    1.5460 hc        1 AN9      0.090200
     39 H17         3.1510    0.6110   -0.8630 hn        1 AN9      0.346500
     40 H13         0.1890   -1.3280   -1.8560 ha        1 AN9      0.179000
     41 H12        -0.6840   -1.3970   -4.1620 ha        1 AN9      0.162000
     42 H37         0.3520    0.0100   -5.9560 ha        1 AN9      0.167000
     43 H10         6.0220    2.6840   -2.9960 ha        1 AN9      0.167000
     44 H27         3.3200    1.9090   -8.1180 hn        1 AN9      0.346500
     45 H8          6.6570    3.1770   -7.2360 ha        1 AN9      0.179000
     46 H9          7.5010    3.2990   -4.9210 ha        1 AN9      0.162000
     47 H151        3.8980    1.9610  -10.7010 hc        1 AN9      0.090200
     48 H152        2.7550    3.2670  -10.1530 hc        1 AN9      0.090200
     49 H161        5.5390    3.7420  -11.4850 hx        1 AN9      0.123700
     50 H162        4.3570    5.0420  -10.9990 hx        1 AN9      0.123700
     51 H171        4.1160    4.6750  -14.6870 hx        1 AN9      0.104450
     52 H172        5.2120    5.3590  -13.3900 hx        1 AN9      0.104450
     53 H191        6.4180    3.8740  -14.9960 hc        1 AN9      0.080033
     54 H192        5.3600    2.4670  -14.5700 hc        1 AN9      0.080033
     55 H193        6.4900    3.1700  -13.3310 hc        1 AN9      0.080033
     56 H211        1.9990    4.5100  -11.7520 hx        1 AN9      0.104450
     57 H212        2.7450    5.7530  -12.8660 hx        1 AN9      0.104450
     58 H221        1.3040    3.1250  -13.7610 hc        1 AN9      0.080033
     59 H222        0.6170    4.8020  -13.7630 hc        1 AN9      0.080033
     60 H223        1.9890    4.3920  -14.8700 hc        1 AN9      0.080033
     61 H231        0.9070   -1.1730    2.5130 hx        1 AN9      0.123700
     62 H232        0.3830    0.5720    2.5330 hx        1 AN9      0.123700
     63 H241       -0.0040   -0.5780    4.7860 hx        1 AN9      0.104450
     64 H242        1.3310   -0.3200    6.0110 hx        1 AN9      0.104450
     65 H251        0.8180   -2.7120    5.7910 hc        1 AN9      0.080033
     66 H252        2.4970   -2.4140    5.1800 hc        1 AN9      0.080033
     67 H253        1.1360   -2.7060    4.0090 hc        1 AN9      0.080033
     68 H261        2.1870    2.0950    3.4490 hx        1 AN9      0.104450
     69 H262        0.9070    1.8050    4.7230 hx        1 AN9      0.104450
     70 H271        2.7240    1.2730    6.4110 hc        1 AN9      0.080033
     71 H272        2.9580    2.8940    5.6410 hc        1 AN9      0.080033
     72 H273        3.9930    1.4980    5.1280 hc        1 AN9      0.080033
     73 H11         3.5990    2.9140  -12.9320 hn        1 AN9      0.442800
     74 H21         2.8330   -0.3180    3.9640 hn        1 AN9      0.442800
@<TRIPOS>BOND
     1    1    2 2   
     2    2    3 1   
     3    2    4 1   
     4    3   31 1   
     5    3   37 1   
     6    3   38 1   
     7    4    5 1   
     8    4   39 1   
     9    5    6 ar  
    10    5    8 ar  
    11    6    7 ar  
    12    6   40 1   
    13    7   10 ar  
    14    7   41 1   
    15    8    9 ar  
    16    8   16 1   
    17    9   10 ar  
    18    9   11 1   
    19   10   42 1   
    20   11   12 2   
    21   11   13 1   
    22   13   14 ar  
    23   13   18 ar  
    24   14   15 ar  
    25   14   16 1   
    26   15   21 ar  
    27   15   43 1   
    28   16   17 2   
    29   18   19 1   
    30   18   20 ar  
    31   19   22 1   
    32   19   44 1   
    33   20   21 ar  
    34   20   45 1   
    35   21   46 1   
    36   22   23 2   
    37   22   24 1   
    38   24   25 1   
    39   24   47 1   
    40   24   48 1   
    41   25   26 1   
    42   25   49 1   
    43   25   50 1   
    44   26   27 1   
    45   26   29 1   
    46   26   73 1   
    47   27   28 1   
    48   27   51 1   
    49   27   52 1   
    50   28   53 1   
    51   28   54 1   
    52   28   55 1   
    53   29   30 1   
    54   29   56 1   
    55   29   57 1   
    56   30   58 1   
    57   30   59 1   
    58   30   60 1   
    59   31   32 1   
    60   31   61 1   
    61   31   62 1   
    62   32   33 1   
    63   32   35 1   
    64   32   74 1   
    65   33   34 1   
    66   33   63 1   
    67   33   64 1   
    68   34   65 1   
    69   34   66 1   
    70   34   67 1   
    71   35   36 1   
    72   35   68 1   
    73   35   69 1   
    74   36   70 1   
    75   36   71 1   
    76   36   72 1   
@<TRIPOS>SUBSTRUCTURE
     1 AN9         1 TEMP              0 ****  ****    0 ROOT
