@<TRIPOS>MOLECULE
AN9
   72    74     1     0     0
SMALL
bcc


@<TRIPOS>ATOM
      1 O19         0.7600   -4.5660   -0.6930 o         1 AN9     -0.592100
      2 C18         1.9780   -4.6180   -0.9430 c         1 AN9      0.667100
      3 C20         2.6170   -5.8270   -1.6030 c3        1 AN9     -0.155400
      4 N17         2.8540   -3.5750   -0.6430 n         1 AN9     -0.481100
      5 C14         2.5370   -2.3620   -0.0250 ca        1 AN9      0.131600
      6 C13         1.2070   -1.8620   -0.0360 ca        1 AN9     -0.147000
      7 C12         0.9020   -0.6410    0.5400 ca        1 AN9     -0.090000
      8 C3          3.5450   -1.5890    0.6150 ca        1 AN9     -0.190600
      9 C2          3.2030   -0.3510    1.1920 ca        1 AN9     -0.104600
     10 C37         1.8960    0.1290    1.1470 ca        1 AN9     -0.116000
     11 C1          4.2290    0.4830    1.8650 c         1 AN9      0.599300
     12 O15         4.0830    1.7140    1.9360 o         1 AN9     -0.552100
     13 C6          5.3820   -0.2380    2.4370 ca        1 AN9     -0.190600
     14 C11         5.7260   -1.4730    1.8560 ca        1 AN9     -0.104600
     15 C10         6.7990   -2.2200    2.3340 ca        1 AN9     -0.116000
     16 C4          4.9530   -2.0170    0.7120 c         1 AN9      0.599300
     17 O16         5.4920   -2.7960   -0.0900 o         1 AN9     -0.552100
     18 C7          6.1460    0.2560    3.5300 ca        1 AN9      0.131600
     19 N27         5.8540    1.4980    4.1010 n         1 AN9     -0.481100
     20 C8          7.2210   -0.5370    4.0150 ca        1 AN9     -0.147000
     21 C9          7.5350   -1.7480    3.4230 ca        1 AN9     -0.090000
     22 C5          6.2060    1.9380    5.3770 c         1 AN9      0.667100
     23 O1          6.8620    1.2420    6.1710 o         1 AN9     -0.592100
     24 C15         5.7320    3.3380    5.7280 c3        1 AN9     -0.155400
     25 C16         6.1580    3.6820    7.1580 c3        1 AN9      0.180800
     26 N1          5.7850    5.0390    7.5320 n3        1 AN9     -0.750600
     27 C17         6.7390    5.6640    8.4380 c3        1 AN9      0.175300
     28 C19         8.0390    6.0850    7.7700 c3        1 AN9     -0.094600
     29 C21         4.4080    5.1320    8.0010 c3        1 AN9      0.175300
     30 C22         3.7950    6.5140    7.8410 c3        1 AN9     -0.094600
     31 C23         1.5550   -6.9020   -1.8490 c3        1 AN9      0.180800
     32 N2          2.0970   -8.0640   -2.5380 n3        1 AN9     -0.750600
     33 C24         1.1390   -8.6950   -3.4360 c3        1 AN9      0.175300
     34 C25         0.8860   -7.9120   -4.7150 c3        1 AN9     -0.094600
     35 C26         2.7320   -9.0080   -1.6270 c3        1 AN9      0.175300
     36 C27         3.7860   -9.8860   -2.2860 c3        1 AN9     -0.094600
     37 H201        3.4330   -6.2240   -0.9440 hc        1 AN9      0.078200
     38 H202        3.0830   -5.5150   -2.5760 hc        1 AN9      0.078200
     39 H17         3.8220   -3.7360   -0.8380 hn        1 AN9      0.348500
     40 H13         0.4010   -2.4490   -0.5090 ha        1 AN9      0.178000
     41 H12        -0.1350   -0.2700    0.5120 ha        1 AN9      0.145000
     42 H37         1.6600    1.1110    1.5850 ha        1 AN9      0.157000
     43 H10         7.0630   -3.1720    1.8470 ha        1 AN9      0.157000
     44 H27         5.2830    2.1140    3.5580 hn        1 AN9      0.348500
     45 H8          7.8200   -0.1880    4.8750 ha        1 AN9      0.178000
     46 H9          8.3790   -2.3410    3.8100 ha        1 AN9      0.145000
     47 H151        4.6160    3.3910    5.6270 hc        1 AN9      0.078200
     48 H152        6.1780    4.0720    5.0060 hc        1 AN9      0.078200
     49 H161        7.2780    3.5670    7.2210 h1        1 AN9      0.050700
     50 H162        5.7120    2.9130    7.8550 h1        1 AN9      0.050700
     51 H171        6.2550    6.5880    8.8660 h1        1 AN9      0.029700
     52 H172        6.9840    4.9840    9.3070 h1        1 AN9      0.029700
     53 H191        8.6190    5.2020    7.4070 hc        1 AN9      0.039033
     54 H192        7.8440    6.7590    6.9020 hc        1 AN9      0.039033
     55 H193        8.6620    6.6330    8.5170 hc        1 AN9      0.039033
     56 H211        3.7870    4.4060    7.4020 h1        1 AN9      0.029700
     57 H212        4.3240    4.8240    9.0850 h1        1 AN9      0.029700
     58 H221        4.2880    7.2610    8.5070 hc        1 AN9      0.039033
     59 H222        3.8790    6.8720    6.7870 hc        1 AN9      0.039033
     60 H223        2.7130    6.4570    8.1150 hc        1 AN9      0.039033
     61 H231        0.7370   -6.4410   -2.4730 h1        1 AN9      0.050700
     62 H232        1.0930   -7.1760   -0.8550 h1        1 AN9      0.050700
     63 H241        1.5470   -9.7060   -3.7220 h1        1 AN9      0.029700
     64 H242        0.1480   -8.8700   -2.9190 h1        1 AN9      0.029700
     65 H251        0.3900   -6.9350   -4.5080 hc        1 AN9      0.039033
     66 H252        1.8400   -7.7150   -5.2600 hc        1 AN9      0.039033
     67 H253        0.2160   -8.5160   -5.3740 hc        1 AN9      0.039033
     68 H261        3.2360   -8.4180   -0.8090 h1        1 AN9      0.029700
     69 H262        1.9670   -9.6760   -1.1310 h1        1 AN9      0.029700
     70 H271        3.3320  -10.5880   -3.0240 hc        1 AN9      0.039033
     71 H272        4.5520   -9.2680   -2.8130 hc        1 AN9      0.039033
     72 H273        4.2940  -10.4870   -1.4940 hc        1 AN9      0.039033
@<TRIPOS>BOND
     1    1    2 2   
     2    2    3 1   
     3    2    4 1   
     4    3   31 1   
     5    3   37 1   
     6    3   38 1   
     7    4    5 1   
     8    4   39 1   
     9    5    6 ar  
    10    5    8 ar  
    11    6    7 ar  
    12    6   40 1   
    13    7   10 ar  
    14    7   41 1   
    15    8    9 ar  
    16    8   16 1   
    17    9   10 ar  
    18    9   11 1   
    19   10   42 1   
    20   11   12 2   
    21   11   13 1   
    22   13   14 ar  
    23   13   18 ar  
    24   14   15 ar  
    25   14   16 1   
    26   15   21 ar  
    27   15   43 1   
    28   16   17 2   
    29   18   19 1   
    30   18   20 ar  
    31   19   22 1   
    32   19   44 1   
    33   20   21 ar  
    34   20   45 1   
    35   21   46 1   
    36   22   23 2   
    37   22   24 1   
    38   24   25 1   
    39   24   47 1   
    40   24   48 1   
    41   25   26 1   
    42   25   49 1   
    43   25   50 1   
    44   26   27 1   
    45   26   29 1   
    46   27   28 1   
    47   27   51 1   
    48   27   52 1   
    49   28   53 1   
    50   28   54 1   
    51   28   55 1   
    52   29   30 1   
    53   29   56 1   
    54   29   57 1   
    55   30   58 1   
    56   30   59 1   
    57   30   60 1   
    58   31   32 1   
    59   31   61 1   
    60   31   62 1   
    61   32   33 1   
    62   32   35 1   
    63   33   34 1   
    64   33   63 1   
    65   33   64 1   
    66   34   65 1   
    67   34   66 1   
    68   34   67 1   
    69   35   36 1   
    70   35   68 1   
    71   35   69 1   
    72   36   70 1   
    73   36   71 1   
    74   36   72 1   
@<TRIPOS>SUBSTRUCTURE
     1 AN9         1 TEMP              0 ****  ****    0 ROOT
