@<TRIPOS>MOLECULE
ANA
   47    47     1     0     0
SMALL
bcc


@<TRIPOS>ATOM
      1 C1          3.0100   -0.6190    0.4030 c         1 ANA      0.902600
      2 C2          2.3190    0.7520    0.0980 c3        1 ANA      0.228600
      3 C3          1.9130    0.8520   -1.3800 c3        1 ANA     -0.085400
      4 C4          0.7070   -0.0370   -1.6440 c3        1 ANA      0.133100
      5 C5         -0.4660    0.3400   -0.6990 c3        1 ANA      0.066700
      6 C6          0.0700    0.1730    0.7540 c3        1 ANA      0.105100
      7 C7         -0.9590    0.6300    1.8090 c3        1 ANA      0.113100
      8 C8         -1.6980   -0.5800    2.4330 c3        1 ANA      0.114100
      9 C9         -1.9990   -0.3200    3.9130 c3        1 ANA      0.104400
     10 C11        -4.0150   -1.0440   -1.1290 c3        1 ANA     -0.176100
     11 CM4        -0.4530   -0.3400   -5.1720 c3        1 ANA     -0.152100
     12 N5         -1.6250   -0.4710   -0.9790 n         1 ANA     -0.550900
     13 O1A         2.2860   -1.6500    0.3220 o         1 ANA     -0.815300
     14 O1B         4.2370   -0.6220    0.6720 o         1 ANA     -0.815300
     15 O2          3.0990    1.9090    0.3480 os        1 ANA     -0.416600
     16 O4          0.3350    0.2380   -3.0130 os        1 ANA     -0.435900
     17 O6          1.1920    1.0240    0.9470 os        1 ANA     -0.461600
     18 O7         -0.3750    1.4200    2.8300 oh        1 ANA     -0.610800
     19 O8         -2.8950   -0.8490    1.7230 oh        1 ANA     -0.602800
     20 O9         -2.5920   -1.4940    4.4450 oh        1 ANA     -0.596800
     21 O10        -3.2080    1.1350   -0.5110 o         1 ANA     -0.663100
     22 OA4        -0.4590   -1.8570   -3.2550 o         1 ANA     -0.563000
     23 H31         1.6740    1.9150   -1.6370 hc        1 ANA      0.062700
     24 H32         2.7740    0.5190   -2.0110 hc        1 ANA      0.062700
     25 H4          0.9840   -1.1240   -1.5150 h1        1 ANA      0.126700
     26 H5         -0.7390    1.4240   -0.8590 h1        1 ANA      0.089700
     27 H6          0.3840   -0.8980    0.9200 h1        1 ANA      0.109700
     28 H7         -1.7200    1.3130    1.3260 h1        1 ANA      0.088700
     29 H8         -1.1020   -1.5300    2.3330 h1        1 ANA      0.097700
     30 H91        -1.0460   -0.0850    4.4560 h1        1 ANA      0.032700
     31 H92        -2.7070    0.5450    4.0160 h1        1 ANA      0.032700
     32 H111       -4.9710   -0.4970   -1.3060 hc        1 ANA      0.062367
     33 H112       -3.7840   -1.6770   -2.0180 hc        1 ANA      0.062367
     34 H113       -4.1260   -1.7000   -0.2290 hc        1 ANA      0.062367
     35 H121        4.2080    2.9680    1.6410 h1        1 ANA      0.032700
     36 H122        2.7600    2.1310    2.3980 h1        1 ANA      0.032700
     37 H123        4.2420    1.1490    1.9330 h1        1 ANA      0.032700
     38 HM41        0.4630   -0.5670   -5.7710 hc        1 ANA      0.066367
     39 HM42       -1.3170   -0.9120   -5.5850 hc        1 ANA      0.066367
     40 HM43       -0.6610    0.7550   -5.2290 hc        1 ANA      0.066367
     41 HN5        -1.4530   -1.4340   -1.1670 hn        1 ANA      0.331500
     42 HO7         0.5530    1.1660    2.9250 ho        1 ANA      0.427000
     43 HO8        -3.4170   -0.0340    1.7130 ho        1 ANA      0.404000
     44 HO9        -2.6460   -1.3580    5.3970 ho        1 ANA      0.385000
     45 C10        -2.9210   -0.0380   -0.8490 c         1 ANA      0.672100
     46 C12         3.6030    2.0270    1.6700 c3        1 ANA      0.126700
     47 CA4        -0.2140   -0.7560   -3.7580 c         1 ANA      0.640100
@<TRIPOS>BOND
     1    1    2 1   
     2    1   13 1   
     3    1   14 1   
     4    2    3 1   
     5    2   15 1   
     6    2   17 1   
     7    3    4 1   
     8    3   23 1   
     9    3   24 1   
    10    4    5 1   
    11    4   16 1   
    12    4   25 1   
    13    5    6 1   
    14    5   12 1   
    15    5   26 1   
    16    6    7 1   
    17    6   17 1   
    18    6   27 1   
    19    7    8 1   
    20    7   18 1   
    21    7   28 1   
    22    8    9 1   
    23    8   19 1   
    24    8   29 1   
    25    9   20 1   
    26    9   30 1   
    27    9   31 1   
    28   10   32 1   
    29   10   33 1   
    30   10   34 1   
    31   10   45 1   
    32   11   38 1   
    33   11   39 1   
    34   11   40 1   
    35   11   47 1   
    36   12   41 1   
    37   12   45 1   
    38   15   46 1   
    39   16   47 1   
    40   18   42 1   
    41   19   43 1   
    42   20   44 1   
    43   21   45 2   
    44   22   47 2   
    45   35   46 1   
    46   36   46 1   
    47   37   46 1   
@<TRIPOS>SUBSTRUCTURE
     1 ANA         1 TEMP              0 ****  ****    0 ROOT
