@<TRIPOS>MOLECULE
ANA
   48    41     1     0     0
SMALL
bcc


@<TRIPOS>ATOM
      1 C1          1.2550   -0.0210   -0.2000 c2        1 ANA      0.321000
      2 C2          0.7620   -0.8420    1.0050 c2        1 ANA      0.246000
      3 C3          1.2780   -0.7200    2.3490 c3        1 ANA     -0.291000
      4 C4          2.6020    0.0340    2.4540 c3        1 ANA     -0.004000
      5 C5         -0.6990    3.9130    0.6440 c2        1 ANA     -0.320000
      6 C6         -1.4700    3.2530   -0.2500 c2        1 ANA      0.061000
      7 C7         -0.7370    6.9760   -2.0030 c2        1 ANA      0.233000
      8 C8          1.3430    2.3690   -2.8930 c1        1 ANA     -0.084000
      9 C9          0.2730    5.0940   -2.7360 c1        1 ANA     -0.084000
     10 C11        -0.6570    4.1510    3.6270 c2        1 ANA     -0.464000
     11 CM4        -2.4400    1.2310    5.2540 c2        1 ANA     -0.427000
     12 N5          0.2510    3.2500    1.5020 n4        1 ANA     -0.021000
     13 O1A         2.2790   -0.4400   -0.7790 o         1 ANA     -0.485000
     14 O1B         0.5590    0.9800   -0.5090 o         1 ANA     -0.485000
     15 O2         -0.2580   -1.7300    0.8310 os        1 ANA     -0.092000
     16 O4          2.4070    1.4290    2.4230 oh        1 ANA     -0.348000
     17 O6         -2.3730    3.8650   -1.0560 oh        1 ANA     -0.256000
     18 O7         -1.1910    6.5480   -0.9280 o         1 ANA     -0.435000
     19 O8          2.4400    2.2370   -2.2470 oh        1 ANA     -0.153000
     20 O9          1.0400    4.8850   -3.7340 oh        1 ANA     -0.153000
     21 O10        -0.1810    1.8190    3.2650 o         1 ANA     -0.572000
     22 OA4        -0.9480   -0.6310    4.4970 o         1 ANA     -0.236000
     23 H31         0.4690   -0.1270    2.9320 hc        1 ANA      0.226000
     24 H32         1.3170   -1.7140    2.8780 hc        1 ANA      0.226000
     25 H4          3.1110   -0.2750    3.4060 h1        1 ANA      0.112500
     26 H5          3.2660   -0.1860    1.5730 h1        1 ANA      0.112500
     27 H6         -2.3380    4.8330   -0.9280 ho        1 ANA      0.263000
     28 H7         -1.4540    2.1620   -0.4400 h4        1 ANA      0.180000
     29 H8          0.6070    1.5380   -2.8880 ha        1 ANA      0.037000
     30 H91         0.0560    4.2410   -2.0450 ha        1 ANA      0.037000
     31 H92        -1.3370    6.9680   -2.9350 h4        1 ANA      0.065500
     32 H111       -0.6870    5.1540    3.2000 ha        1 ANA      0.129000
     33 H112       -0.9790    4.0460    4.6660 ha        1 ANA      0.129000
     34 H113        0.2400    7.4980   -2.0560 h4        1 ANA      0.065500
     35 H121       -2.1980   -0.0510   -0.1970 ha        1 ANA      0.011500
     36 H122       -0.5530   -1.3920   -1.2190 ha        1 ANA      0.064000
     37 H123       -2.6470   -0.5210    0.0060 ha        1 ANA      0.011500
     38 HM41        1.9090    1.6760    3.2210 ho        1 ANA      0.239000
     39 HM42       -3.2710    1.0670    5.9450 ha        1 ANA      0.183000
     40 HM43       -2.2660    2.2520    4.8840 ha        1 ANA      0.183000
     41 HN5         0.4980    2.3210    1.1300 hn        1 ANA      0.230000
     42 HO7        -0.7670    5.0090    0.7870 hx        1 ANA      0.202000
     43 HO8         2.5650    1.3860   -1.7640 ho        1 ANA      0.234000
     44 HO9         1.3900    3.9300   -3.7890 ho        1 ANA      0.234000
     45 C10        -0.2630    3.0500    2.9480 c2        1 ANA      0.211000
     46 C12        -0.8910   -1.9350   -0.3060 c1        1 ANA      0.138000
     47 CA4        -1.6580    0.2630    4.8580 c1        1 ANA      0.296000
     48 H52         1.1020    3.8110    1.5380 hn        1 ANA      0.230000
@<TRIPOS>BOND
     1    1    2 1   
     2    1   13 1   
     3    1   14 1   
     4    2    3 1   
     5    2   15 1   
     6    3    4 1   
     7    3   23 1   
     8    3   24 1   
     9    4   16 1   
    10    4   25 1   
    11    4   26 1   
    12    5    6 1   
    13    5   12 1   
    14    5   42 1   
    15    6   17 1   
    16    6   28 1   
    17    7   18 1   
    18    7   31 1   
    19    7   34 1   
    20    8   19 1   
    21    8   29 1   
    22    9   20 1   
    23    9   30 1   
    24   10   32 1   
    25   10   33 1   
    26   10   45 1   
    27   11   39 1   
    28   11   40 1   
    29   11   47 1   
    30   12   41 1   
    31   12   45 1   
    32   12   48 1   
    33   15   46 1   
    34   16   38 1   
    35   17   27 1   
    36   19   43 1   
    37   20   44 1   
    38   21   45 1   
    39   22   47 1   
    40   35   37 1   
    41   36   46 1   
@<TRIPOS>SUBSTRUCTURE
     1 ANA         1 TEMP              0 ****  ****    0 ROOT
