@<TRIPOS>MOLECULE
ANA
   48    47     1     0     0
SMALL
bcc


@<TRIPOS>ATOM
      1 C1          1.0330    0.5890   -0.5920 c         1 ANA      0.619100
      2 C2         -0.3620    0.3170   -0.0250 c3        1 ANA      0.318600
      3 C3         -0.2730   -0.0680    1.4540 c3        1 ANA     -0.118400
      4 C4         -0.0210    1.1520    2.3290 c3        1 ANA      0.128100
      5 C5         -0.9300    2.3660    1.9680 c3        1 ANA      0.070700
      6 C6         -1.8810    1.9510    0.8300 c3        1 ANA      0.127400
      7 C7         -1.3490    4.4290   -1.8400 c3        1 ANA     -0.004600
      8 C8          2.7350    2.2440   -0.9210 c3        1 ANA      0.331200
      9 C9          0.0630    4.9340   -1.9680 c         1 ANA      0.544900
     10 C11         0.9480    5.6850    2.1480 c3        1 ANA     -0.175100
     11 CM4         0.1250    0.0130    5.8650 c3        1 ANA     -0.149100
     12 N5         -0.1690    3.5410    1.6370 n         1 ANA     -0.572900
     13 O1A         1.4600    1.8650   -0.3840 os        1 ANA     -0.465900
     14 O1B         1.7920   -0.1950   -1.1630 o         1 ANA     -0.540000
     15 O2         -1.0060   -0.7530   -0.6840 os        1 ANA     -0.410600
     16 O4         -0.3700    0.8290    3.6850 os        1 ANA     -0.438900
     17 O6         -1.1750    1.4470   -0.2990 os        1 ANA     -0.438600
     18 O7         -2.0740    4.6190   -3.0360 oh        1 ANA     -0.582800
     19 O8          3.6890    1.6460   -0.1050 oh        1 ANA     -0.600800
     20 O9          0.8810    4.8590   -1.0480 o         1 ANA     -0.548100
     21 O10        -0.7210    4.6700    3.5560 o         1 ANA     -0.619100
     22 OA4         1.6130   -0.1820    3.9200 o         1 ANA     -0.540000
     23 H31        -1.2310   -0.5720    1.7490 hc        1 ANA      0.093700
     24 H32         0.5580   -0.8080    1.5960 hc        1 ANA      0.093700
     25 H4          1.0720    1.4230    2.2780 h1        1 ANA      0.094700
     26 H5         -1.5680    2.6030    2.8780 h1        1 ANA      0.119700
     27 H6         -2.4430    2.8310    0.4150 h1        1 ANA      0.067700
     28 H7         -2.6000    1.1780    1.2080 h1        1 ANA      0.067700
     29 H8         -1.8590    4.9180   -0.9680 h1        1 ANA      0.093200
     30 H91         2.8120    1.9430   -1.9970 h2        1 ANA      0.082200
     31 H92         0.3290    5.3720   -2.9570 h4        1 ANA      0.006200
     32 H111        1.9710    5.3640    2.4640 hc        1 ANA      0.069700
     33 H112        0.9590    5.8890    1.0500 hc        1 ANA      0.069700
     34 H113        0.6760    6.6190    2.6970 hc        1 ANA      0.069700
     35 H121       -1.7770    0.3150   -2.3160 h1        1 ANA      0.049033
     36 H122       -0.1850   -0.5590   -2.5970 h1        1 ANA      0.049033
     37 H123       -1.7380   -1.5250   -2.3840 h1        1 ANA      0.049033
     38 HM41        0.3700   -1.0220    6.2040 hc        1 ANA      0.078700
     39 HM42        0.6800    0.7490    6.4990 hc        1 ANA      0.078700
     40 HM43       -0.9720    0.1960    5.9690 hc        1 ANA      0.078700
     41 HN5         0.4210    3.4890    0.8330 hn        1 ANA      0.339500
     42 HO7        -2.2450    5.5640   -3.1250 ho        1 ANA      0.400000
     43 HO8         3.7580    0.7120   -0.3520 ho        1 ANA      0.429000
     44 HO9         2.7810    3.3550   -0.7510 h2        1 ANA      0.082200
     45 C10        -0.0370    4.6030    2.5140 c         1 ANA      0.660100
     46 C12        -1.1790   -0.6010   -2.0880 c3        1 ANA      0.113700
     47 CA4         0.5620    0.1800    4.4520 c         1 ANA      0.637100
     48 H52        -1.3370    3.3120   -1.6770 h1        1 ANA      0.093200
@<TRIPOS>BOND
     1    1    2 1   
     2    1   13 1   
     3    1   14 2   
     4    2    3 1   
     5    2   15 1   
     6    2   17 1   
     7    3    4 1   
     8    3   23 1   
     9    3   24 1   
    10    4    5 1   
    11    4   16 1   
    12    4   25 1   
    13    5    6 1   
    14    5   12 1   
    15    5   26 1   
    16    6   17 1   
    17    6   27 1   
    18    6   28 1   
    19    7    9 1   
    20    7   18 1   
    21    7   29 1   
    22    7   48 1   
    23    8   13 1   
    24    8   19 1   
    25    8   30 1   
    26    8   44 1   
    27    9   20 2   
    28    9   31 1   
    29   10   32 1   
    30   10   33 1   
    31   10   34 1   
    32   10   45 1   
    33   11   38 1   
    34   11   39 1   
    35   11   40 1   
    36   11   47 1   
    37   12   41 1   
    38   12   45 1   
    39   15   46 1   
    40   16   47 1   
    41   18   42 1   
    42   19   43 1   
    43   21   45 2   
    44   22   47 2   
    45   35   46 1   
    46   36   46 1   
    47   37   46 1   
@<TRIPOS>SUBSTRUCTURE
     1 ANA         1 TEMP              0 ****  ****    0 ROOT
