@<TRIPOS>MOLECULE
ANA
   47    44     1     0     0
SMALL
bcc


@<TRIPOS>ATOM
      1 C1          3.6880    0.0150    0.0250 c1        1 ANA      0.349000
      2 C2          2.1430   -0.1040    0.0460 c2        1 ANA      0.115000
      3 C3          1.6010   -0.1600    1.4830 c3        1 ANA     -0.171000
      4 C4          0.1230   -0.1610    1.5450 c3        1 ANA      0.044000
      5 C5         -0.4840    0.9630    0.7820 c3        1 ANA     -0.009000
      6 C6          0.0160    1.0550   -0.6170 c3        1 ANA     -0.013000
      7 C7         -0.5150   -0.1470   -1.4140 c3        1 ANA      0.011000
      8 C8         -1.6750    0.2990   -2.2960 c3        1 ANA      0.035000
      9 C9         -1.6670   -0.5130   -3.6120 c3        1 ANA     -0.051000
     10 C10        -1.2450    2.9840    2.1360 c1        1 ANA      0.298000
     11 C11        -0.9330    4.3260    2.8320 c2        1 ANA     -0.232500
     12 C12         3.1380   -2.0460   -0.7890 c3        1 ANA     -0.050000
     13 CA4        -1.1300   -2.1860    1.9060 c1        1 ANA      0.308000
     14 CM4        -1.1870   -3.6920    1.7690 c2        1 ANA     -0.232500
     15 N5         -0.1760    2.2330    1.4810 n3        1 ANA     -0.354000
     16 O1A         4.2630    0.5630   -0.9510 o         1 ANA     -0.547000
     17 O1B         4.3650   -0.3460    1.0390 o         1 ANA     -0.547000
     18 O2          1.9540   -1.2930   -0.6120 os        1 ANA     -0.318000
     19 O4         -0.3710   -1.4240    0.9950 os        1 ANA     -0.286000
     20 O6          1.4760    1.0670   -0.6990 os        1 ANA     -0.286000
     21 O7          0.5020   -0.6630   -2.2090 oh        1 ANA     -0.356000
     22 O8         -2.8680    0.0870   -1.6300 oh        1 ANA     -0.339000
     23 O9         -2.8810   -0.2740   -4.3250 oh        1 ANA     -0.354000
     24 O10        -2.3790    2.5690    2.1070 o         1 ANA     -0.421000
     25 OA4        -1.7760   -1.6280    2.7760 o         1 ANA     -0.362000
     26 H31         1.9350    0.6150    1.9760 hc        1 ANA      0.114000
     27 H32         1.9330   -0.9710    1.9110 hc        1 ANA      0.114000
     28 H4         -0.1530   -0.0930    2.4800 h1        1 ANA      0.129000
     29 H5         -1.4570    0.8420    0.7620 h1        1 ANA      0.122000
     30 H6         -0.3260    1.8720   -1.0180 h1        1 ANA      0.114000
     31 H7         -0.8250   -0.8380   -0.7930 h1        1 ANA      0.120000
     32 H8         -1.5800    1.2590   -2.5030 h1        1 ANA      0.099000
     33 H91        -1.5930   -1.4650   -3.4060 h1        1 ANA      0.088000
     34 H92        -0.9070   -0.2370   -4.1610 h1        1 ANA      0.088000
     35 H111       -0.5870    4.9590    2.1780 ha        1 ANA      0.106667
     36 H112       -0.2720    4.1840    3.5230 ha        1 ANA      0.106667
     37 H113       -1.7570    4.6870    3.2350 ha        1 ANA      0.106667
     38 H121        3.5300   -2.2470    0.0810 h1        1 ANA      0.070667
     39 H122        3.7730   -1.5330   -1.3210 h1        1 ANA      0.070667
     40 H123        2.9220   -2.8970   -1.2600 h1        1 ANA      0.070667
     41 HM41       -0.3710   -4.0930    2.1720 ha        1 ANA      0.106667
     42 HM42       -1.9770   -4.0310    2.2310 ha        1 ANA      0.106667
     43 HM43       -1.2340   -3.9300    0.8320 ha        1 ANA      0.106667
     44 HN5         0.6660    2.5810    1.4410 hn        1 ANA      0.287000
     45 HO7         0.6150   -0.1450   -2.9200 ho        1 ANA      0.240000
     46 HO8        -3.5210    0.5290   -2.0430 ho        1 ANA      0.206000
     47 HO9        -2.7990   -0.5760   -5.1650 ho        1 ANA      0.197000
@<TRIPOS>BOND
     1    1   16 1   
     2    1   17 1   
     3    2    3 1   
     4    2   18 1   
     5    2   20 1   
     6    3    4 1   
     7    3   26 1   
     8    3   27 1   
     9    4    5 1   
    10    4   19 1   
    11    4   28 1   
    12    5    6 1   
    13    5   15 1   
    14    5   29 1   
    15    6    7 1   
    16    6   20 1   
    17    6   30 1   
    18    7    8 1   
    19    7   21 1   
    20    7   31 1   
    21    8    9 1   
    22    8   22 1   
    23    8   32 1   
    24    9   23 1   
    25    9   33 1   
    26    9   34 1   
    27   10   15 1   
    28   10   24 1   
    29   11   35 1   
    30   11   36 1   
    31   11   37 1   
    32   12   18 1   
    33   12   38 1   
    34   12   39 1   
    35   12   40 1   
    36   13   19 1   
    37   13   25 1   
    38   14   41 1   
    39   14   42 1   
    40   14   43 1   
    41   15   44 1   
    42   21   45 1   
    43   22   46 1   
    44   23   47 1   
@<TRIPOS>SUBSTRUCTURE
     1 ANA         1 TEMP              0 ****  ****    0 ROOT
