@<TRIPOS>MOLECULE
ANB
   45    48     1     0     0
SMALL
bcc


@<TRIPOS>ATOM
      1 C1         -0.0190    0.0170    0.0470 c2        1 ANB     -0.104200
      2 C10         1.4790    0.1180    0.0050 c3        1 ANB      0.004400
      3 C11         1.4830   -1.0360   -2.2760 c3        1 ANB     -0.076400
      4 C12         2.0860   -2.0940   -3.1890 c3        1 ANB     -0.056400
      5 C13         3.6010   -2.0250   -3.1620 c3        1 ANB     -0.153000
      6 C14         4.0460   -2.2010   -1.6920 c3        1 ANB     -0.064700
      7 C15         5.5280   -2.5480   -1.7820 c3        1 ANB     -0.072400
      8 C16         5.6350   -3.4010   -3.0490 c3        1 ANB     -0.188400
      9 C17         4.3660   -3.1560   -3.8430 c         1 ANB      0.577100
     10 C18         4.0920   -0.7370   -3.8110 c3        1 ANB     -0.083100
     11 C19         1.8130    1.4950   -0.5730 c3        1 ANB     -0.082100
     12 C2         -0.7430   -0.0730    1.1680 ce        1 ANB     -0.240200
     13 C3         -0.1190   -0.0970    2.5010 c         1 ANB      0.561500
     14 C4          1.3510   -0.0770    2.5060 ce        1 ANB     -0.249200
     15 C5          2.0840    0.0070    1.3840 c2        1 ANB     -0.041400
     16 C6          3.5740   -0.0220    1.4380 c3        1 ANB     -0.052200
     17 C7          4.1170   -1.1400    0.5710 c3        1 ANB     -0.072400
     18 C8          3.5860   -1.0310   -0.8480 c3        1 ANB     -0.048700
     19 C9          2.0460   -1.0360   -0.8580 c3        1 ANB     -0.042700
     20 O1         -0.7850   -0.1380    3.5440 o         1 ANB     -0.532100
     21 O2          4.0300   -3.7590   -4.8580 o         1 ANB     -0.516100
     22 HC1        -0.5150    0.0600   -0.9370 ha        1 ANB      0.133000
     23 H111        1.6310   -0.0250   -2.7370 hc        1 ANB      0.044700
     24 H112        0.3770   -1.2240   -2.2290 hc        1 ANB      0.044700
     25 H121        1.7160   -1.9370   -4.2350 hc        1 ANB      0.054200
     26 H122        1.7530   -3.1140   -2.8630 hc        1 ANB      0.054200
     27 HC41        3.5260   -3.1220   -1.2910 hc        1 ANB      0.054700
     28 H151        6.1530   -1.6250   -1.8660 hc        1 ANB      0.050200
     29 H152        5.8680   -3.1120   -0.8800 hc        1 ANB      0.050200
     30 H161        6.5250   -3.1160   -3.6630 hc        1 ANB      0.076200
     31 H162        5.7190   -4.4880   -2.8010 hc        1 ANB      0.076200
     32 H181        3.6050    0.1570   -3.3550 hc        1 ANB      0.044033
     33 H182        5.1970   -0.6360   -3.6910 hc        1 ANB      0.044033
     34 H183        3.8470   -0.7540   -4.9010 hc        1 ANB      0.044033
     35 H191        2.9070    1.5930   -0.7640 hc        1 ANB      0.044700
     36 H192        1.5060    2.2920    0.1470 hc        1 ANB      0.044700
     37 H193        1.2660    1.6570   -1.5320 hc        1 ANB      0.044700
     38 HC2        -1.8430   -0.1270    1.1500 ha        1 ANB      0.151000
     39 HC4         1.8220   -0.1480    3.5000 ha        1 ANB      0.150000
     40 HC61        3.9730    0.9660    1.0800 hc        1 ANB      0.056200
     41 HC62        3.9280   -0.1630    2.4930 hc        1 ANB      0.056200
     42 HC71        5.2370   -1.0920    0.5520 hc        1 ANB      0.048700
     43 HC72        3.8290   -2.1320    1.0080 hc        1 ANB      0.048700
     44 HC8         3.9640   -0.0730   -1.2980 hc        1 ANB      0.057700
     45 HC9         1.7130   -1.9950   -0.3640 hc        1 ANB      0.058700
@<TRIPOS>BOND
     1    1    2 1   
     2    1   12 2   
     3    1   22 1   
     4    2   11 1   
     5    2   15 1   
     6    2   19 1   
     7    3    4 1   
     8    3   19 1   
     9    3   23 1   
    10    3   24 1   
    11    4    5 1   
    12    4   25 1   
    13    4   26 1   
    14    5    6 1   
    15    5    9 1   
    16    5   10 1   
    17    6    7 1   
    18    6   18 1   
    19    6   27 1   
    20    7    8 1   
    21    7   28 1   
    22    7   29 1   
    23    8    9 1   
    24    8   30 1   
    25    8   31 1   
    26    9   21 2   
    27   10   32 1   
    28   10   33 1   
    29   10   34 1   
    30   11   35 1   
    31   11   36 1   
    32   11   37 1   
    33   12   13 1   
    34   12   38 1   
    35   13   14 1   
    36   13   20 2   
    37   14   15 2   
    38   14   39 1   
    39   15   16 1   
    40   16   17 1   
    41   16   40 1   
    42   16   41 1   
    43   17   18 1   
    44   17   42 1   
    45   17   43 1   
    46   18   19 1   
    47   18   44 1   
    48   19   45 1   
@<TRIPOS>SUBSTRUCTURE
     1 ANB         1 TEMP              0 ****  ****    0 ROOT
