@<TRIPOS>MOLECULE
ANB
   45    46     1     0     0
SMALL
bcc


@<TRIPOS>ATOM
      1 C1         -2.1760    0.7070    1.2230 c1        1 ANB     -0.103000
      2 C10        -1.2000    0.7070    1.2230 c2        1 ANB     -0.012400
      3 C11        -1.6880   -0.0330   -0.9140 c3        1 ANB     -0.076400
      4 C12        -1.1900   -1.2010   -1.9570 c3        1 ANB     -0.056400
      5 C13         0.4050   -1.1970   -2.1500 c3        1 ANB     -0.153000
      6 C14         1.2480   -1.2360   -0.7010 c3        1 ANB     -0.064700
      7 C15         2.4780   -1.1290   -1.0960 c3        1 ANB     -0.072400
      8 C16         2.5340   -2.1460   -2.4160 c3        1 ANB     -0.188400
      9 C17         0.8400   -2.2200   -2.7410 c         1 ANB      0.577100
     10 C18         0.8170    0.0650   -2.9460 c3        1 ANB     -0.083100
     11 C19        -0.8000    2.0450    0.5420 c3        1 ANB     -0.077900
     12 C2         -2.9820    1.3060    2.4860 c1        1 ANB     -0.103000
     13 C3         -2.3410    1.5110    3.6040 c1        1 ANB      0.580600
     14 C4         -1.1500    1.2430    3.6550 ce        1 ANB     -0.293100
     15 C5         -0.5020    0.7070    2.4560 ce        1 ANB     -0.037200
     16 C6          1.1320    0.7710    2.3000 c3        1 ANB     -0.052200
     17 C7          1.5020   -0.1590    1.4610 c3        1 ANB     -0.072400
     18 C8          0.8040   -0.1010    0.2920 c3        1 ANB     -0.048700
     19 C9         -0.8520   -0.0930    0.5290 c3        1 ANB     -0.038500
     20 O1         -2.9630    1.7310    4.6340 o         1 ANB     -0.526500
     21 O2          0.3150   -2.7770   -3.6940 o         1 ANB     -0.516100
     22 HC1        -2.6520    0.5490    0.3860 ha        1 ANB      0.084500
     23 H111       -2.6400   -0.1530   -0.7350 hc        1 ANB      0.044700
     24 H112       -1.5490    0.8410   -1.3260 hc        1 ANB      0.044700
     25 H121       -1.4650   -2.0720   -1.6130 hc        1 ANB      0.054200
     26 H122       -1.6140   -1.0540   -2.8240 hc        1 ANB      0.054200
     27 HC41        1.1200   -2.1050   -0.2760 hc        1 ANB      0.054700
     28 H151        3.0920   -1.4330   -0.4010 hc        1 ANB      0.050200
     29 H152        2.6780   -0.2110   -1.3590 hc        1 ANB      0.050200
     30 H161        2.9030   -3.0460   -2.3370 hc        1 ANB      0.076200
     31 H162        3.0860   -1.7520   -3.1180 hc        1 ANB      0.076200
     32 H181        0.0520    0.3940   -3.4540 hc        1 ANB      0.044033
     33 H182        1.5420   -0.1600   -3.5600 hc        1 ANB      0.044033
     34 H183        1.1190    0.7560   -2.3260 hc        1 ANB      0.044033
     35 H191       -1.4860    2.2990   -0.1040 hc        1 ANB      0.044700
     36 H192        0.0550    1.9340    0.0830 hc        1 ANB      0.044700
     37 H193       -0.7160    2.7430    1.2190 hc        1 ANB      0.044700
     38 HC2        -3.9340    1.5100    2.4150 ha        1 ANB      0.084500
     39 HC4        -0.6420    1.3850    4.4760 ha        1 ANB      0.150000
     40 HC61        1.7010    0.6750    3.0870 hc        1 ANB      0.056200
     41 HC62        1.3520    1.6800    2.0190 hc        1 ANB      0.056200
     42 HC71        2.4530   -0.0510    1.2690 hc        1 ANB      0.048700
     43 HC72        1.3590   -1.0320    1.8730 hc        1 ANB      0.048700
     44 HC8         1.0330    0.7490   -0.1310 hc        1 ANB      0.057700
     45 HC9        -1.0780   -0.9450    0.9480 hc        1 ANB      0.058700
@<TRIPOS>BOND
     1    1   12 3   
     2    1   22 1   
     3    2   11 1   
     4    2   15 2   
     5    2   19 1   
     6    3    4 1   
     7    3   19 1   
     8    3   23 1   
     9    3   24 1   
    10    4    5 1   
    11    4   25 1   
    12    4   26 1   
    13    5    6 1   
    14    5    9 1   
    15    5   10 1   
    16    6    7 1   
    17    6   18 1   
    18    6   27 1   
    19    7    8 1   
    20    7   28 1   
    21    7   29 1   
    22    8    9 1   
    23    8   30 1   
    24    8   31 1   
    25    9   21 2   
    26   10   32 1   
    27   10   33 1   
    28   10   34 1   
    29   11   35 1   
    30   11   36 1   
    31   11   37 1   
    32   12   38 1   
    33   13   14 2   
    34   13   20 2   
    35   14   15 1   
    36   14   39 1   
    37   15   16 1   
    38   16   17 1   
    39   16   40 1   
    40   16   41 1   
    41   17   18 1   
    42   17   42 1   
    43   17   43 1   
    44   18   19 1   
    45   18   44 1   
    46   19   45 1   
@<TRIPOS>SUBSTRUCTURE
     1 ANB         1 TEMP              0 ****  ****    0 ROOT
