@<TRIPOS>MOLECULE
ANB
   45    48     1     0     0
SMALL
bcc


@<TRIPOS>ATOM
      1 C1         -0.0070    0.0100    0.0740 c2        1 ANB     -0.104200
      2 C10         1.4900    0.1150    0.0170 c3        1 ANB      0.004400
      3 C11         1.4750   -1.0450   -2.2610 c3        1 ANB     -0.076400
      4 C12         2.0720   -2.1030   -3.1770 c3        1 ANB     -0.056400
      5 C13         3.5860   -2.0290   -3.1660 c3        1 ANB     -0.153000
      6 C14         4.0460   -2.2000   -1.7000 c3        1 ANB     -0.064700
      7 C15         5.5290   -2.5430   -1.8040 c3        1 ANB     -0.072400
      8 C16         5.6250   -3.3990   -3.0700 c3        1 ANB     -0.188400
      9 C17         4.3480   -3.1590   -3.8520 c         1 ANB      0.577100
     10 C18         4.0670   -0.7410   -3.8220 c3        1 ANB     -0.083100
     11 C19         1.8140    1.4920   -0.5670 c3        1 ANB     -0.082100
     12 C2         -0.7200   -0.0790    1.2020 ce        1 ANB     -0.240200
     13 C3         -0.0830   -0.0980    2.5290 c         1 ANB      0.561500
     14 C4          1.3870   -0.0730    2.5200 ce        1 ANB     -0.249200
     15 C5          2.1090    0.0100    1.3900 c2        1 ANB     -0.041400
     16 C6          3.5990   -0.0150    1.4290 c3        1 ANB     -0.052200
     17 C7          4.1370   -1.1340    0.5590 c3        1 ANB     -0.072400
     18 C8          3.5910   -1.0300   -0.8540 c3        1 ANB     -0.048700
     19 C9          2.0510   -1.0390   -0.8490 c3        1 ANB     -0.042700
     20 O1         -0.7380   -0.1370    3.5790 o         1 ANB     -0.532100
     21 O2          4.0040   -3.7650   -4.8620 o         1 ANB     -0.516100
     22 HC1        -0.5130    0.0490   -0.9050 ha        1 ANB      0.133000
     23 H111        0.3700   -1.2360   -2.2030 hc        1 ANB      0.044700
     24 H112        1.6140   -0.0340   -2.7260 hc        1 ANB      0.044700
     25 H121        1.6900   -1.9490   -4.2200 hc        1 ANB      0.054200
     26 H122        1.7450   -3.1220   -2.8460 hc        1 ANB      0.054200
     27 HC41        3.5340   -3.1220   -1.2910 hc        1 ANB      0.054700
     28 H151        6.1500   -1.6180   -1.8960 hc        1 ANB      0.050200
     29 H152        5.8790   -3.1040   -0.9040 hc        1 ANB      0.050200
     30 H161        6.5080   -3.1130   -3.6930 hc        1 ANB      0.076200
     31 H162        5.7150   -4.4850   -2.8200 hc        1 ANB      0.076200
     32 H181        5.1730   -0.6370   -3.7140 hc        1 ANB      0.044033
     33 H182        3.5820    0.1520   -3.3640 hc        1 ANB      0.044033
     34 H183        3.8110   -0.7620   -4.9100 hc        1 ANB      0.044033
     35 H191        2.9060    1.5920   -0.7700 hc        1 ANB      0.044700
     36 H192        1.5110    2.2900    0.1540 hc        1 ANB      0.044700
     37 H193        1.2570    1.6500   -1.5220 hc        1 ANB      0.044700
     38 HC2        -1.8200   -0.1370    1.1960 ha        1 ANB      0.151000
     39 HC4         1.8680   -0.1410    3.5100 ha        1 ANB      0.150000
     40 HC61        3.9910    0.9730    1.0650 hc        1 ANB      0.056200
     41 HC62        3.9640   -0.1520    2.4820 hc        1 ANB      0.056200
     42 HC71        5.2570   -1.0830    0.5300 hc        1 ANB      0.048700
     43 HC72        3.8560   -2.1250    1.0020 hc        1 ANB      0.048700
     44 HC8         3.9620   -0.0710   -1.3100 hc        1 ANB      0.057700
     45 HC9         1.7260   -1.9980   -0.3490 hc        1 ANB      0.058700
@<TRIPOS>BOND
     1    1    2 1   
     2    1   12 2   
     3    1   22 1   
     4    2   11 1   
     5    2   15 1   
     6    2   19 1   
     7    3    4 1   
     8    3   19 1   
     9    3   23 1   
    10    3   24 1   
    11    4    5 1   
    12    4   25 1   
    13    4   26 1   
    14    5    6 1   
    15    5    9 1   
    16    5   10 1   
    17    6    7 1   
    18    6   18 1   
    19    6   27 1   
    20    7    8 1   
    21    7   28 1   
    22    7   29 1   
    23    8    9 1   
    24    8   30 1   
    25    8   31 1   
    26    9   21 2   
    27   10   32 1   
    28   10   33 1   
    29   10   34 1   
    30   11   35 1   
    31   11   36 1   
    32   11   37 1   
    33   12   13 1   
    34   12   38 1   
    35   13   14 1   
    36   13   20 2   
    37   14   15 2   
    38   14   39 1   
    39   15   16 1   
    40   16   17 1   
    41   16   40 1   
    42   16   41 1   
    43   17   18 1   
    44   17   42 1   
    45   17   43 1   
    46   18   19 1   
    47   18   44 1   
    48   19   45 1   
@<TRIPOS>SUBSTRUCTURE
     1 ANB         1 TEMP              0 ****  ****    0 ROOT
