@<TRIPOS>MOLECULE
ANB
   45    48     1     0     0
SMALL
bcc


@<TRIPOS>ATOM
      1 C1          1.5400    0.0650   -2.4990 c2        1 ANB     -0.104200
      2 C10         0.3770    0.5610   -1.6890 c3        1 ANB      0.004400
      3 C11         1.7150    0.1740    0.4540 c3        1 ANB     -0.076400
      4 C12         1.7540   -0.3710    1.8740 c3        1 ANB     -0.056400
      5 C13         0.5340    0.0790    2.6550 c3        1 ANB     -0.153000
      6 C14        -0.7140   -0.4000    1.8790 c3        1 ANB     -0.064700
      7 C15        -1.8510   -0.3060    2.8910 c3        1 ANB     -0.072400
      8 C16        -1.1970   -0.6880    4.2220 c3        1 ANB     -0.188400
      9 C17         0.3010   -0.5600    4.0210 c         1 ANB      0.577100
     10 C18         0.5770    1.5820    2.8970 c3        1 ANB     -0.083100
     11 C19         0.5040    2.0840   -1.6200 c3        1 ANB     -0.082100
     12 C2          1.4360   -0.5370   -3.6880 ce        1 ANB     -0.240200
     13 C3          0.1330   -0.7890   -4.3240 c         1 ANB      0.561500
     14 C4         -1.0390   -0.3890   -3.5340 ce        1 ANB     -0.249200
     15 C5         -0.9420    0.2110   -2.3350 c2        1 ANB     -0.041400
     16 C6         -2.1610    0.5560   -1.5500 c3        1 ANB     -0.052200
     17 C7         -2.1050   -0.0740   -0.1730 c3        1 ANB     -0.072400
     18 C8         -0.8210    0.3060    0.5440 c3        1 ANB     -0.048700
     19 C9          0.4100   -0.0980   -0.2880 c3        1 ANB     -0.042700
     20 O1          0.0320   -1.3080   -5.4450 o         1 ANB     -0.532100
     21 O2          1.1620   -0.9020    4.8250 o         1 ANB     -0.516100
     22 HC1         2.5320    0.2650   -2.0580 ha        1 ANB      0.133000
     23 H111        1.9090    1.2780    0.4790 hc        1 ANB      0.044700
     24 H112        2.5610   -0.3010   -0.1110 hc        1 ANB      0.044700
     25 H121        2.6860   -0.0150    2.3850 hc        1 ANB      0.054200
     26 H122        1.7890   -1.4920    1.8510 hc        1 ANB      0.054200
     27 HC41       -0.5730   -1.5010    1.6600 hc        1 ANB      0.054700
     28 H151       -2.2680    0.7300    2.9330 hc        1 ANB      0.050200
     29 H152       -2.6840   -1.0020    2.6310 hc        1 ANB      0.050200
     30 H161       -1.5260   -0.0130    5.0510 hc        1 ANB      0.076200
     31 H162       -1.4490   -1.7390    4.5110 hc        1 ANB      0.076200
     32 H181        0.7180    2.1430    1.9430 hc        1 ANB      0.044033
     33 H182       -0.3730    1.9280    3.3730 hc        1 ANB      0.044033
     34 H183        1.4300    1.8240    3.5770 hc        1 ANB      0.044033
     35 H191        0.3390    2.5240   -2.6330 hc        1 ANB      0.044700
     36 H192       -0.2480    2.5160   -0.9180 hc        1 ANB      0.044700
     37 H193        1.5250    2.3740   -1.2720 hc        1 ANB      0.044700
     38 HC2         2.3210   -0.8690   -4.2550 ha        1 ANB      0.151000
     39 HC4        -2.0170   -0.6250   -3.9840 ha        1 ANB      0.150000
     40 HC61       -3.0860    0.2080   -2.0820 hc        1 ANB      0.056200
     41 HC62       -2.2310    1.6740   -1.4550 hc        1 ANB      0.056200
     42 HC71       -2.1720   -1.1900   -0.2650 hc        1 ANB      0.048700
     43 HC72       -2.9840    0.2670    0.4340 hc        1 ANB      0.048700
     44 HC8        -0.8200    1.4180    0.7070 hc        1 ANB      0.057700
     45 HC9         0.3460   -1.2120   -0.4590 hc        1 ANB      0.058700
@<TRIPOS>BOND
     1    1    2 1   
     2    1   12 2   
     3    1   22 1   
     4    2   11 1   
     5    2   15 1   
     6    2   19 1   
     7    3    4 1   
     8    3   19 1   
     9    3   23 1   
    10    3   24 1   
    11    4    5 1   
    12    4   25 1   
    13    4   26 1   
    14    5    6 1   
    15    5    9 1   
    16    5   10 1   
    17    6    7 1   
    18    6   18 1   
    19    6   27 1   
    20    7    8 1   
    21    7   28 1   
    22    7   29 1   
    23    8    9 1   
    24    8   30 1   
    25    8   31 1   
    26    9   21 2   
    27   10   32 1   
    28   10   33 1   
    29   10   34 1   
    30   11   35 1   
    31   11   36 1   
    32   11   37 1   
    33   12   13 1   
    34   12   38 1   
    35   13   14 1   
    36   13   20 2   
    37   14   15 2   
    38   14   39 1   
    39   15   16 1   
    40   16   17 1   
    41   16   40 1   
    42   16   41 1   
    43   17   18 1   
    44   17   42 1   
    45   17   43 1   
    46   18   19 1   
    47   18   44 1   
    48   19   45 1   
@<TRIPOS>SUBSTRUCTURE
     1 ANB         1 TEMP              0 ****  ****    0 ROOT
