@<TRIPOS>MOLECULE
ANC
   27    29     1     0     0
SMALL
bcc


@<TRIPOS>ATOM
      1 C1          0.0010   -0.0160    0.0360 ca        1 ANC     -0.062000
      2 C2          1.4290   -0.0210    0.0110 ca        1 ANC     -0.019000
      3 C3         -0.6900   -0.0060    1.2900 ca        1 ANC     -0.012000
      4 C4          2.1570   -0.0170    1.1710 ca        1 ANC     -0.161000
      5 C5          0.1240   -0.0020    2.4810 ca        1 ANC     -0.095400
      6 C6          1.5040   -0.0080    2.4260 ca        1 ANC     -0.036000
      7 C7         -4.9490   -0.0040   -1.0660 ca        1 ANC     -0.077000
      8 C8         -4.2630   -0.0140   -2.3150 ca        1 ANC     -0.107000
      9 C9         -4.2530   -0.0000    0.1110 ca        1 ANC     -0.146000
     10 C10        -2.8980   -0.0190   -2.3560 ca        1 ANC     -0.110000
     11 C11        -2.8230   -0.0050    0.1090 ca        1 ANC      0.019000
     12 C12        -2.1350   -0.0150   -1.1440 ca        1 ANC     -0.036000
     13 C13        -0.7370   -0.0200   -1.1560 ca        1 ANC     -0.049000
     14 C14        -2.0870   -0.0010    1.3030 ca        1 ANC     -0.165000
     15 N1         -0.5500    0.0080    3.7790 n4        1 ANC     -0.696000
     16 HC2         1.9350   -0.0290   -0.9700 ha        1 ANC      0.166000
     17 HC4         3.2590   -0.0210    1.1510 ha        1 ANC      0.172000
     18 HC6         2.1290   -0.0050    3.3370 ha        1 ANC      0.153000
     19 HC7        -6.0520   -0.0010   -1.0690 ha        1 ANC      0.155000
     20 HC8        -4.8570   -0.0170   -3.2440 ha        1 ANC      0.158000
     21 HC9        -4.7780    0.0070    1.0780 ha        1 ANC      0.141000
     22 H10C       -2.3560   -0.0270   -3.3140 ha        1 ANC      0.152000
     23 H13C       -0.2020   -0.0280   -2.1220 ha        1 ANC      0.159000
     24 H14C       -2.6580    0.0060    2.2430 ha        1 ANC      0.115000
     25 H1N        -1.1460   -0.8260    3.8570 hn        1 ANC      0.459800
     26 H2N        -1.1400    0.8460    3.8480 hn        1 ANC      0.459800
     27 H13         0.1360    0.0090    4.5400 hn        1 ANC      0.459800
@<TRIPOS>BOND
     1    1    2 ar  
     2    1    3 ar  
     3    1   13 ar  
     4    2    4 ar  
     5    2   16 1   
     6    3    5 ar  
     7    3   14 ar  
     8    4    6 ar  
     9    4   17 1   
    10    5    6 ar  
    11    5   15 1   
    12    6   18 1   
    13    7    8 ar  
    14    7    9 ar  
    15    7   19 1   
    16    8   10 ar  
    17    8   20 1   
    18    9   11 ar  
    19    9   21 1   
    20   10   12 ar  
    21   10   22 1   
    22   11   12 ar  
    23   11   14 ar  
    24   12   13 ar  
    25   13   23 1   
    26   14   24 1   
    27   15   25 1   
    28   15   26 1   
    29   15   27 1   
@<TRIPOS>SUBSTRUCTURE
     1 ANC         1 TEMP              0 ****  ****    0 ROOT
