@<TRIPOS>MOLECULE
ANC
   26    28     1     0     0
SMALL
bcc


@<TRIPOS>ATOM
      1 C1         -0.0130   -0.0190    0.0480 ca        1 ANC     -0.007000
      2 C2          1.4170   -0.0340    0.0250 ca        1 ANC     -0.164000
      3 C3         -0.7050   -0.0360    1.2990 ca        1 ANC     -0.050000
      4 C4          2.1260   -0.0590    1.1890 ca        1 ANC     -0.084000
      5 C5          0.0810   -0.0460    2.5250 ca        1 ANC      0.151600
      6 C6          1.4660   -0.0550    2.4420 ca        1 ANC     -0.219000
      7 C7         -4.9560   -0.0120   -1.0860 ca        1 ANC     -0.130000
      8 C8         -4.2620    0.0230   -2.3310 ca        1 ANC     -0.124000
      9 C9         -4.2650   -0.0360    0.0900 ca        1 ANC     -0.115000
     10 C10        -2.8980    0.0310   -2.3630 ca        1 ANC     -0.119000
     11 C11        -2.8330   -0.0260    0.0980 ca        1 ANC     -0.044000
     12 C12        -2.1390    0.0050   -1.1480 ca        1 ANC     -0.026000
     13 C13        -0.7410    0.0050   -1.1480 ca        1 ANC     -0.117000
     14 C14        -2.1050   -0.0480    1.2940 ca        1 ANC     -0.100000
     15 N1         -0.5560   -0.1220    3.7680 nv        1 ANC     -0.817200
     16 HC2         1.9220   -0.0270   -0.9520 ha        1 ANC      0.132000
     17 HC4         3.2260   -0.0750    1.1810 ha        1 ANC      0.130000
     18 HC6         2.0850   -0.0660    3.3520 ha        1 ANC      0.131000
     19 HC7        -6.0560   -0.0200   -1.0970 ha        1 ANC      0.132000
     20 HC8        -4.8500    0.0430   -3.2610 ha        1 ANC      0.132000
     21 HC9        -4.7900   -0.0650    1.0570 ha        1 ANC      0.130000
     22 H10C       -2.3500    0.0570   -3.3160 ha        1 ANC      0.133000
     23 H13C       -0.2000    0.0210   -2.1070 ha        1 ANC      0.135000
     24 H14C       -2.6780   -0.0910    2.2330 ha        1 ANC      0.130000
     25 H1N        -1.4420    0.3290    3.8130 hn        1 ANC      0.389800
     26 H2N         0.0330    0.1030    4.5400 hn        1 ANC      0.389800
@<TRIPOS>BOND
     1    1    2 ar  
     2    1    3 ar  
     3    1   13 ar  
     4    2    4 ar  
     5    2   16 1   
     6    3    5 ar  
     7    3   14 ar  
     8    4    6 ar  
     9    4   17 1   
    10    5    6 ar  
    11    5   15 1   
    12    6   18 1   
    13    7    8 ar  
    14    7    9 ar  
    15    7   19 1   
    16    8   10 ar  
    17    8   20 1   
    18    9   11 ar  
    19    9   21 1   
    20   10   12 ar  
    21   10   22 1   
    22   11   12 ar  
    23   11   14 ar  
    24   12   13 ar  
    25   13   23 1   
    26   14   24 1   
    27   15   25 1   
    28   15   26 1   
@<TRIPOS>SUBSTRUCTURE
     1 ANC         1 TEMP              0 ****  ****    0 ROOT
