@<TRIPOS>MOLECULE
ANC
   26    28     1     0     0
SMALL
bcc


@<TRIPOS>ATOM
      1 C1         -0.0130    0.0230    0.0470 ca        1 ANC     -0.007000
      2 C2          1.4180    0.0420    0.0230 ca        1 ANC     -0.164000
      3 C3         -0.7040    0.0380    1.2990 ca        1 ANC     -0.050000
      4 C4          2.1270    0.0710    1.1880 ca        1 ANC     -0.084000
      5 C5          0.0830    0.0530    2.5240 ca        1 ANC      0.151600
      6 C6          1.4680    0.0660    2.4410 ca        1 ANC     -0.219000
      7 C7         -4.9560   -0.0030   -1.0840 ca        1 ANC     -0.130000
      8 C8         -4.2630   -0.0370   -2.3290 ca        1 ANC     -0.124000
      9 C9         -4.2640    0.0250    0.0920 ca        1 ANC     -0.115000
     10 C10        -2.8990   -0.0400   -2.3610 ca        1 ANC     -0.119000
     11 C11        -2.8320    0.0200    0.1000 ca        1 ANC     -0.044000
     12 C12        -2.1390   -0.0100   -1.1470 ca        1 ANC     -0.026000
     13 C13        -0.7410   -0.0050   -1.1480 ca        1 ANC     -0.117000
     14 C14        -2.1030    0.0460    1.2950 ca        1 ANC     -0.100000
     15 N1         -0.5540    0.1280    3.7680 nh        1 ANC     -0.817200
     16 HC2         1.9220    0.0360   -0.9540 ha        1 ANC      0.132000
     17 HC4         3.2270    0.0910    1.1780 ha        1 ANC      0.130000
     18 HC6         2.0870    0.0810    3.3500 ha        1 ANC      0.131000
     19 HC7        -6.0560    0.0010   -1.0940 ha        1 ANC      0.132000
     20 HC8        -4.8510   -0.0590   -3.2580 ha        1 ANC      0.132000
     21 HC9        -4.7890    0.0530    1.0600 ha        1 ANC      0.130000
     22 H10C       -2.3510   -0.0640   -3.3150 ha        1 ANC      0.133000
     23 H13C       -0.2000   -0.0200   -2.1070 ha        1 ANC      0.135000
     24 H14C       -2.6760    0.0880    2.2340 ha        1 ANC      0.130000
     25 H1N         0.0360   -0.0940    4.5400 hn        1 ANC      0.389800
     26 H2N        -1.4380   -0.3260    3.8140 hn        1 ANC      0.389800
@<TRIPOS>BOND
     1    1    2 ar  
     2    1    3 ar  
     3    1   13 ar  
     4    2    4 ar  
     5    2   16 1   
     6    3    5 ar  
     7    3   14 ar  
     8    4    6 ar  
     9    4   17 1   
    10    5    6 ar  
    11    5   15 1   
    12    6   18 1   
    13    7    8 ar  
    14    7    9 ar  
    15    7   19 1   
    16    8   10 ar  
    17    8   20 1   
    18    9   11 ar  
    19    9   21 1   
    20   10   12 ar  
    21   10   22 1   
    22   11   12 ar  
    23   11   14 ar  
    24   12   13 ar  
    25   13   23 1   
    26   14   24 1   
    27   15   25 1   
    28   15   26 1   
@<TRIPOS>SUBSTRUCTURE
     1 ANC         1 TEMP              0 ****  ****    0 ROOT
