@<TRIPOS>MOLECULE
ANC
   26    28     1     0     0
SMALL
bcc


@<TRIPOS>ATOM
      1 C1         -1.0240    0.0010    0.9050 ca        1 ANC     -0.007000
      2 C2         -1.8740    0.0060    2.0560 ca        1 ANC     -0.164000
      3 C3          0.3960    0.0250    1.0690 ca        1 ANC     -0.050000
      4 C4         -1.3380    0.0290    3.3090 ca        1 ANC     -0.084000
      5 C5          0.9370    0.0340    2.4210 ca        1 ANC      0.151600
      6 C6          0.0650    0.0330    3.5000 ca        1 ANC     -0.219000
      7 C7          0.9250    0.0230   -3.7770 ca        1 ANC     -0.130000
      8 C8         -0.4910   -0.0190   -3.9360 ca        1 ANC     -0.124000
      9 C9          1.4810    0.0450   -2.5300 ca        1 ANC     -0.115000
     10 C10        -1.3090   -0.0360   -2.8440 ca        1 ANC     -0.119000
     11 C11         0.6550    0.0260   -1.3600 ca        1 ANC     -0.044000
     12 C12        -0.7620   -0.0120   -1.5200 ca        1 ANC     -0.026000
     13 C13        -1.5750   -0.0210   -0.3830 ca        1 ANC     -0.117000
     14 C14         1.2050    0.0460   -0.0720 ca        1 ANC     -0.100000
     15 N1          2.3180    0.1160    2.6260 nh        1 ANC     -0.817200
     16 HC2        -2.9620   -0.0060    1.8990 ha        1 ANC      0.132000
     17 HC4        -1.9850    0.0390    4.2000 ha        1 ANC      0.130000
     18 HC6         0.4450    0.0420    4.5330 ha        1 ANC      0.131000
     19 HC7         1.5560    0.0370   -4.6780 ha        1 ANC      0.132000
     20 HC8        -0.9060   -0.0370   -4.9540 ha        1 ANC      0.132000
     21 HC9         2.5730    0.0800   -2.3950 ha        1 ANC      0.130000
     22 H10C       -2.4040   -0.0670   -2.9510 ha        1 ANC      0.133000
     23 H13C       -2.6690   -0.0420   -0.4990 ha        1 ANC      0.135000
     24 H14C        2.3020    0.0950    0.0070 ha        1 ANC      0.130000
     25 H1N         2.6060   -0.1110    3.5530 hn        1 ANC      0.389800
     26 H2N         2.8730   -0.3290    1.9290 hn        1 ANC      0.389800
@<TRIPOS>BOND
     1    1    2 ar  
     2    1    3 ar  
     3    1   13 ar  
     4    2    4 ar  
     5    2   16 1   
     6    3    5 ar  
     7    3   14 ar  
     8    4    6 ar  
     9    4   17 1   
    10    5    6 ar  
    11    5   15 1   
    12    6   18 1   
    13    7    8 ar  
    14    7    9 ar  
    15    7   19 1   
    16    8   10 ar  
    17    8   20 1   
    18    9   11 ar  
    19    9   21 1   
    20   10   12 ar  
    21   10   22 1   
    22   11   12 ar  
    23   11   14 ar  
    24   12   13 ar  
    25   13   23 1   
    26   14   24 1   
    27   15   25 1   
    28   15   26 1   
@<TRIPOS>SUBSTRUCTURE
     1 ANC         1 TEMP              0 ****  ****    0 ROOT
