@<TRIPOS>MOLECULE
ANC
   26    22     1     0     0
SMALL
bcc


@<TRIPOS>ATOM
      1 C1          1.3370   -0.0210   -0.3280 c1        1 ANC      0.031350
      2 C2          2.7440   -0.0210   -0.3280 c1        1 ANC     -0.065167
      3 C3          0.6490   -0.0210    0.8660 c1        1 ANC      0.031350
      4 C4          3.4390   -0.0210    0.8750 c1        1 ANC     -0.065167
      5 C5          1.3540   -0.0210    2.0830 c1        1 ANC      0.125800
      6 C6          2.7430   -0.0210    2.0820 c1        1 ANC     -0.161500
      7 C7         -3.5700   -0.0210   -1.5580 c1        1 ANC     -0.065167
      8 C8         -2.8740   -0.0210   -2.7650 c1        1 ANC     -0.065167
      9 C9         -2.8740   -0.0210   -0.3540 c1        1 ANC     -0.065167
     10 C10        -1.4840   -0.0210   -2.7660 c1        1 ANC     -0.065167
     11 C11        -1.4680   -0.0210   -0.3540 cg        1 ANC     -0.065050
     12 C12        -0.7790   -0.0210   -1.5490 ch        1 ANC     -0.065050
     13 C13         0.6310   -0.0210   -1.5490 cf        1 ANC     -0.138300
     14 C14        -0.7620   -0.0210    0.8670 ce        1 ANC     -0.138300
     15 N1          0.8970    0.1310    3.4180 n3        1 ANC     -0.791400
     16 HC2         3.2320   -0.0210   -1.1740 ha        1 ANC      0.074000
     17 HC4         4.4150   -0.0210    0.8750 ha        1 ANC      0.074000
     18 HC6         3.2320   -0.0210    2.9270 ha        1 ANC      0.073500
     19 HC7        -4.5460   -0.0210   -1.5570 ha        1 ANC      0.074000
     20 HC8        -3.3620   -0.0210   -3.6100 ha        1 ANC      0.074000
     21 HC9        -3.3620   -0.0210    0.4910 ha        1 ANC      0.074000
     22 H10C       -0.9970   -0.0210   -3.6120 ha        1 ANC      0.074000
     23 H13C        1.1190   -0.0200   -2.3950 ha        1 ANC      0.132500
     24 H14C       -1.2490   -0.0600    1.7120 ha        1 ANC      0.132500
     25 H1N         0.3420    0.8220    3.6340 hn        1 ANC      0.389800
     26 H2N         1.1920   -0.4370    4.0680 hn        1 ANC      0.389800
@<TRIPOS>BOND
     1    1    3 2   
     2    1   13 2   
     3    2    4 3   
     4    2   16 1   
     5    3   14 2   
     6    4   17 1   
     7    5    6 3   
     8    5   15 1   
     9    6   18 1   
    10    7    9 3   
    11    7   19 1   
    12    8   10 3   
    13    8   20 1   
    14    9   21 1   
    15   10   22 1   
    16   11   12 3   
    17   11   14 1   
    18   12   13 1   
    19   13   23 1   
    20   14   24 1   
    21   15   25 1   
    22   15   26 1   
@<TRIPOS>SUBSTRUCTURE
     1 ANC         1 TEMP              0 ****  ****    0 ROOT
