@<TRIPOS>MOLECULE
AND
   49    51     1     0     0
SMALL
bcc


@<TRIPOS>ATOM
      1 C1          2.1040    1.5270   -0.8510 c3        1 AND     -0.145000
      2 C2          3.5930    1.5270   -0.8510 c3        1 AND     -0.192000
      3 C3          4.1760    1.5270    0.5360 c3        1 AND      0.034000
      4 O3          5.5680    1.3800    0.4390 oh        1 AND     -0.329000
      5 C4          3.6090    0.3770    1.4450 c3        1 AND     -0.122000
      6 C5          2.0700    0.4180    1.3980 c2        1 AND     -0.099000
      7 C6          1.1010   -0.3860    2.6190 c1        1 AND     -0.164000
      8 C7         -0.4490   -0.3440    2.3670 c2        1 AND     -0.125000
      9 C8         -0.8020   -0.4100    0.7490 c3        1 AND     -0.085000
     10 C9         -0.0830    0.5350   -0.0720 c3        1 AND     -0.089000
     11 C10         1.5040    0.4200    0.0180 c3        1 AND     -0.004000
     12 C11        -0.5420    0.4640   -1.6700 c3        1 AND     -0.155000
     13 C12        -2.1190    0.5770   -1.8520 c3        1 AND     -0.135000
     14 C13        -2.8220   -0.3630   -1.0160 c3        1 AND     -0.102000
     15 C14        -2.3620   -0.2820    0.5580 c3        1 AND     -0.104000
     16 C15        -3.0390   -1.2550    1.0950 c3        1 AND     -0.152000
     17 C16        -4.5590   -1.0850    0.3940 c3        1 AND     -0.217000
     18 C17        -4.1040   -0.1410   -0.9420 c2        1 AND      0.238000
     19 O17        -4.8250    0.1890   -1.8620 o         1 AND     -0.281000
     20 C18        -2.5870   -1.7650   -1.5340 c3        1 AND     -0.200000
     21 C19         1.8870   -0.8990   -0.6160 c3        1 AND     -0.202000
     22 H11         1.7900    2.3900   -0.5200 hc        1 AND      0.083500
     23 H12         1.7900    1.4110   -1.7680 hc        1 AND      0.083500
     24 H21         3.9070    0.7340   -1.3250 hc        1 AND      0.087000
     25 H22         3.9070    2.3210   -1.3240 hc        1 AND      0.087000
     26 H3          3.9810    2.3860    0.9580 h1        1 AND      0.076000
     27 HO3         5.9670    2.0270    0.8960 ho        1 AND      0.198000
     28 H41         3.9150   -0.5370    1.2920 hc        1 AND      0.100500
     29 H42         3.9530    0.5340    2.3460 hc        1 AND      0.100500
     30 H6          1.4460   -0.4880    3.5260 ha        1 AND      0.123000
     31 H71        -0.8640   -1.0060    2.9520 ha        1 AND      0.088500
     32 H72        -0.8570    0.4750    2.7070 ha        1 AND      0.088500
     33 H8         -0.5490   -1.3010    0.4400 hc        1 AND      0.099000
     34 H9         -0.3200    1.4250    0.2510 hc        1 AND      0.088000
     35 H111       -0.2400   -0.3850   -2.0480 hc        1 AND      0.083500
     36 H112       -0.1140    1.1950   -2.1550 hc        1 AND      0.083500
     37 H121       -2.3440    0.4030   -2.7860 hc        1 AND      0.090500
     38 H122       -2.4010    1.4820   -1.6200 hc        1 AND      0.090500
     39 H14        -2.6630    0.5650    0.9370 hc        1 AND      0.091000
     40 H151       -3.0910   -1.1470    2.0630 hc        1 AND      0.089000
     41 H152       -2.6460   -2.1180    0.8630 hc        1 AND      0.089000
     42 H161       -5.1860   -0.7220    1.0490 hc        1 AND      0.114000
     43 H162       -5.0000   -1.9070    0.1070 hc        1 AND      0.114000
     44 H181       -2.4380   -1.7350   -2.4980 hc        1 AND      0.083333
     45 H182       -3.3690   -2.3180   -1.3430 hc        1 AND      0.083333
     46 H183       -1.8030   -2.1470   -1.0950 hc        1 AND      0.083333
     47 H191        1.4350   -1.6280   -0.1500 hc        1 AND      0.077333
     48 H192        1.6210   -0.8990   -1.5550 hc        1 AND      0.077333
     49 H193        2.8540   -1.0220   -0.5520 hc        1 AND      0.077333
@<TRIPOS>BOND
     1    1    2 1   
     2    1   11 1   
     3    1   22 1   
     4    1   23 1   
     5    2    3 1   
     6    2   24 1   
     7    2   25 1   
     8    3    4 1   
     9    3    5 1   
    10    3   26 1   
    11    4   27 1   
    12    5    6 1   
    13    5   28 1   
    14    5   29 1   
    15    6    7 1   
    16    6   11 1   
    17    7   30 1   
    18    8    9 1   
    19    8   31 1   
    20    8   32 1   
    21    9   10 1   
    22    9   15 1   
    23    9   33 1   
    24   10   11 1   
    25   10   12 1   
    26   10   34 1   
    27   11   21 1   
    28   12   13 1   
    29   12   35 1   
    30   12   36 1   
    31   13   14 1   
    32   13   37 1   
    33   13   38 1   
    34   14   15 1   
    35   14   18 1   
    36   14   20 1   
    37   15   16 1   
    38   15   39 1   
    39   16   17 1   
    40   16   40 1   
    41   16   41 1   
    42   17   18 1   
    43   17   42 1   
    44   17   43 1   
    45   18   19 1   
    46   20   44 1   
    47   20   45 1   
    48   20   46 1   
    49   21   47 1   
    50   21   48 1   
    51   21   49 1   
@<TRIPOS>SUBSTRUCTURE
     1 AND         1 TEMP              0 ****  ****    0 ROOT
