@<TRIPOS>MOLECULE
AND
   49    52     1     0     0
SMALL
bcc


@<TRIPOS>ATOM
      1 C1          0.0470   -0.1370   -0.1390 c3        1 AND     -0.070400
      2 C2          1.5370    0.1050   -0.0780 c3        1 AND     -0.075400
      3 C3          1.9880    0.2440    1.3690 c3        1 AND      0.145100
      4 O3          3.4000    0.4180    1.3440 oh        1 AND     -0.599800
      5 C4          1.6110   -1.0010    2.1690 c3        1 AND     -0.076200
      6 C5          0.1640   -1.3350    2.0370 c2        1 AND     -0.103400
      7 C6         -0.5610   -1.6100    3.1310 c2        1 AND     -0.169200
      8 C7         -1.9920   -1.9780    3.1170 c3        1 AND     -0.042200
      9 C8         -2.4720   -2.3800    1.7300 c3        1 AND     -0.045700
     10 C9         -1.9450   -1.3870    0.6830 c3        1 AND     -0.049700
     11 C10        -0.3990   -1.3860    0.6380 c3        1 AND      0.000200
     12 C11        -2.5530   -1.6050   -0.7000 c3        1 AND     -0.076400
     13 C12        -4.0660   -1.7540   -0.7130 c3        1 AND     -0.056400
     14 C13        -4.4980   -2.8110    0.2860 c3        1 AND     -0.152000
     15 C14        -3.9850   -2.3640    1.6730 c3        1 AND     -0.064700
     16 C15        -4.7930   -3.1960    2.6640 c3        1 AND     -0.073400
     17 C16        -6.1730   -3.3160    2.0120 c3        1 AND     -0.188400
     18 C17        -5.9940   -2.9540    0.5500 c         1 AND      0.577100
     19 O17        -6.9000   -2.8160   -0.2670 o         1 AND     -0.519100
     20 C18        -4.0110   -4.1900   -0.1400 c3        1 AND     -0.082100
     21 C19         0.1360   -2.6330   -0.0620 c3        1 AND     -0.084100
     22 H11        -0.2560   -0.2470   -1.2130 hc        1 AND      0.045200
     23 H12        -0.4880    0.7590    0.2740 hc        1 AND      0.045200
     24 H21         2.0940   -0.7400   -0.5600 hc        1 AND      0.056200
     25 H22         1.7970    1.0420   -0.6370 hc        1 AND      0.056200
     26 H3          1.5130    1.1530    1.8360 h1        1 AND      0.035700
     27 HO3         3.6910    0.4640    2.2620 ho        1 AND      0.398000
     28 H41         2.2280   -1.8670    1.8030 hc        1 AND      0.052200
     29 H42         1.8810   -0.8380    3.2470 hc        1 AND      0.052200
     30 H6         -0.1050   -1.5610    4.1340 ha        1 AND      0.121000
     31 H71        -2.5920   -1.1010    3.4890 hc        1 AND      0.049200
     32 H72        -2.1770   -2.8270    3.8290 hc        1 AND      0.049200
     33 H8         -2.0900   -3.4110    1.5020 hc        1 AND      0.059700
     34 H9         -2.2640   -0.3590    1.0280 hc        1 AND      0.049700
     35 H111       -2.2840   -0.7300   -1.3500 hc        1 AND      0.044700
     36 H112       -2.1030   -2.5180   -1.1720 hc        1 AND      0.044700
     37 H121       -4.5510   -0.7760   -0.4580 hc        1 AND      0.051200
     38 H122       -4.4050   -2.0400   -1.7430 hc        1 AND      0.051200
     39 H14        -4.3080   -1.2900    1.8180 hc        1 AND      0.051700
     40 H151       -4.3310   -4.2030    2.8120 hc        1 AND      0.049200
     41 H152       -4.8520   -2.6950    3.6590 hc        1 AND      0.049200
     42 H161       -6.5800   -4.3540    2.0980 hc        1 AND      0.074700
     43 H162       -6.9070   -2.6170    2.4860 hc        1 AND      0.074700
     44 H181       -2.9040   -4.2030   -0.2720 hc        1 AND      0.044033
     45 H182       -4.2820   -4.9530    0.6290 hc        1 AND      0.044033
     46 H183       -4.4890   -4.4690   -1.1110 hc        1 AND      0.044033
     47 H191        1.2310   -2.7480    0.1270 hc        1 AND      0.038367
     48 H192       -0.3830   -3.5480    0.3100 hc        1 AND      0.038367
     49 H193       -0.0150   -2.5590   -1.1660 hc        1 AND      0.038367
@<TRIPOS>BOND
     1    1    2 1   
     2    1   11 1   
     3    1   22 1   
     4    1   23 1   
     5    2    3 1   
     6    2   24 1   
     7    2   25 1   
     8    3    4 1   
     9    3    5 1   
    10    3   26 1   
    11    4   27 1   
    12    5    6 1   
    13    5   28 1   
    14    5   29 1   
    15    6    7 2   
    16    6   11 1   
    17    7    8 1   
    18    7   30 1   
    19    8    9 1   
    20    8   31 1   
    21    8   32 1   
    22    9   10 1   
    23    9   15 1   
    24    9   33 1   
    25   10   11 1   
    26   10   12 1   
    27   10   34 1   
    28   11   21 1   
    29   12   13 1   
    30   12   35 1   
    31   12   36 1   
    32   13   14 1   
    33   13   37 1   
    34   13   38 1   
    35   14   15 1   
    36   14   18 1   
    37   14   20 1   
    38   15   16 1   
    39   15   39 1   
    40   16   17 1   
    41   16   40 1   
    42   16   41 1   
    43   17   18 1   
    44   17   42 1   
    45   17   43 1   
    46   18   19 2   
    47   20   44 1   
    48   20   45 1   
    49   20   46 1   
    50   21   47 1   
    51   21   48 1   
    52   21   49 1   
@<TRIPOS>SUBSTRUCTURE
     1 AND         1 TEMP              0 ****  ****    0 ROOT
