@<TRIPOS>MOLECULE
AND
   49    52     1     0     0
SMALL
bcc


@<TRIPOS>ATOM
      1 C1          0.0660   -0.1480   -0.1330 c3        1 AND     -0.070400
      2 C2          1.5570    0.0880   -0.0610 c3        1 AND     -0.075400
      3 C3          1.9960    0.2290    1.3910 c3        1 AND      0.145100
      4 O3          3.4090    0.3970    1.3770 oh        1 AND     -0.599800
      5 C4          1.6070   -1.0110    2.1910 c3        1 AND     -0.076200
      6 C5          0.1600   -1.3390    2.0470 c2        1 AND     -0.103400
      7 C6         -0.5760   -1.6080    3.1360 c2        1 AND     -0.169200
      8 C7         -2.0090   -1.9700    3.1110 c3        1 AND     -0.042200
      9 C8         -2.4780   -2.3740    1.7210 c3        1 AND     -0.045700
     10 C9         -1.9380   -1.3870    0.6750 c3        1 AND     -0.049700
     11 C10        -0.3920   -1.3930    0.6430 c3        1 AND      0.000200
     12 C11        -2.5350   -1.6080   -0.7120 c3        1 AND     -0.076400
     13 C12        -4.0480   -1.7500   -0.7380 c3        1 AND     -0.056400
     14 C13        -4.4940   -2.8010    0.2610 c3        1 AND     -0.152000
     15 C14        -3.9900   -2.3530    1.6510 c3        1 AND     -0.064700
     16 C15        -4.8100   -3.1780    2.6370 c3        1 AND     -0.073400
     17 C16        -6.1860   -3.2940    1.9750 c3        1 AND     -0.188400
     18 C17        -5.9920   -2.9370    0.5130 c         1 AND      0.577100
     19 O17        -6.8900   -2.7980   -0.3120 o         1 AND     -0.519100
     20 C18        -4.0090   -4.1840   -0.1560 c3        1 AND     -0.082100
     21 C19         0.1440   -2.6450   -0.0470 c3        1 AND     -0.084100
     22 H11        -0.4690    0.7510    0.2720 hc        1 AND      0.045200
     23 H12        -0.2280   -0.2610   -1.2100 hc        1 AND      0.045200
     24 H21         2.1150   -0.7610   -0.5350 hc        1 AND      0.056200
     25 H22         1.8250    1.0210   -0.6200 hc        1 AND      0.056200
     26 H3          1.5210    1.1420    1.8500 h1        1 AND      0.035700
     27 HO3         3.6920    0.4460    2.2970 ho        1 AND      0.398000
     28 H41         2.2230   -1.8810    1.8330 hc        1 AND      0.052200
     29 H42         1.8680   -0.8460    3.2700 hc        1 AND      0.052200
     30 H6         -0.1290   -1.5580    4.1430 ha        1 AND      0.121000
     31 H71        -2.6080   -1.0900    3.4750 hc        1 AND      0.049200
     32 H72        -2.2030   -2.8160    3.8240 hc        1 AND      0.049200
     33 H8         -2.0990   -3.4080    1.5000 hc        1 AND      0.059700
     34 H9         -2.2550   -0.3570    1.0140 hc        1 AND      0.049700
     35 H111       -2.0850   -2.5240   -1.1770 hc        1 AND      0.044700
     36 H112       -2.2570   -0.7360   -1.3630 hc        1 AND      0.044700
     37 H121       -4.3800   -2.0370   -1.7690 hc        1 AND      0.051200
     38 H122       -4.5320   -0.7690   -0.4900 hc        1 AND      0.051200
     39 H14        -4.3100   -1.2760    1.7900 hc        1 AND      0.051700
     40 H151       -4.8760   -2.6730    3.6310 hc        1 AND      0.049200
     41 H152       -4.3540   -4.1860    2.7930 hc        1 AND      0.049200
     42 H161       -6.5970   -4.3300    2.0600 hc        1 AND      0.074700
     43 H162       -6.9210   -2.5900    2.4390 hc        1 AND      0.074700
     44 H181       -4.2900   -4.9430    0.6130 hc        1 AND      0.044033
     45 H182       -2.9000   -4.2020   -0.2790 hc        1 AND      0.044033
     46 H183       -4.4790   -4.4650   -1.1300 hc        1 AND      0.044033
     47 H191        0.0030   -2.5730   -1.1530 hc        1 AND      0.038367
     48 H192        1.2370   -2.7630    0.1510 hc        1 AND      0.038367
     49 H193       -0.3820   -3.5560    0.3230 hc        1 AND      0.038367
@<TRIPOS>BOND
     1    1    2 1   
     2    1   11 1   
     3    1   22 1   
     4    1   23 1   
     5    2    3 1   
     6    2   24 1   
     7    2   25 1   
     8    3    4 1   
     9    3    5 1   
    10    3   26 1   
    11    4   27 1   
    12    5    6 1   
    13    5   28 1   
    14    5   29 1   
    15    6    7 2   
    16    6   11 1   
    17    7    8 1   
    18    7   30 1   
    19    8    9 1   
    20    8   31 1   
    21    8   32 1   
    22    9   10 1   
    23    9   15 1   
    24    9   33 1   
    25   10   11 1   
    26   10   12 1   
    27   10   34 1   
    28   11   21 1   
    29   12   13 1   
    30   12   35 1   
    31   12   36 1   
    32   13   14 1   
    33   13   37 1   
    34   13   38 1   
    35   14   15 1   
    36   14   18 1   
    37   14   20 1   
    38   15   16 1   
    39   15   39 1   
    40   16   17 1   
    41   16   40 1   
    42   16   41 1   
    43   17   18 1   
    44   17   42 1   
    45   17   43 1   
    46   18   19 2   
    47   20   44 1   
    48   20   45 1   
    49   20   46 1   
    50   21   47 1   
    51   21   48 1   
    52   21   49 1   
@<TRIPOS>SUBSTRUCTURE
     1 AND         1 TEMP              0 ****  ****    0 ROOT
