@<TRIPOS>MOLECULE
AND
   49    52     1     0     0
SMALL
bcc


@<TRIPOS>ATOM
      1 C1          1.3980   -0.6860   -2.3800 c3        1 AND     -0.070400
      2 C2          1.3860   -0.3920   -3.8620 c3        1 AND     -0.075400
      3 C3         -0.0180   -0.5770   -4.4230 c3        1 AND      0.145100
      4 O3          0.0440   -0.2350   -5.8030 oh        1 AND     -0.599800
      5 C4         -1.0100    0.3200   -3.6870 c3        1 AND     -0.076200
      6 C5         -0.9420    0.1370   -2.2090 c2        1 AND     -0.103400
      7 C6         -2.0700   -0.0280   -1.5030 c2        1 AND     -0.169200
      8 C7         -2.1240   -0.1920   -0.0350 c3        1 AND     -0.042200
      9 C8         -0.8230    0.2160    0.6400 c3        1 AND     -0.045700
     10 C9          0.3740   -0.3580   -0.1340 c3        1 AND     -0.049700
     11 C10         0.4270    0.1950   -1.5770 c3        1 AND      0.000200
     12 C11         1.7000   -0.1640    0.5970 c3        1 AND     -0.076400
     13 C12         1.6800   -0.5590    2.0660 c3        1 AND     -0.056400
     14 C13         0.5210    0.1150    2.7750 c3        1 AND     -0.152000
     15 C14        -0.7720   -0.3230    2.0530 c3        1 AND     -0.064700
     16 C15        -1.8890    0.0110    3.0360 c3        1 AND     -0.073400
     17 C16        -1.2740   -0.2680    4.4100 c3        1 AND     -0.188400
     18 C17         0.2280   -0.3210    4.2070 c         1 AND      0.577100
     19 O17         1.0520   -0.6460    5.0580 o         1 AND     -0.519100
     20 C18         0.7210    1.6240    2.8250 c3        1 AND     -0.082100
     21 C19         0.9190    1.6400   -1.6010 c3        1 AND     -0.084100
     22 H11         1.1320   -1.7640   -2.2170 hc        1 AND      0.045200
     23 H12         2.4390   -0.5310   -1.9920 hc        1 AND      0.045200
     24 H21         2.0900   -1.0820   -4.3960 hc        1 AND      0.056200
     25 H22         1.7280    0.6570   -4.0600 hc        1 AND      0.056200
     26 H3         -0.3330   -1.6540   -4.3240 h1        1 AND      0.035700
     27 HO3        -0.8530   -0.3130   -6.1480 ho        1 AND      0.398000
     28 H41        -2.0460    0.1030   -4.0630 hc        1 AND      0.052200
     29 H42        -0.7850    1.3920   -3.9400 hc        1 AND      0.052200
     30 H6         -3.0500   -0.0630   -2.0090 ha        1 AND      0.121000
     31 H71        -2.3530   -1.2690    0.1980 hc        1 AND      0.049200
     32 H72        -2.9650    0.4200    0.3880 hc        1 AND      0.049200
     33 H8         -0.7630    1.3380    0.6550 hc        1 AND      0.059700
     34 H9          0.1980   -1.4710   -0.2140 hc        1 AND      0.049700
     35 H111        2.0210    0.9080    0.5240 hc        1 AND      0.044700
     36 H112        2.4840   -0.7800    0.0820 hc        1 AND      0.044700
     37 H121        2.6480   -0.2620    2.5460 hc        1 AND      0.051200
     38 H122        1.5840   -1.6720    2.1640 hc        1 AND      0.051200
     39 H14        -0.7440   -1.4520    1.9720 hc        1 AND      0.051700
     40 H151       -2.1960    1.0830    2.9450 hc        1 AND      0.049200
     41 H152       -2.7910   -0.6210    2.8550 hc        1 AND      0.049200
     42 H161       -1.5280    0.5340    5.1460 hc        1 AND      0.074700
     43 H162       -1.6320   -1.2440    4.8240 hc        1 AND      0.074700
     44 H181        0.8560    2.0470    1.8020 hc        1 AND      0.044033
     45 H182       -0.1630    2.1180    3.2970 hc        1 AND      0.044033
     46 H183        1.6310    1.8590    3.4300 hc        1 AND      0.044033
     47 H191        0.7210    2.1040   -2.5970 hc        1 AND      0.038367
     48 H192        0.4010    2.2460   -0.8200 hc        1 AND      0.038367
     49 H193        2.0190    1.6820   -1.4160 hc        1 AND      0.038367
@<TRIPOS>BOND
     1    1    2 1   
     2    1   11 1   
     3    1   22 1   
     4    1   23 1   
     5    2    3 1   
     6    2   24 1   
     7    2   25 1   
     8    3    4 1   
     9    3    5 1   
    10    3   26 1   
    11    4   27 1   
    12    5    6 1   
    13    5   28 1   
    14    5   29 1   
    15    6    7 2   
    16    6   11 1   
    17    7    8 1   
    18    7   30 1   
    19    8    9 1   
    20    8   31 1   
    21    8   32 1   
    22    9   10 1   
    23    9   15 1   
    24    9   33 1   
    25   10   11 1   
    26   10   12 1   
    27   10   34 1   
    28   11   21 1   
    29   12   13 1   
    30   12   35 1   
    31   12   36 1   
    32   13   14 1   
    33   13   37 1   
    34   13   38 1   
    35   14   15 1   
    36   14   18 1   
    37   14   20 1   
    38   15   16 1   
    39   15   39 1   
    40   16   17 1   
    41   16   40 1   
    42   16   41 1   
    43   17   18 1   
    44   17   42 1   
    45   17   43 1   
    46   18   19 2   
    47   20   44 1   
    48   20   45 1   
    49   20   46 1   
    50   21   47 1   
    51   21   48 1   
    52   21   49 1   
@<TRIPOS>SUBSTRUCTURE
     1 AND         1 TEMP              0 ****  ****    0 ROOT
