@<TRIPOS>MOLECULE
ANE
   15    16     1     0     0
SMALL
bcc


@<TRIPOS>ATOM
      1 N9         -0.6840    0.0000   -2.1020 na        1 ANE     -0.379000
      2 C8          0.7050   -0.0000   -2.3580 cc        1 ANE      0.398700
      3 N7          1.4560   -0.0000   -1.2460 nd        1 ANE     -0.541100
      4 C5          0.5380   -0.0000   -0.1860 ca        1 ANE     -0.237200
      5 C6          0.6900   -0.0000    1.2420 ca        1 ANE      0.767200
      6 N6          1.9390   -0.0010    1.8020 nh        1 ANE     -0.962500
      7 N1         -0.4390   -0.0000    2.0280 nb        1 ANE     -0.798000
      8 C2         -1.6450    0.0000    1.3980 ca        1 ANE      0.688900
      9 N3         -1.9430    0.0010    0.0780 nb        1 ANE     -0.737000
     10 C4         -0.8240    0.0000   -0.7100 ca        1 ANE      0.456800
     11 HN9        -1.4150    0.0010   -2.7610 hn        1 ANE      0.318700
     12 H8          1.0930   -0.0000   -3.3830 h5        1 ANE      0.072800
     13 HN61        2.0550   -0.0010    2.7840 hn        1 ANE      0.450300
     14 HN62        2.7310   -0.0010    1.2090 hn        1 ANE      0.450300
     15 H2         -2.5210    0.0010    2.0820 h5        1 ANE      0.052100
@<TRIPOS>BOND
     1    1    2 1   
     2    1   10 1   
     3    1   11 1   
     4    2    3 2   
     5    2   12 1   
     6    3    4 1   
     7    4    5 ar  
     8    4   10 ar  
     9    5    6 1   
    10    5    7 ar  
    11    6   13 1   
    12    6   14 1   
    13    7    8 ar  
    14    8    9 ar  
    15    8   15 1   
    16    9   10 ar  
@<TRIPOS>SUBSTRUCTURE
     1 ANE         1 TEMP              0 ****  ****    0 ROOT
