@<TRIPOS>MOLECULE
ANE
   15    16     1     0     0
SMALL
bcc


@<TRIPOS>ATOM
      1 N9         -0.0270    0.0620   -0.0250 na        1 ANE     -0.379000
      2 C8          1.3850    0.1060    0.0020 cc        1 ANE      0.398700
      3 N7          1.8990    0.0810    1.2410 nd        1 ANE     -0.541100
      4 C5          0.7880    0.0180    2.0940 ca        1 ANE     -0.237200
      5 C6          0.6530   -0.0330    3.5230 ca        1 ANE      0.767200
      6 N6          1.7650   -0.0240    4.3210 nv        1 ANE     -0.962500
      7 N1         -0.6090   -0.0900    4.0670 nb        1 ANE     -0.798000
      8 C2         -1.6650   -0.0950    3.2090 ca        1 ANE      0.688900
      9 N3         -1.6940   -0.0520    1.8570 nb        1 ANE     -0.737000
     10 C4         -0.4420    0.0050    1.3090 ca        1 ANE      0.456800
     11 HN9        -0.6120    0.0700   -0.8180 hn        1 ANE      0.318700
     12 H8          1.9680    0.1540   -0.9250 h5        1 ANE      0.072800
     13 HN61        2.6580    0.0180    3.8990 hn        1 ANE      0.450300
     14 HN62        1.6830   -0.0580    5.3060 hn        1 ANE      0.450300
     15 H2         -2.6590   -0.1420    3.7040 h5        1 ANE      0.052100
@<TRIPOS>BOND
     1    1    2 1   
     2    1   10 1   
     3    1   11 1   
     4    2    3 2   
     5    2   12 1   
     6    3    4 1   
     7    4    5 ar  
     8    4   10 ar  
     9    5    6 1   
    10    5    7 ar  
    11    6   13 1   
    12    6   14 1   
    13    7    8 ar  
    14    8    9 ar  
    15    8   15 1   
    16    9   10 ar  
@<TRIPOS>SUBSTRUCTURE
     1 ANE         1 TEMP              0 ****  ****    0 ROOT
