@<TRIPOS>MOLECULE
ANE
   15    11     1     0     0
SMALL
bcc


@<TRIPOS>ATOM
      1 N9         -0.2280    0.0010   -2.2350 n2        1 ANE     -0.227000
      2 C8          1.1240    0.0010   -2.2350 c1        1 ANE     -0.057000
      3 N7          1.5420    0.0010   -0.9490 n2        1 ANE     -0.114000
      4 C5          0.4430    0.0010   -0.1490 c1        1 ANE     -0.246000
      5 C6          0.2970    0.0010    1.2290 c1        1 ANE      0.246000
      6 N6          1.2370   -0.0030    2.2920 n2        1 ANE     -0.360000
      7 N1         -0.9310    0.0010    1.7740 n2        1 ANE     -0.272000
      8 C2         -2.0350    0.0010    0.9710 c1        1 ANE      0.026000
      9 N3         -1.8930    0.0010   -0.3860 n1        1 ANE     -0.211000
     10 C4         -0.6480    0.0010   -0.9420 c1        1 ANE      0.065000
     11 HN9        -0.7640    0.0010   -2.9730 DU        1 ANE      0.235500
     12 H8          1.6970    0.0010   -3.0250 DU        1 ANE      0.235500
     13 HN61        1.5410   -0.7940    2.6290 hn        1 ANE      0.245500
     14 HN62        1.5440    0.7860    2.6320 hn        1 ANE      0.245500
     15 H2         -2.9270    0.0010    1.3680 ha        1 ANE      0.189000
@<TRIPOS>BOND
     1    1    2 1   
     2    1   10 1   
     3    2    3 1   
     4    3    4 1   
     5    4    5 1   
     6    5    7 1   
     7    6   13 1   
     8    6   14 1   
     9    7    8 1   
    10    8   15 1   
    11    9   10 1   
@<TRIPOS>SUBSTRUCTURE
     1 ANE         1 TEMP              0 ****  ****    0 ROOT
