@<TRIPOS>MOLECULE
ANF
   25    27     1     0     0
SMALL
bcc


@<TRIPOS>ATOM
      1 C1          0.0060    0.0940   -0.0170 ca        1 ANF     -0.103000
      2 C2          1.3710    0.0790   -0.0440 ca        1 ANF     -0.137000
      3 C3          2.1170    0.0310    1.1680 ca        1 ANF     -0.116000
      4 C4          1.4720    0.0010    2.3690 ca        1 ANF     -0.126500
      5 C5         -2.6980   -0.0340    5.0050 ca        1 ANF     -0.126500
      6 C6         -4.0620   -0.0190    5.0600 ca        1 ANF     -0.116000
      7 C7         -4.8330    0.0290    3.8630 ca        1 ANF     -0.137000
      8 C8         -4.2150    0.0600    2.6450 ca        1 ANF     -0.103000
      9 C9         -2.1180    0.0780    1.3060 ca        1 ANF      0.157100
     10 O9         -2.9420    0.1230    0.2070 oh        1 ANF     -0.496100
     11 C10        -0.6160   -0.0160    3.6720 ca        1 ANF     -0.151000
     12 C11        -2.0140   -0.0020    3.7470 ca        1 ANF      0.000500
     13 C12        -2.7880    0.0460    2.5520 ca        1 ANF     -0.087000
     14 C13        -0.7110    0.0640    1.2220 ca        1 ANF     -0.087000
     15 C14         0.0390    0.0160    2.4390 ca        1 ANF      0.000500
     16 H1         -0.5500    0.1310   -0.9660 ha        1 ANF      0.133500
     17 H2          1.9160    0.1030   -0.9990 ha        1 ANF      0.133000
     18 H3          3.2160    0.0190    1.1120 ha        1 ANF      0.133000
     19 H4          2.0320   -0.0360    3.3160 ha        1 ANF      0.134000
     20 H5         -2.0910   -0.0710    5.9220 ha        1 ANF      0.134000
     21 H6         -4.5880   -0.0440    6.0260 ha        1 ANF      0.133000
     22 H7         -5.9300    0.0390    3.9410 ha        1 ANF      0.133000
     23 H8         -4.7930    0.0980    1.7080 ha        1 ANF      0.133500
     24 H9         -2.4010    0.1440   -0.5940 ho        1 ANF      0.424000
     25 H10        -0.0250   -0.0530    4.6000 ha        1 ANF      0.136000
@<TRIPOS>BOND
     1    1    2 ar  
     2    1   14 ar  
     3    1   16 1   
     4    2    3 ar  
     5    2   17 1   
     6    3    4 ar  
     7    3   18 1   
     8    4   15 ar  
     9    4   19 1   
    10    5    6 ar  
    11    5   12 ar  
    12    5   20 1   
    13    6    7 ar  
    14    6   21 1   
    15    7    8 ar  
    16    7   22 1   
    17    8   13 ar  
    18    8   23 1   
    19    9   10 1   
    20    9   13 ar  
    21    9   14 ar  
    22   10   24 1   
    23   11   12 ar  
    24   11   15 ar  
    25   11   25 1   
    26   12   13 ar  
    27   14   15 ar  
@<TRIPOS>SUBSTRUCTURE
     1 ANF         1 TEMP              0 ****  ****    0 ROOT
