@<TRIPOS>MOLECULE
ANF
   25    20     1     0     0
SMALL
bcc


@<TRIPOS>ATOM
      1 C1          1.4880   -0.0200   -2.3010 c1        1 ANF     -0.124000
      2 C2          2.8780   -0.0200   -2.3010 c1        1 ANF     -0.124000
      3 C3          3.5750   -0.0200   -1.0950 c1        1 ANF     -0.124000
      4 C4          2.8810   -0.0200    0.1090 c1        1 ANF     -0.124000
      5 C5         -1.3440   -0.0200    2.5510 c1        1 ANF     -0.133000
      6 C6         -2.7340   -0.0200    2.5510 c1        1 ANF     -0.124000
      7 C7         -3.4310   -0.0200    1.3440 c1        1 ANF     -0.124000
      8 C8         -2.7370   -0.0200    0.1400 c1        1 ANF     -0.088000
      9 C9         -0.6250   -0.0200   -1.0820 c1        1 ANF      0.112000
     10 O9         -1.3250   -0.1740   -2.2930 o         1 ANF     -0.250000
     11 C10         0.7700   -0.0200    1.3320 c1        1 ANF     -0.151000
     12 C11        -0.6410   -0.0200    1.3330 c1        1 ANF      0.000000
     13 C12        -1.3300   -0.0200    0.1390 c2        1 ANF     -0.066000
     14 C13         0.7850   -0.0200   -1.0830 c1        1 ANF     -0.108000
     15 C14         1.4750   -0.0200    0.1110 c1        1 ANF      0.001000
     16 H1          1.0000   -0.0200   -3.1470 ha        1 ANF      0.131000
     17 H2          3.3660   -0.0200   -3.1470 ha        1 ANF      0.131000
     18 H3          4.5510   -0.0200   -1.0950 ha        1 ANF      0.131000
     19 H4          3.3700   -0.0200    0.9540 ha        1 ANF      0.131000
     20 H5         -0.8560   -0.0200    3.3960 ha        1 ANF      0.133000
     21 H6         -3.2220   -0.0200    3.3960 ha        1 ANF      0.131000
     22 H7         -4.4070   -0.0200    1.3450 ha        1 ANF      0.131000
     23 H8         -3.2260   -0.0200   -0.7050 ha        1 ANF      0.148000
     24 H9         -1.5180    0.6250   -2.6280 ho        1 ANF      0.223000
     25 H10         1.2580   -0.0200    2.1770 ha        1 ANF      0.136000
@<TRIPOS>BOND
     1    1    2 1   
     2    1   16 1   
     3    2   17 1   
     4    3    4 1   
     5    3   18 1   
     6    4   19 1   
     7    5   12 1   
     8    5   20 1   
     9    6    7 1   
    10    6   21 1   
    11    7   22 1   
    12    8   13 1   
    13    8   23 1   
    14    9   13 1   
    15    9   14 1   
    16   10   24 1   
    17   11   15 1   
    18   11   25 1   
    19   12   13 1   
    20   14   15 1   
@<TRIPOS>SUBSTRUCTURE
     1 ANF         1 TEMP              0 ****  ****    0 ROOT
