@<TRIPOS>MOLECULE
ANF
   25    27     1     0     0
SMALL
bcc


@<TRIPOS>ATOM
      1 C1          1.1850   -0.1050   -2.4590 ca        1 ANF     -0.103000
      2 C2          0.4900   -0.0970   -3.6340 ca        1 ANF     -0.137000
      3 C3         -0.9330   -0.0510   -3.6300 ca        1 ANF     -0.116000
      4 C4         -1.6150   -0.0140   -2.4500 ca        1 ANF     -0.126500
      5 C5         -1.6600    0.0480    2.4830 ca        1 ANF     -0.126500
      6 C6         -0.9880    0.0410    3.6720 ca        1 ANF     -0.116000
      7 C7          0.4340   -0.0050    3.6970 ca        1 ANF     -0.137000
      8 C8          1.1450   -0.0420    2.5310 ca        1 ANF     -0.103000
      9 C9          1.1790   -0.0740    0.0430 ca        1 ANF      0.157100
     10 O9          2.5480   -0.1170    0.1660 oh        1 ANF     -0.496100
     11 C10        -1.6230    0.0160    0.0120 ca        1 ANF     -0.151000
     12 C11        -0.9510    0.0090    1.2390 ca        1 ANF      0.000500
     13 C12         0.4730   -0.0360    1.2690 ca        1 ANF     -0.087000
     14 C13         0.5100   -0.0680   -1.1970 ca        1 ANF     -0.087000
     15 C14        -0.9200   -0.0210   -1.1950 ca        1 ANF      0.000500
     16 H1          2.2850   -0.1410   -2.4860 ha        1 ANF      0.133500
     17 H2          1.0150   -0.1260   -4.6000 ha        1 ANF      0.133000
     18 H3         -1.4640   -0.0460   -4.5940 ha        1 ANF      0.133000
     19 H4         -2.7150    0.0210   -2.4280 ha        1 ANF      0.134000
     20 H5         -2.7590    0.0830    2.4500 ha        1 ANF      0.134000
     21 H6         -1.5330    0.0700    4.6280 ha        1 ANF      0.133000
     22 H7          0.9460   -0.0100    4.6710 ha        1 ANF      0.133000
     23 H8          2.2460   -0.0780    2.5300 ha        1 ANF      0.133500
     24 H9          2.9440   -0.1400   -0.7160 ho        1 ANF      0.424000
     25 H10        -2.7230    0.0510   -0.0020 ha        1 ANF      0.136000
@<TRIPOS>BOND
     1    1    2 ar  
     2    1   14 ar  
     3    1   16 1   
     4    2    3 ar  
     5    2   17 1   
     6    3    4 ar  
     7    3   18 1   
     8    4   15 ar  
     9    4   19 1   
    10    5    6 ar  
    11    5   12 ar  
    12    5   20 1   
    13    6    7 ar  
    14    6   21 1   
    15    7    8 ar  
    16    7   22 1   
    17    8   13 ar  
    18    8   23 1   
    19    9   10 1   
    20    9   13 ar  
    21    9   14 ar  
    22   10   24 1   
    23   11   12 ar  
    24   11   15 ar  
    25   11   25 1   
    26   12   13 ar  
    27   14   15 ar  
@<TRIPOS>SUBSTRUCTURE
     1 ANF         1 TEMP              0 ****  ****    0 ROOT
