@<TRIPOS>MOLECULE
ANG
   20    21     1     0     0
SMALL
bcc


@<TRIPOS>ATOM
      1 N9         -0.0180   -0.0310    0.0240 na        1 ANG     -0.247900
      2 C4          1.3720   -0.0110   -0.0160 cc        1 ANG      0.123800
      3 N3          2.2780   -0.0490    1.0400 nc        1 ANG     -0.564100
      4 C2          3.5610   -0.0140    0.6540 cd        1 ANG      0.600800
      5 N2          4.5620   -0.0540    1.7750 n4        1 ANG     -0.808600
      6 N1          4.0510    0.0540   -0.6420 n         1 ANG     -0.489400
      7 C6          3.1650    0.0960   -1.7810 c         1 ANG      0.646000
      8 O6          3.6630    0.1560   -2.8960 o         1 ANG     -0.435500
      9 C5          1.7500    0.0600   -1.4100 cd        1 ANG      0.260800
     10 N7          0.6340    0.0840   -2.2180 nd        1 ANG     -0.474000
     11 C8         -0.4230    0.0290   -1.3390 cc        1 ANG      0.432400
     12 N8         -1.8190    0.0310   -1.7650 n4        1 ANG     -0.788300
     13 H9         -0.5890   -0.0770    0.8380 hn        1 ANG      0.363700
     14 H21         5.1620   -0.8870    1.6750 hn        1 ANG      0.502133
     15 H22         5.1400    0.7990    1.7550 hn        1 ANG      0.502133
     16 H1          5.0340    0.0760   -0.8430 hn        1 ANG      0.377500
     17 H81        -2.2860   -0.8360   -1.4590 hn        1 ANG      0.498800
     18 H82        -2.3080    0.8530   -1.3790 hn        1 ANG      0.498800
     19 H23         4.0720   -0.1040    2.6870 hn        1 ANG      0.502133
     20 H83        -1.8500    0.0800   -2.8020 hn        1 ANG      0.498800
@<TRIPOS>BOND
     1    1    2 1   
     2    1   11 1   
     3    1   13 1   
     4    2    3 1   
     5    2    9 2   
     6    3    4 2   
     7    4    5 1   
     8    4    6 1   
     9    5   14 1   
    10    5   15 1   
    11    5   19 1   
    12    6    7 1   
    13    6   16 1   
    14    7    8 2   
    15    7    9 1   
    16    9   10 1   
    17   10   11 2   
    18   11   12 1   
    19   12   17 1   
    20   12   18 1   
    21   12   20 1   
@<TRIPOS>SUBSTRUCTURE
     1 ANG         1 TEMP              0 ****  ****    0 ROOT
