@<TRIPOS>MOLECULE
ANG
   18    19     1     0     0
SMALL
bcc


@<TRIPOS>ATOM
      1 N9          1.3940    0.1070   -1.5160 na        1 ANG     -0.287900
      2 C4          0.8540    0.0540   -0.2380 cc        1 ANG      0.109800
      3 N3          1.5100    0.1100    0.9800 nc        1 ANG     -0.672100
      4 C2          0.6980    0.0010    2.0580 cd        1 ANG      0.681800
      5 N2          1.2900   -0.0820    3.3390 nh        1 ANG     -0.891800
      6 N1         -0.7080   -0.0940    1.9930 n         1 ANG     -0.509400
      7 C6         -1.4190   -0.1540    0.7630 c         1 ANG      0.650000
      8 O6         -2.6520   -0.2630    0.8170 o         1 ANG     -0.597500
      9 C5         -0.5730   -0.0670   -0.4110 cd        1 ANG      0.183800
     10 N7         -0.9040   -0.0910   -1.7590 nd        1 ANG     -0.604000
     11 C8          0.2880    0.0170   -2.4200 cc        1 ANG      0.544400
     12 N8          0.5280    0.0550   -3.8210 nh        1 ANG     -0.878500
     13 H9          2.3470    0.1930   -1.7580 hn        1 ANG      0.323700
     14 H21         2.2720    0.0950    3.3550 hn        1 ANG      0.420300
     15 H22         0.7860    0.3620    4.0740 hn        1 ANG      0.420300
     16 H1         -1.2390   -0.2130    2.8280 hn        1 ANG      0.335500
     17 H81        -0.0090    0.7940   -4.2380 hn        1 ANG      0.385300
     18 H82         0.2750   -0.8260   -4.2320 hn        1 ANG      0.385300
@<TRIPOS>BOND
     1    1    2 1   
     2    1   11 1   
     3    1   13 1   
     4    2    3 1   
     5    2    9 2   
     6    3    4 2   
     7    4    5 1   
     8    4    6 1   
     9    5   14 1   
    10    5   15 1   
    11    6    7 1   
    12    6   16 1   
    13    7    8 2   
    14    7    9 1   
    15    9   10 1   
    16   10   11 2   
    17   11   12 1   
    18   12   17 1   
    19   12   18 1   
@<TRIPOS>SUBSTRUCTURE
     1 ANG         1 TEMP              0 ****  ****    0 ROOT
