@<TRIPOS>MOLECULE
ANG
   18    15     1     0     0
SMALL
bcc


@<TRIPOS>ATOM
      1 N9         -1.8850    0.0010    0.4400 n2        1 ANG     -0.174000
      2 C4         -0.5320    0.0010    0.4400 c1        1 ANG      0.060000
      3 N3          0.4450    0.0010    1.5230 n1        1 ANG     -0.245000
      4 C2          1.8560    0.0010    1.2240 c1        1 ANG      0.235000
      5 N2          2.8040    0.0020    2.2800 n2        1 ANG     -0.303000
      6 N1          2.2980    0.0010   -0.1280 n         1 ANG     -0.349000
      7 C6          1.3630    0.0010   -1.1690 c2        1 ANG      0.397000
      8 O6          1.7390    0.0450   -2.3230 o         1 ANG     -0.322000
      9 C5         -0.1120    0.0010   -0.8560 c2        1 ANG     -0.234000
     10 N7         -1.2070    0.0010   -1.6500 n2        1 ANG     -0.078000
     11 C8         -2.3050    0.0010   -0.8500 c1        1 ANG      0.000000
     12 N8         -3.5480   -0.0180   -1.5330 n2        1 ANG     -0.303000
     13 H9         -2.4210    0.0010    1.1780 DU        1 ANG      0.274000
     14 H21         2.5210   -0.0030    3.1470 hn        1 ANG      0.198000
     15 H22         3.6970    0.0070    2.0910 hn        1 ANG      0.198000
     16 H1          3.1900    0.0010   -0.3170 hn        1 ANG      0.249000
     17 H81        -3.8570    0.7370   -1.9410 hn        1 ANG      0.198000
     18 H82        -4.0440   -0.7830   -1.5560 hn        1 ANG      0.198000
@<TRIPOS>BOND
     1    1    2 1   
     2    1   11 1   
     3    2    9 1   
     4    3    4 1   
     5    4    6 1   
     6    5   14 1   
     7    5   15 1   
     8    6    7 1   
     9    6   16 1   
    10    7    8 1   
    11    7    9 1   
    12    9   10 1   
    13   10   11 1   
    14   12   17 1   
    15   12   18 1   
@<TRIPOS>SUBSTRUCTURE
     1 ANG         1 TEMP              0 ****  ****    0 ROOT
