@<TRIPOS>MOLECULE
ANG
   19    20     1     0     0
SMALL
bcc


@<TRIPOS>ATOM
      1 N9         -0.0380    0.0590    0.0270 na        1 ANG     -0.314900
      2 C4          1.3670    0.0210   -0.0110 cc        1 ANG     -0.035200
      3 N3          2.2620    0.0600    1.0340 nc        1 ANG     -0.499100
      4 C2          3.5430    0.0170    0.6520 cd        1 ANG      0.440800
      5 N2          4.5480    0.0500    1.7590 nz        1 ANG     -0.783600
      6 N1          4.0350   -0.0580   -0.6590 ns        1 ANG     -0.496400
      7 C6          3.1470   -0.1000   -1.7750 c         1 ANG      0.636000
      8 O6          3.6480   -0.1630   -2.8970 o         1 ANG     -0.513500
      9 C5          1.7300   -0.0580   -1.4080 cd        1 ANG      0.353800
     10 N7          0.6240   -0.0790   -2.2150 nd        1 ANG     -0.633000
     11 C8         -0.4620   -0.0220   -1.3260 cc        1 ANG      0.729400
     12 N8         -1.7840   -0.1060   -1.6940 nv        1 ANG     -0.927500
     13 H9         -0.5990    0.0510    0.8410 hn        1 ANG      0.335700
     14 H21         5.1150   -0.8050    1.7320 hn        1 ANG      0.478467
     15 H22         4.0620    0.1060    2.6670 hn        1 ANG      0.478467
     16 H1          5.0130   -0.0900   -0.8500 hn        1 ANG      0.348500
     17 H81        -2.4820    0.2080   -1.0620 hn        1 ANG      0.461300
     18 H82        -1.9840   -0.0600   -2.6690 hn        1 ANG      0.461300
     19 H23         5.1510    0.8740    1.6490 hn        1 ANG      0.478467
@<TRIPOS>BOND
     1    1    2 1   
     2    1   11 1   
     3    1   13 1   
     4    2    3 1   
     5    2    9 2   
     6    3    4 2   
     7    4    5 1   
     8    4    6 1   
     9    5   14 1   
    10    5   15 1   
    11    5   19 1   
    12    6    7 1   
    13    6   16 1   
    14    7    8 2   
    15    7    9 1   
    16    9   10 1   
    17   10   11 2   
    18   11   12 1   
    19   12   17 1   
    20   12   18 1   
@<TRIPOS>SUBSTRUCTURE
     1 ANG         1 TEMP              0 ****  ****    0 ROOT
