@<TRIPOS>MOLECULE
ANH
   54    53     1     0     0
SMALL
bcc


@<TRIPOS>ATOM
      1 N12        -1.1150   -0.9180   -0.6590 n4        1 ANH     -0.425600
      2 C13        -0.2230   -0.5600    0.4080 c2        1 ANH     -0.508200
      3 C30        -0.6500    0.4200    1.4330 c3        1 ANH      0.082000
      4 C14         1.0200   -1.2330    0.5650 c2        1 ANH      0.472100
      5 O17         1.9050   -1.0490    1.4180 o         1 ANH     -0.427000
      6 O15         1.2670   -2.2470   -0.3570 os        1 ANH     -0.496900
      7 C16         2.5010   -2.9410   -0.2130 c3        1 ANH      0.144700
      8 C21        -0.1820    1.8300    1.2130 ce        1 ANH     -0.136200
      9 C22        -1.1580    2.8690    1.4960 ce        1 ANH     -0.096000
     10 C23        -0.9250    4.1120    1.9550 cf        1 ANH     -0.043700
     11 C24         0.3200    4.6610    2.2820 ch        1 ANH     -0.098300
     12 C25         1.3690    5.1530    2.5890 cg        1 ANH     -0.162200
     13 C26         1.0740    2.0910    0.8230 c2        1 ANH     -0.173000
     14 C27         2.6250    5.7540    2.9480 ce        1 ANH      0.677100
     15 N28         3.4370    4.9390    3.7720 nh        1 ANH     -0.950800
     16 N29         2.8640    6.9720    2.5560 n2        1 ANH     -0.816100
     17 C11        -0.8900   -0.1100   -1.8980 c         1 ANH      0.498100
     18 C10        -1.4120    1.3320   -1.9030 c3        1 ANH      0.165800
     19 N9         -2.6840    1.4400   -2.5360 n3        1 ANH     -0.903100
     20 O20        -0.3060   -0.6290   -2.8440 o         1 ANH     -0.461100
     21 C2         -5.1420    2.2510    2.5950 c2        1 ANH     -0.055200
     22 C3         -4.5500    4.6680   -2.6610 c1        1 ANH     -0.096500
     23 C4         -4.5020    3.7270   -1.9210 cg        1 ANH     -0.187300
     24 C5         -4.4550    2.6370   -1.0290 ce        1 ANH     -0.277800
     25 C6         -4.7400    2.8770    0.2780 cf        1 ANH      0.110000
     26 C7         -4.7390    1.9190    1.3530 cf        1 ANH     -0.241000
     27 S8         -4.1050    1.1740   -1.7890 sy        1 ANH      1.516800
     28 O18        -5.0810    0.8760   -2.7520 o         1 ANH     -0.662300
     29 O19        -3.8650    0.1610   -0.8190 o         1 ANH     -0.662300
     30 H12        -2.0870   -0.7790   -0.3460 hn        1 ANH      0.457300
     31 H13        -0.9580   -1.9080   -0.8950 hn        1 ANH      0.457300
     32 H301        1.7920    1.2760    0.6370 ha        1 ANH      0.129500
     33 H302       -0.2130    0.0800    2.4170 hc        1 ANH      0.047700
     34 H161        2.5430   -3.4460    0.7820 h1        1 ANH      0.040367
     35 H162        2.4910   -3.6840   -1.0480 h1        1 ANH      0.040367
     36 H163        3.3560   -2.2290   -0.3120 h1        1 ANH      0.040367
     37 H22        -1.7710    0.4090    1.5470 hc        1 ANH      0.047700
     38 H23        -2.2140    2.5740    1.3260 ha        1 ANH      0.115000
     39 H24        -1.7760    4.8020    2.1200 ha        1 ANH      0.136000
     40 H26         1.4500    3.1120    0.6760 ha        1 ANH      0.129500
     41 H281        3.1980    3.9750    3.7940 hn        1 ANH      0.403300
     42 H282        4.4150    5.1160    3.7370 hn        1 ANH      0.403300
     43 H29         3.7480    7.3530    2.8210 hn        1 ANH      0.386400
     44 H101       -0.6400    1.9450   -2.4550 h1        1 ANH      0.103700
     45 H102       -1.4600    1.7160   -0.8390 h1        1 ANH      0.103700
     46 HN9        -2.6430    1.6810   -3.4990 hn        1 ANH      0.463800
     47 H11        -4.4990    1.6780    4.5440 hc        1 ANH      0.062367
     48 H12A       -4.8150    0.2840    3.4240 hc        1 ANH      0.062367
     49 H13A       -6.2030    1.2200    4.1290 hc        1 ANH      0.062367
     50 H4         -4.5920    5.4880   -3.3330 ha        1 ANH      0.176500
     51 H6         -5.0090    3.9150    0.5690 ha        1 ANH      0.136000
     52 H7         -4.4010    0.8870    1.1350 ha        1 ANH      0.177000
     53 H3         -5.4850    3.2750    2.8290 ha        1 ANH      0.126000
     54 C1         -5.1620    1.3040    3.7230 c3        1 ANH     -0.090900
@<TRIPOS>BOND
     1    1    2 1   
     2    1   17 1   
     3    1   30 1   
     4    1   31 1   
     5    2    3 1   
     6    2    4 2   
     7    3    8 1   
     8    3   33 1   
     9    3   37 1   
    10    4    5 1   
    11    4    6 1   
    12    6    7 1   
    13    7   34 1   
    14    7   35 1   
    15    7   36 1   
    16    8    9 1   
    17    8   13 2   
    18    9   10 2   
    19    9   38 1   
    20   10   11 1   
    21   10   39 1   
    22   11   12 3   
    23   12   14 1   
    24   13   32 1   
    25   13   40 1   
    26   14   15 1   
    27   14   16 2   
    28   15   41 1   
    29   15   42 1   
    30   16   43 1   
    31   17   18 1   
    32   17   20 2   
    33   18   19 1   
    34   18   44 1   
    35   18   45 1   
    36   19   27 1   
    37   19   46 1   
    38   21   26 2   
    39   21   53 1   
    40   21   54 1   
    41   22   23 3   
    42   22   50 1   
    43   23   24 1   
    44   24   25 2   
    45   24   27 1   
    46   25   26 1   
    47   25   51 1   
    48   26   52 1   
    49   27   28 2   
    50   27   29 2   
    51   47   54 1   
    52   48   54 1   
    53   49   54 1   
@<TRIPOS>SUBSTRUCTURE
     1 ANH         1 TEMP              0 ****  ****    0 ROOT
