@<TRIPOS>MOLECULE
ANH
   54    55     1     0     0
SMALL
bcc


@<TRIPOS>ATOM
      1 N12         0.8770    0.4630    1.0330 n         1 ANH     -0.557900
      2 C13         1.3410    0.4610    2.3930 c3        1 ANH      0.071700
      3 C30         1.0680   -0.8640    3.1360 c3        1 ANH     -0.050100
      4 C14         2.8450    0.7200    2.5040 c         1 ANH      0.605100
      5 O17         3.4040    1.4970    3.2760 o         1 ANH     -0.530000
      6 O15         3.6100   -0.0370    1.6640 os        1 ANH     -0.434900
      7 C16         5.0240    0.1600    1.7270 c3        1 ANH      0.123700
      8 C21        -0.3870   -1.1120    3.3080 ca        1 ANH     -0.091300
      9 C22        -1.0360   -2.0860    2.5420 ca        1 ANH     -0.111000
     10 C23        -2.3990   -2.3250    2.7200 ca        1 ANH     -0.140000
     11 C24        -3.1260   -1.5910    3.6550 ca        1 ANH     -0.106000
     12 C25        -2.4800   -0.6140    4.4190 ca        1 ANH     -0.138900
     13 C26        -1.1140   -0.3790    4.2550 ca        1 ANH     -0.082000
     14 C27        -3.2510    0.1820    5.4280 ce        1 ANH      0.647800
     15 N28        -4.4120    0.8000    4.9070 nh        1 ANH     -0.951800
     16 N29        -2.8420    0.1790    6.6600 n2        1 ANH     -0.821100
     17 C11         0.0770    1.4610    0.5280 c         1 ANH      0.639100
     18 C10        -0.3710    1.3490   -0.9430 c3        1 ANH      0.164800
     19 N9          0.6880    1.2070   -1.8870 n3        1 ANH     -0.912100
     20 O20        -0.3160    2.4240    1.2150 o         1 ANH     -0.604100
     21 C2         -1.9350   -1.1260   -5.6460 ca        1 ANH     -0.002300
     22 C3         -0.8020   -0.3690   -5.9730 ca        1 ANH     -0.160000
     23 C4          0.1500   -0.0810   -5.0020 ca        1 ANH     -0.010000
     24 C5         -0.0010   -0.5330   -3.6840 ca        1 ANH     -0.402500
     25 C6         -1.1340   -1.2950   -3.3690 ca        1 ANH     -0.010000
     26 C7         -2.0910   -1.5890   -4.3320 ca        1 ANH     -0.160000
     27 S8          1.1710   -0.2040   -2.5280 sy        1 ANH      1.519200
     28 O18         2.4120    0.0000   -3.1650 o         1 ANH     -0.656800
     29 O19         1.1050   -1.1990   -1.5230 o         1 ANH     -0.656800
     30 H12         1.1390   -0.3150    0.4660 hn        1 ANH      0.350500
     31 H13         0.8310    1.3090    2.9520 h1        1 ANH      0.120700
     32 H301        1.5520   -1.7110    2.5820 hc        1 ANH      0.072200
     33 H302        1.5600   -0.7920    4.1450 hc        1 ANH      0.072200
     34 H161        5.4210   -0.5370    0.9490 h1        1 ANH      0.052700
     35 H162        5.2710    1.2230    1.4910 h1        1 ANH      0.052700
     36 H163        5.3980   -0.1030    2.7450 h1        1 ANH      0.052700
     37 H22        -0.4690   -2.6680    1.8000 ha        1 ANH      0.139000
     38 H23        -2.9010   -3.1000    2.1230 ha        1 ANH      0.133000
     39 H24        -4.2000   -1.7870    3.7990 ha        1 ANH      0.144000
     40 H26        -0.6050    0.3770    4.8740 ha        1 ANH      0.151000
     41 H281       -4.7620    1.5790    5.4170 hn        1 ANH      0.396300
     42 H282       -4.4100    0.9330    3.9220 hn        1 ANH      0.396300
     43 H29        -3.3750    0.7210    7.3080 hn        1 ANH      0.383400
     44 H101       -1.0660    0.4620   -1.0220 h1        1 ANH      0.077200
     45 H102       -0.9650    2.2840   -1.1610 h1        1 ANH      0.077200
     46 HN9         1.1550    2.0580   -2.1000 hn        1 ANH      0.458800
     47 H11        -2.6740   -2.4130   -7.1820 hc        1 ANH      0.055367
     48 H12A       -3.9600   -1.5650   -6.2260 hc        1 ANH      0.055367
     49 H13A       -2.9910   -0.6500   -7.4590 hc        1 ANH      0.055367
     50 H4          1.0500    0.5000   -5.2730 ha        1 ANH      0.152000
     51 H6         -1.2540   -1.6810   -2.3410 ha        1 ANH      0.152000
     52 H7         -2.9740   -2.1900   -4.0660 ha        1 ANH      0.143500
     53 H3         -0.6660   -0.0060   -7.0020 ha        1 ANH      0.143500
     54 C1         -2.9450   -1.4490   -6.6790 c3        1 ANH     -0.070800
@<TRIPOS>BOND
     1    1    2 1   
     2    1   17 1   
     3    1   30 1   
     4    2    3 1   
     5    2    4 1   
     6    2   31 1   
     7    3    8 1   
     8    3   32 1   
     9    3   33 1   
    10    4    5 2   
    11    4    6 1   
    12    6    7 1   
    13    7   34 1   
    14    7   35 1   
    15    7   36 1   
    16    8    9 ar  
    17    8   13 ar  
    18    9   10 ar  
    19    9   37 1   
    20   10   11 ar  
    21   10   38 1   
    22   11   12 ar  
    23   11   39 1   
    24   12   13 ar  
    25   12   14 1   
    26   13   40 1   
    27   14   15 1   
    28   14   16 2   
    29   15   41 1   
    30   15   42 1   
    31   16   43 1   
    32   17   18 1   
    33   17   20 2   
    34   18   19 1   
    35   18   44 1   
    36   18   45 1   
    37   19   27 1   
    38   19   46 1   
    39   21   22 ar  
    40   21   26 ar  
    41   21   54 1   
    42   22   23 ar  
    43   22   53 1   
    44   23   24 ar  
    45   23   50 1   
    46   24   25 ar  
    47   24   27 1   
    48   25   26 ar  
    49   25   51 1   
    50   26   52 1   
    51   27   28 2   
    52   27   29 2   
    53   47   54 1   
    54   48   54 1   
    55   49   54 1   
@<TRIPOS>SUBSTRUCTURE
     1 ANH         1 TEMP              0 ****  ****    0 ROOT
