@<TRIPOS>MOLECULE
ANH
   54    50     1     0     0
SMALL
bcc


@<TRIPOS>ATOM
      1 N12        -2.1170   -0.4780    1.5040 n         1 ANH     -0.369000
      2 C13        -0.6670   -0.5670    1.5600 c3        1 ANH      0.043000
      3 C30        -0.2060   -0.4420    2.9940 c3        1 ANH     -0.131000
      4 C14        -0.2240   -1.8900    1.0060 c2        1 ANH      0.275000
      5 O17        -0.8850   -2.8800    1.2120 o         1 ANH     -0.347000
      6 O15         1.0710   -2.0070    0.3800 os        1 ANH     -0.273000
      7 C16         1.3180   -3.3010   -0.2310 c3        1 ANH     -0.065000
      8 C21         1.2550    0.1270    3.0250 c2        1 ANH     -0.086000
      9 C22         2.3340   -0.7100    2.7090 c2        1 ANH     -0.111000
     10 C23         3.6430   -0.2630    2.8960 c1        1 ANH     -0.133000
     11 C24         3.8800    1.0200    3.3980 c1        1 ANH     -0.113000
     12 C25         2.8070    1.8560    3.7130 c1        1 ANH     -0.102000
     13 C26         1.4930    1.4100    3.5260 c1        1 ANH     -0.088000
     14 C27         3.0640    3.2170    4.3370 c2        1 ANH      0.115000
     15 N28         2.7940    4.4020    3.5960 n3        1 ANH     -0.330000
     16 N29         3.5460    3.3020    5.5830 n1        1 ANH     -0.310000
     17 C11        -2.8140   -0.7850    0.2740 c2        1 ANH      0.286000
     18 C10        -3.9760    0.1120   -0.1990 c3        1 ANH     -0.021000
     19 N9         -4.2880   -0.1900   -1.5870 n3        1 ANH     -0.877000
     20 O20        -2.5260   -1.7600   -0.3450 o         1 ANH     -0.364000
     21 C1          1.3450   -1.0440   -5.3080 c3        1 ANH     -0.196000
     22 C2          0.0460   -0.4810   -4.7390 c2        1 ANH      0.008000
     23 C3         -1.1780   -0.9120   -5.2450 c2        1 ANH     -0.162000
     24 C4         -2.3540   -0.4990   -4.6530 c1        1 ANH     -0.008000
     25 C5         -2.3170    0.3390   -3.5610 c1        1 ANH     -0.856000
     26 C6         -1.1000    0.7680   -3.0570 c1        1 ANH      0.002000
     27 C7          0.0820    0.3530   -3.6520 c1        1 ANH     -0.160000
     28 S8         -3.8520    0.8720   -2.7840 s6        1 ANH      2.875000
     29 O18        -4.8960    1.0250   -3.7470 o         1 ANH     -0.948500
     30 O19        -3.7430    2.2020   -2.2820 o         1 ANH     -0.948500
     31 H12        -2.6020   -0.2300    2.2680 hn        1 ANH      0.239000
     32 H13        -0.2780    0.1500    1.0320 h1        1 ANH      0.164000
     33 H301       -0.2220   -1.3200    3.4180 hc        1 ANH      0.108500
     34 H302       -0.8100    0.1700    3.4820 hc        1 ANH      0.108500
     35 H161        0.6670   -3.4540   -0.9500 h1        1 ANH      0.092667
     36 H162        2.2350   -3.3190   -0.6070 h1        1 ANH      0.092667
     37 H163        1.2280   -4.0090    0.4500 h1        1 ANH      0.092667
     38 H22         2.1700   -1.6050    2.3600 ha        1 ANH      0.136000
     39 H23         4.4030   -0.8550    2.6740 ha        1 ANH      0.136000
     40 H24         4.8000    1.3330    3.5290 ha        1 ANH      0.140000
     41 H26         0.7610    1.9810    3.7410 ha        1 ANH      0.147000
     42 H281        2.7320    4.3660    2.6790 hn        1 ANH      0.208000
     43 H282        2.6270    5.1910    4.0360 hn        1 ANH      0.208000
     44 H29         3.7170    2.5550    6.0500 DU        1 ANH      0.143000
     45 H101       -4.7630   -0.0560    0.3550 h1        1 ANH      0.119500
     46 H102       -3.7180    1.0490   -0.1200 h1        1 ANH      0.119500
     47 HN9        -4.7880   -0.9420   -1.7960 hn        1 ANH      0.257000
     48 H11         1.2930   -1.0610   -6.2980 hc        1 ANH      0.095000
     49 H12A        1.4810   -1.9560   -4.9720 hc        1 ANH      0.095000
     50 H13A        2.0890   -0.4830   -5.0320 hc        1 ANH      0.095000
     51 H3         -1.2050   -1.5120   -6.0270 ha        1 ANH      0.144000
     52 H4         -3.2190   -0.8040   -5.0110 ha        1 ANH      0.161000
     53 H6         -1.0750    1.3620   -2.2830 ha        1 ANH      0.150000
     54 H7          0.9410    0.6550   -3.2960 ha        1 ANH      0.144000
@<TRIPOS>BOND
     1    1    2 1   
     2    1   17 1   
     3    1   31 1   
     4    2    3 1   
     5    2    4 1   
     6    2   32 1   
     7    3    8 1   
     8    3   33 1   
     9    3   34 1   
    10    4    5 1   
    11    4    6 1   
    12    6    7 1   
    13    7   35 1   
    14    7   36 1   
    15    7   37 1   
    16    8    9 1   
    17    8   13 1   
    18    9   10 1   
    19    9   38 1   
    20   10   39 1   
    21   11   12 1   
    22   11   40 1   
    23   12   14 1   
    24   13   41 1   
    25   14   15 1   
    26   14   16 1   
    27   15   42 1   
    28   15   43 1   
    29   17   18 1   
    30   17   20 1   
    31   18   19 1   
    32   18   45 1   
    33   18   46 1   
    34   19   28 1   
    35   19   47 1   
    36   21   22 1   
    37   21   48 1   
    38   21   49 1   
    39   21   50 1   
    40   22   23 1   
    41   22   27 1   
    42   23   24 1   
    43   23   51 1   
    44   24   52 1   
    45   25   26 1   
    46   25   28 1   
    47   26   53 1   
    48   27   54 1   
    49   28   29 1   
    50   28   30 1   
@<TRIPOS>SUBSTRUCTURE
     1 ANH         1 TEMP              0 ****  ****    0 ROOT
