@<TRIPOS>MOLECULE
ANI
   17    17     1     0     0
SMALL
bcc


@<TRIPOS>ATOM
      1 N          -0.0490    0.0790    0.0210 nv        1 ANI     -0.836200
      2 C1          1.3370    0.0100    0.0090 ca        1 ANI      0.190600
      3 C2          2.0690   -0.0980    1.2190 ca        1 ANI     -0.209000
      4 C3          3.4560   -0.0820    1.2050 ca        1 ANI     -0.037000
      5 C4          4.1490    0.0320   -0.0020 ca        1 ANI     -0.226300
      6 C5          3.4450    0.1350   -1.2040 ca        1 ANI     -0.037000
      7 C6          2.0580    0.1200   -1.2080 ca        1 ANI     -0.209000
      8 C7          5.6670    0.0260   -0.0100 c3        1 ANI      0.694200
      9 F1          6.2290   -1.2250   -0.1220 f         1 ANI     -0.241300
     10 F2          6.2400    0.7360   -1.0380 f         1 ANI     -0.241300
     11 F3          6.2500    0.5470    1.1210 f         1 ANI     -0.241300
     12 HN1        -0.4990   -0.2720    0.8340 hn        1 ANI      0.407800
     13 HN2        -0.5060   -0.1220   -0.8370 hn        1 ANI      0.407800
     14 H2          1.5390   -0.1850    2.1790 ha        1 ANI      0.140000
     15 H3          4.0170   -0.1570    2.1510 ha        1 ANI      0.148000
     16 H5          3.9970    0.2300   -2.1540 ha        1 ANI      0.148000
     17 H6          1.5190    0.2050   -2.1640 ha        1 ANI      0.140000
@<TRIPOS>BOND
     1    1    2 1   
     2    1   12 1   
     3    1   13 1   
     4    2    3 ar  
     5    2    7 ar  
     6    3    4 ar  
     7    3   14 1   
     8    4    5 ar  
     9    4   15 1   
    10    5    6 ar  
    11    5    8 1   
    12    6    7 ar  
    13    6   16 1   
    14    7   17 1   
    15    8    9 1   
    16    8   10 1   
    17    8   11 1   
@<TRIPOS>SUBSTRUCTURE
     1 ANI         1 TEMP              0 ****  ****    0 ROOT
