@<TRIPOS>MOLECULE
ANI
   17    17     1     0     0
SMALL
bcc


@<TRIPOS>ATOM
      1 N           3.9460   -0.0000   -0.1470 nh        1 ANI     -0.836200
      2 C1          2.5620    0.0000   -0.0420 ca        1 ANI      0.190600
      3 C2          1.8370    1.2180   -0.0230 ca        1 ANI     -0.209000
      4 C3          0.4500    1.2100   -0.0040 ca        1 ANI     -0.037000
      5 C4         -0.2490    0.0000    0.0060 ca        1 ANI     -0.226300
      6 C5          0.4500   -1.2100   -0.0040 ca        1 ANI     -0.037000
      7 C6          1.8370   -1.2180   -0.0230 ca        1 ANI     -0.209000
      8 C7         -1.7670   -0.0000    0.0120 c3        1 ANI      0.694200
      9 F1         -2.3420   -0.0010   -1.2370 f         1 ANI     -0.241633
     10 F2         -2.3390   -1.0830    0.6370 f         1 ANI     -0.241633
     11 F3         -2.3390    1.0840    0.6360 f         1 ANI     -0.241633
     12 HN1         4.4070    0.8390    0.1170 hn        1 ANI      0.407800
     13 HN2         4.4070   -0.8390    0.1170 hn        1 ANI      0.407800
     14 H2          2.3700    2.1800   -0.0330 ha        1 ANI      0.140000
     15 H3         -0.1070    2.1610    0.0090 ha        1 ANI      0.148000
     16 H5         -0.1070   -2.1610    0.0100 ha        1 ANI      0.148000
     17 H6          2.3700   -2.1800   -0.0330 ha        1 ANI      0.140000
@<TRIPOS>BOND
     1    1    2 1   
     2    1   12 1   
     3    1   13 1   
     4    2    3 ar  
     5    2    7 ar  
     6    3    4 ar  
     7    3   14 1   
     8    4    5 ar  
     9    4   15 1   
    10    5    6 ar  
    11    5    8 1   
    12    6    7 ar  
    13    6   16 1   
    14    7   17 1   
    15    8    9 1   
    16    8   10 1   
    17    8   11 1   
@<TRIPOS>SUBSTRUCTURE
     1 ANI         1 TEMP              0 ****  ****    0 ROOT
