@<TRIPOS>MOLECULE
ANI
   18    18     1     0     0
SMALL
bcc


@<TRIPOS>ATOM
      1 N          -0.0780    0.0170    0.0260 n4        1 ANI     -0.706000
      2 C1          1.3870    0.0220    0.0180 ca        1 ANI     -0.048400
      3 C2          2.0830    0.0460    1.2380 ca        1 ANI     -0.104000
      4 C3          3.4780    0.0380    1.2200 ca        1 ANI     -0.054000
      5 C4          4.1610    0.0090    0.0020 ca        1 ANI     -0.113300
      6 C5          3.4640   -0.0110   -1.2080 ca        1 ANI     -0.054000
      7 C6          2.0700   -0.0040   -1.2110 ca        1 ANI     -0.104000
      8 C7          5.6960   -0.0190   -0.0060 c3        1 ANI      0.689200
      9 F1          6.2100   -1.2900    0.0160 f         1 ANI     -0.211300
     10 F2          6.2510    0.5730   -1.1110 f         1 ANI     -0.211300
     11 F3          6.2630    0.6170    1.0670 f         1 ANI     -0.211300
     12 HN1        -0.4170   -0.9530    0.0470 hn        1 ANI      0.468467
     13 HN2        -0.4350    0.4790   -0.8180 hn        1 ANI      0.468467
     14 H2          1.5580    0.0700    2.2080 ha        1 ANI      0.168000
     15 H3          4.0410    0.0620    2.1710 ha        1 ANI      0.194000
     16 H5          4.0160   -0.0250   -2.1660 ha        1 ANI      0.194000
     17 H6          1.5330   -0.0180   -2.1740 ha        1 ANI      0.168000
     18 HN3        -0.4260    0.5130    0.8560 hn        1 ANI      0.468467
@<TRIPOS>BOND
     1    1    2 1   
     2    1   12 1   
     3    1   13 1   
     4    1   18 1   
     5    2    3 ar  
     6    2    7 ar  
     7    3    4 ar  
     8    3   14 1   
     9    4    5 ar  
    10    4   15 1   
    11    5    6 ar  
    12    5    8 1   
    13    6    7 ar  
    14    6   16 1   
    15    7   17 1   
    16    8    9 1   
    17    8   10 1   
    18    8   11 1   
@<TRIPOS>SUBSTRUCTURE
     1 ANI         1 TEMP              0 ****  ****    0 ROOT
