@<TRIPOS>MOLECULE
ANI
   17    17     1     0     0
SMALL
bcc


@<TRIPOS>ATOM
      1 N          -0.0470    0.1270   -0.0080 nh        1 ANI     -0.836200
      2 C1          1.3380    0.0360   -0.0070 ca        1 ANI      0.189600
      3 C2          2.0560   -0.0810    1.2100 ca        1 ANI     -0.209000
      4 C3          3.4430   -0.0870    1.2100 ca        1 ANI     -0.037000
      5 C4          4.1490    0.0140    0.0080 ca        1 ANI     -0.226300
      6 C5          3.4580    0.1250   -1.2000 ca        1 ANI     -0.037000
      7 C6          2.0710    0.1330   -1.2170 ca        1 ANI     -0.209000
      8 C7          5.6670   -0.0160    0.0160 c3        1 ANI      0.694200
      9 F1          6.2100   -1.2760   -0.0860 f         1 ANI     -0.241300
     10 F2          6.2610    0.6810   -1.0090 f         1 ANI     -0.241300
     11 F3          6.2470    0.5000    1.1500 f         1 ANI     -0.241300
     12 HN1        -0.5000   -0.0680   -0.8700 hn        1 ANI      0.407800
     13 HN2        -0.5100   -0.2150    0.8010 hn        1 ANI      0.407800
     14 H2          1.5160   -0.1580    2.1660 ha        1 ANI      0.140000
     15 H3          3.9940   -0.1690    2.1610 ha        1 ANI      0.148000
     16 H5          4.0210    0.2100   -2.1450 ha        1 ANI      0.148000
     17 H6          1.5430    0.2240   -2.1780 ha        1 ANI      0.140000
@<TRIPOS>BOND
     1    1    2 1   
     2    1   12 1   
     3    1   13 1   
     4    2    3 ar  
     5    2    7 ar  
     6    3    4 ar  
     7    3   14 1   
     8    4    5 ar  
     9    4   15 1   
    10    5    6 ar  
    11    5    8 1   
    12    6    7 ar  
    13    6   16 1   
    14    7   17 1   
    15    8    9 1   
    16    8   10 1   
    17    8   11 1   
@<TRIPOS>SUBSTRUCTURE
     1 ANI         1 TEMP              0 ****  ****    0 ROOT
