@<TRIPOS>MOLECULE
ANJ
   79    80     1     0     0
SMALL
bcc


@<TRIPOS>ATOM
      1 O1         -8.5710    0.0930    3.1480 o         1 ANJ     -0.591100
      2 O2         -6.2760   -1.1440   -1.1040 oh        1 ANJ     -0.528100
      3 O3         -3.7220   -1.9970   -1.8760 o         1 ANJ     -0.620100
      4 O4          0.5830    0.8530   -1.8890 os        1 ANJ     -0.442900
      5 O5         -0.5010    1.7670   -0.1370 o         1 ANJ     -0.632500
      6 O6          0.3970   -2.2900   -1.0090 os        1 ANJ     -0.416900
      7 O7          0.0940   -2.4330   -3.1280 o         1 ANJ     -0.567500
      8 O8          2.8520   -1.1700    1.0180 os        1 ANJ     -0.441900
      9 O9          4.5050   -1.2880   -0.4960 o         1 ANJ     -0.523000
     10 N1         -7.8480   -0.6220    1.0530 n         1 ANJ     -0.472100
     11 N2         -2.1430   -0.5550   -1.0570 n         1 ANJ     -0.565900
     12 C1         -8.8020   -0.2690    1.9850 c         1 ANJ      0.667900
     13 C2         -6.4530   -0.6250    1.2140 ca        1 ANJ      0.033600
     14 C3         -5.8270   -0.3640    2.4440 ca        1 ANJ     -0.111000
     15 C4         -4.4370   -0.3930    2.5560 ca        1 ANJ     -0.141000
     16 C5         -3.6380   -0.6630    1.4550 ca        1 ANJ     -0.096000
     17 C6         -4.2220   -0.9120    0.2050 ca        1 ANJ     -0.200600
     18 C7         -5.6200   -0.9160    0.0830 ca        1 ANJ      0.142100
     19 C8         -3.3690   -1.2000   -0.9800 c         1 ANJ      0.685700
     20 C9         -1.2980   -0.6970   -2.2060 c3        1 ANJ     -0.002300
     21 C10        -0.5860    0.6010   -2.6720 c3        1 ANJ      0.151100
     22 C11        -1.5090    1.7860   -2.8110 c3        1 ANJ     -0.129100
     23 C12         0.5050    1.2040   -0.5690 c         1 ANJ      0.734600
     24 C13         1.7320    0.7860    0.2030 c3        1 ANJ     -0.125700
     25 C14         1.9410   -0.7280    0.0040 c3        1 ANJ      0.120100
     26 C15         0.6210   -1.5230    0.1780 c3        1 ANJ      0.151100
     27 C16         0.6740   -2.5480    1.3000 c3        1 ANJ     -0.087100
     28 C17        -0.2380   -1.8030   -2.1210 c         1 ANJ      0.712600
     29 C18         2.9510    1.5720   -0.2540 c3        1 ANJ     -0.077400
     30 C19         2.9010    3.0070    0.2260 c3        1 ANJ     -0.083400
     31 C20         4.0780    3.7970   -0.3050 c3        1 ANJ     -0.078400
     32 C21         4.0420    5.2290    0.1860 c3        1 ANJ     -0.079400
     33 C22         5.2160    6.0220   -0.3460 c3        1 ANJ     -0.080400
     34 C23         5.1850    7.4480    0.1410 c3        1 ANJ     -0.093100
     35 C24         4.1350   -1.5050    0.6560 c         1 ANJ      0.637100
     36 C25         4.9000   -2.1040    1.8100 c3        1 ANJ     -0.104700
     37 C26         4.7790   -3.6130    1.7400 c3        1 ANJ     -0.094100
     38 C27         6.3490   -1.6390    1.7510 c3        1 ANJ     -0.077400
     39 C28         7.0790   -1.9050    3.0410 c3        1 ANJ     -0.094100
     40 HO2        -5.7070   -1.6670   -1.6940 ho        1 ANJ      0.466000
     41 HN1        -8.1650   -0.8770    0.1410 hn        1 ANJ      0.336500
     42 HN2        -1.9740    0.2170   -0.4480 hn        1 ANJ      0.338500
     43 H1         -9.8390   -0.3480    1.5760 h5        1 ANJ      0.036200
     44 H3         -6.4310   -0.1370    3.3400 ha        1 ANJ      0.181000
     45 H4         -3.9750   -0.1970    3.5360 ha        1 ANJ      0.144000
     46 H5         -2.5440   -0.6950    1.5760 ha        1 ANJ      0.138000
     47 H9         -1.9550   -1.0250   -3.0810 h1        1 ANJ      0.125700
     48 H10        -0.1180    0.3620   -3.6790 h1        1 ANJ      0.106700
     49 H111       -1.9700    2.0820   -1.8380 hc        1 ANJ      0.063033
     50 H112       -0.9320    2.6610   -3.1980 hc        1 ANJ      0.063033
     51 H113       -2.3210    1.5380   -3.5370 hc        1 ANJ      0.063033
     52 H13         1.5350    0.9910    1.2930 hc        1 ANJ      0.096700
     53 H14         2.3610   -0.9210   -1.0250 h1        1 ANJ      0.118700
     54 H15        -0.2220   -0.8130    0.3800 h1        1 ANJ      0.050700
     55 H161        0.9060   -2.0280    2.2590 hc        1 ANJ      0.055700
     56 H162       -0.3090   -3.0700    1.3790 hc        1 ANJ      0.055700
     57 H163        1.4670   -3.3060    1.0950 hc        1 ANJ      0.055700
     58 H181        3.0170    1.5400   -1.3740 hc        1 ANJ      0.066700
     59 H182        3.8700    1.0660    0.1470 hc        1 ANJ      0.066700
     60 H191        2.9060    3.0320    1.3470 hc        1 ANJ      0.044200
     61 H192        1.9420    3.4830   -0.1120 hc        1 ANJ      0.044200
     62 H201        4.0660    3.7830   -1.4260 hc        1 ANJ      0.043200
     63 H202        5.0350    3.3110    0.0220 hc        1 ANJ      0.043200
     64 H211        4.0560    5.2430    1.3080 hc        1 ANJ      0.040700
     65 H212        3.0830    5.7130   -0.1380 hc        1 ANJ      0.040700
     66 H221        5.2000    6.0060   -1.4680 hc        1 ANJ      0.039200
     67 H222        6.1740    5.5340   -0.0230 hc        1 ANJ      0.039200
     68 H231        6.0580    8.0150   -0.2630 hc        1 ANJ      0.033367
     69 H232        4.2490    7.9580   -0.1920 hc        1 ANJ      0.033367
     70 H233        5.2260    7.4850    1.2560 hc        1 ANJ      0.033367
     71 H25         4.4320   -1.7410    2.7700 hc        1 ANJ      0.080700
     72 H261        5.3000   -4.0750    2.6130 hc        1 ANJ      0.050700
     73 H262        3.7030   -3.9150    1.7620 hc        1 ANJ      0.050700
     74 H263        5.2400   -4.0030    0.8000 hc        1 ANJ      0.050700
     75 H271        6.8660   -2.1550    0.8990 hc        1 ANJ      0.056200
     76 H272        6.3700   -0.5380    1.5300 hc        1 ANJ      0.056200
     77 H281        8.1270   -1.5230    2.9700 hc        1 ANJ      0.038033
     78 H282        6.5750   -1.3950    3.8970 hc        1 ANJ      0.038033
     79 H283        7.1200   -3.0000    3.2590 hc        1 ANJ      0.038033
@<TRIPOS>BOND
     1    1   12 2   
     2    2   18 1   
     3    2   40 1   
     4    3   19 2   
     5    4   21 1   
     6    4   23 1   
     7    5   23 2   
     8    6   26 1   
     9    6   28 1   
    10    7   28 2   
    11    8   25 1   
    12    8   35 1   
    13    9   35 2   
    14   10   12 1   
    15   10   13 1   
    16   10   41 1   
    17   11   19 1   
    18   11   20 1   
    19   11   42 1   
    20   12   43 1   
    21   13   14 ar  
    22   13   18 ar  
    23   14   15 ar  
    24   14   44 1   
    25   15   16 ar  
    26   15   45 1   
    27   16   17 ar  
    28   16   46 1   
    29   17   18 ar  
    30   17   19 1   
    31   20   21 1   
    32   20   28 1   
    33   20   47 1   
    34   21   22 1   
    35   21   48 1   
    36   22   49 1   
    37   22   50 1   
    38   22   51 1   
    39   23   24 1   
    40   24   25 1   
    41   24   29 1   
    42   24   52 1   
    43   25   26 1   
    44   25   53 1   
    45   26   27 1   
    46   26   54 1   
    47   27   55 1   
    48   27   56 1   
    49   27   57 1   
    50   29   30 1   
    51   29   58 1   
    52   29   59 1   
    53   30   31 1   
    54   30   60 1   
    55   30   61 1   
    56   31   32 1   
    57   31   62 1   
    58   31   63 1   
    59   32   33 1   
    60   32   64 1   
    61   32   65 1   
    62   33   34 1   
    63   33   66 1   
    64   33   67 1   
    65   34   68 1   
    66   34   69 1   
    67   34   70 1   
    68   35   36 1   
    69   36   37 1   
    70   36   38 1   
    71   36   71 1   
    72   37   72 1   
    73   37   73 1   
    74   37   74 1   
    75   38   39 1   
    76   38   75 1   
    77   38   76 1   
    78   39   77 1   
    79   39   78 1   
    80   39   79 1   
@<TRIPOS>SUBSTRUCTURE
     1 ANJ         1 TEMP              0 ****  ****    0 ROOT
