@<TRIPOS>MOLECULE
ANJ
   81    82     1     0     0
SMALL
bcc


@<TRIPOS>ATOM
      1 O1          3.5470    1.1110   -1.4200 o         1 ANJ     -0.343100
      2 O2          3.6620    0.8090    2.8930 oh        1 ANJ     -0.510100
      3 O3          2.6630    1.8410    5.2360 o         1 ANJ     -0.449100
      4 O4         -1.1120    1.2950    8.7200 os        1 ANJ     -0.422900
      5 O5         -2.0270    0.8770    6.7190 o         1 ANJ     -0.707500
      6 O6          0.2350   -0.7460    7.4270 os        1 ANJ     -0.499900
      7 O7          2.0240   -0.0810    8.6740 o         1 ANJ     -0.493500
      8 O8         -1.8050   -2.6500    9.7840 os        1 ANJ     -0.447900
      9 O9         -0.6190   -2.3140   11.6460 o         1 ANJ     -0.512000
     10 N1          3.1640   -0.2460    0.4420 n4        1 ANJ     -0.563200
     11 N2          0.4450    1.5030    5.8530 n4        1 ANJ     -0.657800
     12 C1          3.7110    1.0150   -0.2260 c         1 ANJ      0.559900
     13 C2          2.0640    0.0670    1.3520 ca        1 ANJ     -0.099400
     14 C3          0.7370   -0.1620    0.9570 ca        1 ANJ      0.005000
     15 C4         -0.3060    0.1260    1.8370 ca        1 ANJ     -0.133000
     16 C5         -0.0470    0.6310    3.1050 ca        1 ANJ     -0.009000
     17 C6          1.2710    0.8720    3.5370 ca        1 ANJ     -0.254600
     18 C7          2.3410    0.5970    2.6490 ca        1 ANJ      0.255100
     19 C8          1.5660    1.4230    4.8670 c         1 ANJ      0.573700
     20 C9          0.8650    1.5700    7.2950 c3        1 ANJ      0.020500
     21 C10        -0.1980    2.2570    8.2070 c3        1 ANJ      0.153100
     22 C11        -0.8690    3.4680    7.6070 c3        1 ANJ     -0.161100
     23 C12        -1.9030    0.5290    7.8990 c         1 ANJ      0.779600
     24 C13        -2.4370   -0.6940    8.5970 c3        1 ANJ     -0.104700
     25 C14        -1.2550   -1.4520    9.2380 c3        1 ANJ      0.120100
     26 C15        -0.1810   -1.8900    8.2160 c3        1 ANJ      0.158100
     27 C16         0.9640   -2.6130    8.8780 c3        1 ANJ     -0.133100
     28 C17         1.1250    0.1750    7.8910 c         1 ANJ      0.710600
     29 C18        -3.4680   -0.3060    9.6480 c3        1 ANJ     -0.081400
     30 C19        -4.7280    0.2480    9.0160 c3        1 ANJ     -0.083400
     31 C20        -5.7090    0.7030   10.0760 c3        1 ANJ     -0.079400
     32 C21        -6.9750    1.2480    9.4500 c3        1 ANJ     -0.078400
     33 C22        -7.9550    1.7080   10.5080 c3        1 ANJ     -0.080400
     34 C23        -9.2180    2.2510    9.8900 c3        1 ANJ     -0.095100
     35 C24        -1.4640   -3.0020   11.0820 c         1 ANJ      0.639100
     36 C25        -2.2280   -4.2120   11.5530 c3        1 ANJ     -0.099700
     37 C26        -1.2680   -5.1730   12.2230 c3        1 ANJ     -0.099100
     38 C27        -3.3330   -3.7480   12.4990 c3        1 ANJ     -0.075400
     39 C28        -4.3700   -4.8200   12.7140 c3        1 ANJ     -0.098100
     40 HO2         3.8440    1.0500    3.8210 ho        1 ANJ      0.502000
     41 HN1         3.9260   -0.6830    0.9850 hn        1 ANJ      0.476300
     42 HN2        -0.1830    0.6770    5.7500 hn        1 ANJ      0.494800
     43 H1          4.2050    1.6880    0.5100 hx        1 ANJ      0.154200
     44 H3          0.4990   -0.5700   -0.0450 ha        1 ANJ      0.193000
     45 H4         -1.3510   -0.0530    1.5160 ha        1 ANJ      0.205000
     46 H5         -0.9200    0.8440    3.7500 ha        1 ANJ      0.176000
     47 H9          1.8270    2.1700    7.3580 hx        1 ANJ      0.160700
     48 H10         0.3660    2.5580    9.1510 h1        1 ANJ      0.146700
     49 H111       -0.1120    4.1610    7.1680 hc        1 ANJ      0.081367
     50 H112       -1.6390    3.1940    6.8440 hc        1 ANJ      0.081367
     51 H113       -1.4070    4.0190    8.4240 hc        1 ANJ      0.081367
     52 H13        -2.9220   -1.3470    7.8170 hc        1 ANJ      0.108700
     53 H14        -0.7830   -0.8130   10.0390 h1        1 ANJ      0.111700
     54 H15        -0.6560   -2.5310    7.4150 h1        1 ANJ      0.097700
     55 H161        1.8180   -2.7290    8.1690 hc        1 ANJ      0.076367
     56 H162        1.3200   -2.0640    9.7870 hc        1 ANJ      0.076367
     57 H163        0.6110   -3.6250    9.1990 hc        1 ANJ      0.076367
     58 H181       -3.7180   -1.2230   10.2480 hc        1 ANJ      0.075200
     59 H182       -3.0220    0.4480   10.3500 hc        1 ANJ      0.075200
     60 H191       -4.4670    1.1110    8.3470 hc        1 ANJ      0.041700
     61 H192       -5.2070   -0.5380    8.3740 hc        1 ANJ      0.041700
     62 H201       -5.9620   -0.1590   10.7480 hc        1 ANJ      0.048700
     63 H202       -5.2350    1.4940   10.7150 hc        1 ANJ      0.048700
     64 H211       -6.7230    2.1060    8.7730 hc        1 ANJ      0.039700
     65 H212       -7.4530    0.4550    8.8160 hc        1 ANJ      0.039700
     66 H221       -7.4760    2.4990   11.1440 hc        1 ANJ      0.043700
     67 H222       -8.2060    0.8480   11.1840 hc        1 ANJ      0.043700
     68 H231       -9.7250    1.4690    9.2740 hc        1 ANJ      0.038700
     69 H232       -9.9250    2.5830   10.6880 hc        1 ANJ      0.038700
     70 H233       -8.9930    3.1240    9.2320 hc        1 ANJ      0.038700
     71 H25        -2.6980   -4.7090   10.6570 hc        1 ANJ      0.085700
     72 H261       -0.7400   -4.6750   13.0720 hc        1 ANJ      0.058367
     73 H262       -1.8340   -6.0520   12.6180 hc        1 ANJ      0.058367
     74 H263       -0.5070   -5.5380   11.4930 hc        1 ANJ      0.058367
     75 H271       -2.8780   -3.4520   13.4810 hc        1 ANJ      0.053700
     76 H272       -3.8270   -2.8370   12.0660 hc        1 ANJ      0.053700
     77 H281       -4.8350   -5.1250   11.7460 hc        1 ANJ      0.047700
     78 H282       -5.1750   -4.4370   13.3880 hc        1 ANJ      0.047700
     79 H283       -3.9190   -5.7250   13.1900 hc        1 ANJ      0.047700
     80 H12         2.8380   -0.9180   -0.2690 hn        1 ANJ      0.476300
     81 H22        -0.1230    2.3420    5.6450 hn        1 ANJ      0.494800
@<TRIPOS>BOND
     1    1   12 2   
     2    2   18 1   
     3    2   40 1   
     4    3   19 2   
     5    4   21 1   
     6    4   23 1   
     7    5   23 2   
     8    6   26 1   
     9    6   28 1   
    10    7   28 2   
    11    8   25 1   
    12    8   35 1   
    13    9   35 2   
    14   10   12 1   
    15   10   13 1   
    16   10   41 1   
    17   10   80 1   
    18   11   19 1   
    19   11   20 1   
    20   11   42 1   
    21   11   81 1   
    22   12   43 1   
    23   13   14 ar  
    24   13   18 ar  
    25   14   15 ar  
    26   14   44 1   
    27   15   16 ar  
    28   15   45 1   
    29   16   17 ar  
    30   16   46 1   
    31   17   18 ar  
    32   17   19 1   
    33   20   21 1   
    34   20   28 1   
    35   20   47 1   
    36   21   22 1   
    37   21   48 1   
    38   22   49 1   
    39   22   50 1   
    40   22   51 1   
    41   23   24 1   
    42   24   25 1   
    43   24   29 1   
    44   24   52 1   
    45   25   26 1   
    46   25   53 1   
    47   26   27 1   
    48   26   54 1   
    49   27   55 1   
    50   27   56 1   
    51   27   57 1   
    52   29   30 1   
    53   29   58 1   
    54   29   59 1   
    55   30   31 1   
    56   30   60 1   
    57   30   61 1   
    58   31   32 1   
    59   31   62 1   
    60   31   63 1   
    61   32   33 1   
    62   32   64 1   
    63   32   65 1   
    64   33   34 1   
    65   33   66 1   
    66   33   67 1   
    67   34   68 1   
    68   34   69 1   
    69   34   70 1   
    70   35   36 1   
    71   36   37 1   
    72   36   38 1   
    73   36   71 1   
    74   37   72 1   
    75   37   73 1   
    76   37   74 1   
    77   38   39 1   
    78   38   75 1   
    79   38   76 1   
    80   39   77 1   
    81   39   78 1   
    82   39   79 1   
@<TRIPOS>SUBSTRUCTURE
     1 ANJ         1 TEMP              0 ****  ****    0 ROOT
