@<TRIPOS>MOLECULE
ANJ
   79    78     1     0     0
SMALL
bcc


@<TRIPOS>ATOM
      1 O1         -4.2270    6.3050   -7.7690 o         1 ANJ     -0.351000
      2 O2         -4.0180    1.8300   -5.9420 oh        1 ANJ     -0.280000
      3 O3         -3.7970    1.1080   -3.3200 o         1 ANJ     -0.380000
      4 O4         -0.4390   -1.5970   -0.9960 os        1 ANJ     -0.272000
      5 O5         -1.5660   -0.6980    0.8250 o         1 ANJ     -0.274000
      6 O6         -0.1380    1.2980   -0.0970 os        1 ANJ     -0.294000
      7 O7         -2.2260    0.6300    0.7230 o         1 ANJ     -0.296000
      8 O8          1.9970    0.6830    2.4550 os        1 ANJ     -0.284000
      9 O9          1.0070    0.7560    4.5060 o         1 ANJ     -0.325000
     10 N1         -3.7180    4.0550   -7.7030 n         1 ANJ     -0.326000
     11 N2         -1.6960    1.4570   -2.4790 n         1 ANJ     -0.367000
     12 C1         -4.2160    5.2380   -8.3610 c2        1 ANJ      0.269000
     13 C2         -3.2380    4.1350   -6.3650 c2        1 ANJ      0.042000
     14 C3         -2.5570    5.2470   -5.9530 c2        1 ANJ     -0.111000
     15 C4         -1.9630    5.2790   -4.6630 c1        1 ANJ     -0.140000
     16 C5         -2.0750    4.1680   -3.8100 c1        1 ANJ     -0.102000
     17 C6         -2.7690    3.0340   -4.2290 c1        1 ANJ     -0.181000
     18 C7         -3.3520    3.0040   -5.4970 c1        1 ANJ      0.097000
     19 C8         -2.8260    1.7910   -3.3290 c2        1 ANJ      0.365000
     20 C9         -1.7500    0.3280   -1.6480 c3        1 ANJ      0.007000
     21 C10        -0.6710   -0.6350   -2.0400 c3        1 ANJ      0.044000
     22 C11         0.5840    0.1210   -2.2960 c3        1 ANJ     -0.257000
     23 C12        -0.5460   -0.9870    0.3020 c2        1 ANJ      0.293000
     24 C13         0.8440   -0.8010    0.9400 c3        1 ANJ     -0.136000
     25 C14         0.7230    0.3860    1.9300 c3        1 ANJ      0.008000
     26 C15         0.1850    1.5860    1.2460 c3        1 ANJ      0.034000
     27 C16        -1.1000    2.0730    1.9950 c3        1 ANJ     -0.244000
     28 C17        -1.4480    0.7400   -0.2020 c2        1 ANJ      0.274000
     29 C18         1.3860   -2.0770    1.5930 c3        1 ANJ     -0.149000
     30 C19         0.2200   -3.1550    1.7180 c3        1 ANJ     -0.166000
     31 C20         0.7960   -4.4680    2.3220 c3        1 ANJ     -0.155000
     32 C21        -0.1030   -5.6910    1.8760 c3        1 ANJ     -0.158000
     33 C22         0.7790   -6.9980    1.8020 c3        1 ANJ     -0.158000
     34 C23        -0.0110   -8.1170    1.0820 c3        1 ANJ     -0.211000
     35 C24         2.0130    0.8610    3.8820 c2        1 ANJ      0.304000
     36 C25         3.3330    1.2680    4.5990 c3        1 ANJ     -0.094000
     37 C26         3.0780    1.4270    6.0840 c3        1 ANJ     -0.212000
     38 C27         4.3600    0.2210    4.3770 c3        1 ANJ     -0.157000
     39 C28         5.7010    0.7490    4.7880 c3        1 ANJ     -0.212000
     40 HO2        -4.8850    2.0240   -6.1230 ho        1 ANJ      0.265000
     41 HN1        -3.6270    3.2770   -8.1740 hn        1 ANJ      0.250000
     42 HN2        -0.9850    2.0030   -2.4470 hn        1 ANJ      0.243000
     43 H1         -4.4660    5.2020   -9.3380 h5        1 ANJ      0.130000
     44 H3         -2.4790    6.0160   -6.5430 ha        1 ANJ      0.181000
     45 H4         -1.4880    6.0540   -4.3760 ha        1 ANJ      0.144000
     46 H5         -1.6780    4.1900   -2.9480 ha        1 ANJ      0.139000
     47 H9         -2.6410    0.0270   -1.8080 h1        1 ANJ      0.180000
     48 H10        -0.9400   -1.1110   -2.8710 h1        1 ANJ      0.137000
     49 H111        1.3340   -0.4520   -2.1580 hc        1 ANJ      0.097000
     50 H112        0.5860    0.4440   -3.2130 hc        1 ANJ      0.097000
     51 H113        0.6360    0.8690   -1.6930 hc        1 ANJ      0.097000
     52 H13         1.5340   -0.6290    0.2540 hc        1 ANJ      0.125000
     53 H14         0.1050    0.1270    2.6860 h1        1 ANJ      0.161000
     54 H15         0.8700    2.3090    1.2670 h1        1 ANJ      0.124000
     55 H161       -1.5480    1.3000    2.4160 hc        1 ANJ      0.101333
     56 H162       -1.7200    2.5010    1.3440 hc        1 ANJ      0.101333
     57 H163       -0.8510    2.7240    2.6860 hc        1 ANJ      0.101333
     58 H181        2.1150   -2.4440    1.0330 hc        1 ANJ      0.105000
     59 H182        1.7430   -1.8620    2.5060 hc        1 ANJ      0.105000
     60 H191       -0.4920   -2.8070    2.3070 hc        1 ANJ      0.083500
     61 H192       -0.1570   -3.3430    0.8130 hc        1 ANJ      0.083500
     62 H201        1.7020   -4.5970    2.0060 hc        1 ANJ      0.081500
     63 H202        0.7990   -4.4020    3.3180 hc        1 ANJ      0.081500
     64 H211       -0.8380   -5.8230    2.5370 hc        1 ANJ      0.080000
     65 H212       -0.4990   -5.5010    0.9710 hc        1 ANJ      0.080000
     66 H221        1.0090   -7.2940    2.7200 hc        1 ANJ      0.078000
     67 H222        1.6150   -6.8050    1.2940 hc        1 ANJ      0.078000
     68 H231       -0.8110   -8.3530    1.6150 hc        1 ANJ      0.072667
     69 H232       -0.2930   -7.7980    0.1870 hc        1 ANJ      0.072667
     70 H233        0.5690   -8.9200    0.9820 hc        1 ANJ      0.072667
     71 H25         3.6480    2.1060    4.2390 hc        1 ANJ      0.120000
     72 H261        2.7830    0.5790    6.4570 hc        1 ANJ      0.089667
     73 H262        3.9250    1.7160    6.5400 hc        1 ANJ      0.089667
     74 H263        2.3840    2.1040    6.2250 hc        1 ANJ      0.089667
     75 H271        4.1420   -0.5680    4.9080 hc        1 ANJ      0.094500
     76 H272        4.3810   -0.0230    3.4140 hc        1 ANJ      0.094500
     77 H281        5.8720    1.6020    4.3270 hc        1 ANJ      0.077667
     78 H282        6.3870    0.1100    4.5500 hc        1 ANJ      0.077667
     79 H283        5.7110    0.8930    5.7470 hc        1 ANJ      0.077667
@<TRIPOS>BOND
     1    1   12 1   
     2    2   18 1   
     3    2   40 1   
     4    3   19 1   
     5    4   21 1   
     6    4   23 1   
     7    5   23 1   
     8    6   26 1   
     9    6   28 1   
    10    7   28 1   
    11    8   25 1   
    12    8   35 1   
    13    9   35 1   
    14   10   12 1   
    15   10   13 1   
    16   10   41 1   
    17   11   19 1   
    18   11   20 1   
    19   11   42 1   
    20   12   43 1   
    21   13   14 1   
    22   13   18 1   
    23   14   15 1   
    24   14   44 1   
    25   15   45 1   
    26   16   17 1   
    27   16   46 1   
    28   17   19 1   
    29   20   21 1   
    30   20   28 1   
    31   20   47 1   
    32   21   22 1   
    33   21   48 1   
    34   22   49 1   
    35   22   50 1   
    36   22   51 1   
    37   23   24 1   
    38   24   25 1   
    39   24   29 1   
    40   24   52 1   
    41   25   26 1   
    42   25   53 1   
    43   26   27 1   
    44   26   54 1   
    45   27   55 1   
    46   27   56 1   
    47   27   57 1   
    48   29   30 1   
    49   29   58 1   
    50   29   59 1   
    51   30   31 1   
    52   30   60 1   
    53   30   61 1   
    54   31   32 1   
    55   31   62 1   
    56   31   63 1   
    57   32   33 1   
    58   32   64 1   
    59   32   65 1   
    60   33   34 1   
    61   33   66 1   
    62   33   67 1   
    63   34   68 1   
    64   34   69 1   
    65   34   70 1   
    66   35   36 1   
    67   36   37 1   
    68   36   38 1   
    69   36   71 1   
    70   37   72 1   
    71   37   73 1   
    72   37   74 1   
    73   38   39 1   
    74   38   75 1   
    75   38   76 1   
    76   39   77 1   
    77   39   78 1   
    78   39   79 1   
@<TRIPOS>SUBSTRUCTURE
     1 ANJ         1 TEMP              0 ****  ****    0 ROOT
