@<TRIPOS>MOLECULE
ANJ
   80    81     1     0     0
SMALL
bcc


@<TRIPOS>ATOM
      1 O1          1.2540    0.1930   -1.2840 o         1 ANJ     -0.553100
      2 O2          3.3840    1.5900    2.8840 oh        1 ANJ     -0.494100
      3 O3          2.5830    2.3020    5.4790 o         1 ANJ     -0.407100
      4 O4         -0.6530    0.8160    8.6460 os        1 ANJ     -0.433900
      5 O5         -1.4780    0.1480    6.6710 o         1 ANJ     -0.677500
      6 O6          0.6570   -1.4940    7.8520 os        1 ANJ     -0.482900
      7 O7          2.2310   -0.7120    9.2990 o         1 ANJ     -0.518500
      8 O8         -1.7080   -2.9120   10.2220 os        1 ANJ     -0.445900
      9 O9         -1.4980   -1.8510   12.1810 o         1 ANJ     -0.515000
     10 N1          2.3770    1.6000    0.1680 n         1 ANJ     -0.512100
     11 N2          1.3180    0.4050    6.0080 n4        1 ANJ     -0.678800
     12 C1          2.1710    0.9920   -1.0690 c         1 ANJ      0.668900
     13 C2          1.5170    1.4570    1.2720 ca        1 ANJ     -0.011400
     14 C3          0.1290    1.2820    1.1240 ca        1 ANJ     -0.045000
     15 C4         -0.7050    1.1600    2.2380 ca        1 ANJ     -0.131000
     16 C5         -0.1900    1.2170    3.5230 ca        1 ANJ     -0.083000
     17 C6          1.1930    1.3740    3.7100 ca        1 ANJ     -0.230600
     18 C7          2.0510    1.4670    2.5930 ca        1 ANJ      0.172100
     19 C8          1.7780    1.4950    5.0460 c         1 ANJ      0.599700
     20 C9          1.4860    0.7220    7.4570 c3        1 ANJ      0.026500
     21 C10         0.3710    1.6210    8.0660 c3        1 ANJ      0.157100
     22 C11        -0.1450    2.7060    7.1550 c3        1 ANJ     -0.150100
     23 C12        -1.4340   -0.0250    7.8930 c         1 ANJ      0.769600
     24 C13        -2.1060   -1.0890    8.7210 c3        1 ANJ     -0.114700
     25 C14        -1.0480   -1.8240    9.5700 c3        1 ANJ      0.119100
     26 C15         0.0620   -2.4840    8.7190 c3        1 ANJ      0.162100
     27 C16         1.0660   -3.2240    9.5670 c3        1 ANJ     -0.129100
     28 C17         1.5250   -0.5520    8.3170 c         1 ANJ      0.710600
     29 C18        -3.1800   -0.4680    9.6050 c3        1 ANJ     -0.079400
     30 C19        -4.3530    0.0330    8.7900 c3        1 ANJ     -0.084400
     31 C20        -5.3730    0.7180    9.6750 c3        1 ANJ     -0.079400
     32 C21        -6.5540    1.2100    8.8670 c3        1 ANJ     -0.079400
     33 C22        -7.5740    1.8990    9.7500 c3        1 ANJ     -0.080400
     34 C23        -8.7520    2.3900    8.9500 c3        1 ANJ     -0.094100
     35 C24        -1.9050   -2.8460   11.5880 c         1 ANJ      0.638100
     36 C25        -2.6230   -4.0660   12.1080 c3        1 ANJ     -0.101700
     37 C26        -1.7880   -4.6990   13.2020 c3        1 ANJ     -0.097100
     38 C27        -4.0010   -3.6420   12.6080 c3        1 ANJ     -0.076400
     39 C28        -4.9230   -4.8220   12.7740 c3        1 ANJ     -0.096100
     40 HO2         3.9140    1.3510    2.1060 ho        1 ANJ      0.452000
     41 HN1         3.0340    2.3460    0.2240 hn        1 ANJ      0.326500
     42 HN2         0.3220    0.1900    5.8230 hn        1 ANJ      0.478300
     43 H1          2.9370    1.2830   -1.8250 h5        1 ANJ      0.064200
     44 H3         -0.3120    1.2280    0.1100 ha        1 ANJ      0.188000
     45 H4         -1.7900    1.0280    2.0860 ha        1 ANJ      0.171000
     46 H5         -0.8790    1.1590    4.3850 ha        1 ANJ      0.161000
     47 H9          2.4770    1.2620    7.5780 hx        1 ANJ      0.155700
     48 H10         0.8300    2.0920    8.9950 h1        1 ANJ      0.132700
     49 H111       -0.7090    2.2970    6.2820 hc        1 ANJ      0.075367
     50 H112        0.7050    3.3350    6.7930 hc        1 ANJ      0.075367
     51 H113       -0.8480    3.3590    7.7340 hc        1 ANJ      0.075367
     52 H13        -2.5810   -1.8210    8.0080 hc        1 ANJ      0.106700
     53 H14        -0.5930   -1.1090   10.3130 h1        1 ANJ      0.111700
     54 H15        -0.4070   -3.1780    7.9580 h1        1 ANJ      0.101700
     55 H161        0.5770   -4.1380    9.9850 hc        1 ANJ      0.071033
     56 H162        1.4280   -2.5920   10.4150 hc        1 ANJ      0.071033
     57 H163        1.9440   -3.5270    8.9480 hc        1 ANJ      0.071033
     58 H181       -3.5300   -1.2480   10.3340 hc        1 ANJ      0.070700
     59 H182       -2.7330    0.3700   10.2030 hc        1 ANJ      0.070700
     60 H191       -4.8370   -0.8250    8.2540 hc        1 ANJ      0.043700
     61 H192       -3.9900    0.7500    8.0070 hc        1 ANJ      0.043700
     62 H201       -5.7270    0.0030   10.4630 hc        1 ANJ      0.045700
     63 H202       -4.8930    1.5830   10.2050 hc        1 ANJ      0.045700
     64 H211       -6.2000    1.9220    8.0760 hc        1 ANJ      0.040200
     65 H212       -7.0380    0.3440    8.3410 hc        1 ANJ      0.040200
     66 H221       -7.9260    1.1860   10.5410 hc        1 ANJ      0.041700
     67 H222       -7.0880    2.7630   10.2770 hc        1 ANJ      0.041700
     68 H231       -9.4910    2.8940    9.6200 hc        1 ANJ      0.036700
     69 H232       -9.2650    1.5400    8.4380 hc        1 ANJ      0.036700
     70 H233       -8.4260    3.1220    8.1720 hc        1 ANJ      0.036700
     71 H25        -2.7480   -4.7980   11.2600 hc        1 ANJ      0.085700
     72 H261       -0.8100   -5.0490   12.7940 hc        1 ANJ      0.055367
     73 H262       -1.5930   -3.9650   14.0210 hc        1 ANJ      0.055367
     74 H263       -2.3320   -5.5760   13.6280 hc        1 ANJ      0.055367
     75 H271       -3.8880   -3.1010   13.5850 hc        1 ANJ      0.053700
     76 H272       -4.4510   -2.9200   11.8750 hc        1 ANJ      0.053700
     77 H281       -5.9260   -4.4720   13.1200 hc        1 ANJ      0.044367
     78 H282       -5.0520   -5.3660   11.8080 hc        1 ANJ      0.044367
     79 H283       -4.5230   -5.5390   13.5320 hc        1 ANJ      0.044367
     80 H22         1.8590   -0.4430    5.7950 hn        1 ANJ      0.478300
@<TRIPOS>BOND
     1    1   12 2   
     2    2   18 1   
     3    2   40 1   
     4    3   19 2   
     5    4   21 1   
     6    4   23 1   
     7    5   23 2   
     8    6   26 1   
     9    6   28 1   
    10    7   28 2   
    11    8   25 1   
    12    8   35 1   
    13    9   35 2   
    14   10   12 1   
    15   10   13 1   
    16   10   41 1   
    17   11   19 1   
    18   11   20 1   
    19   11   42 1   
    20   11   80 1   
    21   12   43 1   
    22   13   14 ar  
    23   13   18 ar  
    24   14   15 ar  
    25   14   44 1   
    26   15   16 ar  
    27   15   45 1   
    28   16   17 ar  
    29   16   46 1   
    30   17   18 ar  
    31   17   19 1   
    32   20   21 1   
    33   20   28 1   
    34   20   47 1   
    35   21   22 1   
    36   21   48 1   
    37   22   49 1   
    38   22   50 1   
    39   22   51 1   
    40   23   24 1   
    41   24   25 1   
    42   24   29 1   
    43   24   52 1   
    44   25   26 1   
    45   25   53 1   
    46   26   27 1   
    47   26   54 1   
    48   27   55 1   
    49   27   56 1   
    50   27   57 1   
    51   29   30 1   
    52   29   58 1   
    53   29   59 1   
    54   30   31 1   
    55   30   60 1   
    56   30   61 1   
    57   31   32 1   
    58   31   62 1   
    59   31   63 1   
    60   32   33 1   
    61   32   64 1   
    62   32   65 1   
    63   33   34 1   
    64   33   66 1   
    65   33   67 1   
    66   34   68 1   
    67   34   69 1   
    68   34   70 1   
    69   35   36 1   
    70   36   37 1   
    71   36   38 1   
    72   36   71 1   
    73   37   72 1   
    74   37   73 1   
    75   37   74 1   
    76   38   39 1   
    77   38   75 1   
    78   38   76 1   
    79   39   77 1   
    80   39   78 1   
    81   39   79 1   
@<TRIPOS>SUBSTRUCTURE
     1 ANJ         1 TEMP              0 ****  ****    0 ROOT
