@<TRIPOS>MOLECULE
ANJ
   80    81     1     0     0
SMALL
bcc


@<TRIPOS>ATOM
      1 O1          2.0460    1.5460   -2.0830 o         1 ANJ     -0.559100
      2 O2          3.4320    2.2400    2.6540 oh        1 ANJ     -0.499100
      3 O3          2.3410    2.1200    5.1750 o         1 ANJ     -0.479100
      4 O4         -0.6430    0.7380    8.6580 os        1 ANJ     -0.406900
      5 O5         -1.7070    0.0130    6.8350 o         1 ANJ     -0.691500
      6 O6          0.8270   -1.1430    8.7160 os        1 ANJ     -0.406900
      7 O7          0.9990   -1.9900    6.6270 o         1 ANJ     -0.589500
      8 O8         -1.7920   -2.8390   10.5440 os        1 ANJ     -0.448900
      9 O9         -1.8190   -1.7590   12.5040 o         1 ANJ     -0.517000
     10 N1          3.0010    2.0660   -0.0290 ns        1 ANJ     -0.481100
     11 N2          0.6660    0.5280    5.4900 ny        1 ANJ     -0.672800
     12 C1          2.9900    1.9870   -1.4180 c         1 ANJ      0.674900
     13 C2          1.9900    1.6630    0.8470 ca        1 ANJ      0.065600
     14 C3          0.7550    1.1490    0.4130 ca        1 ANJ     -0.084000
     15 C4         -0.2280    0.7670    1.3300 ca        1 ANJ     -0.107000
     16 C5         -0.0150    0.8600    2.6920 ca        1 ANJ     -0.118000
     17 C6          1.2150    1.3510    3.1790 ca        1 ANJ     -0.247600
     18 C7          2.2010    1.7790    2.2650 ca        1 ANJ      0.162100
     19 C8          1.4970    1.4310    4.6060 c         1 ANJ      0.589700
     20 C9          1.1100    0.4430    6.9220 c3        1 ANJ      0.040500
     21 C10         0.3560    1.4040    7.8860 c3        1 ANJ      0.163100
     22 C11        -0.1920    2.6560    7.2400 c3        1 ANJ     -0.152100
     23 C12        -1.5520   -0.0920    8.0580 c         1 ANJ      0.753600
     24 C13        -2.1990   -1.0640    9.0060 c3        1 ANJ     -0.118700
     25 C14        -1.1540   -1.7120    9.9360 c3        1 ANJ      0.133100
     26 C15         0.0820   -2.2980    9.2070 c3        1 ANJ      0.147100
     27 C16         1.0020   -3.0330   10.1570 c3        1 ANJ     -0.111100
     28 C17         0.9770   -1.0160    7.3800 c         1 ANJ      0.707600
     29 C18        -3.2680   -0.3500    9.8270 c3        1 ANJ     -0.078400
     30 C19        -4.4790   -0.0030    8.9880 c3        1 ANJ     -0.085400
     31 C20        -5.4840    0.7950    9.7910 c3        1 ANJ     -0.079400
     32 C21        -6.7060    1.1270    8.9620 c3        1 ANJ     -0.079400
     33 C22        -7.7100    1.9290    9.7620 c3        1 ANJ     -0.080400
     34 C23        -8.9290    2.2620    8.9410 c3        1 ANJ     -0.094100
     35 C24        -2.0800   -2.7930   11.8940 c         1 ANJ      0.638100
     36 C25        -2.6890   -4.0840   12.3780 c3        1 ANJ     -0.101700
     37 C26        -1.6380   -4.8530   13.1550 c3        1 ANJ     -0.096100
     38 C27        -3.9160   -3.7680   13.2240 c3        1 ANJ     -0.076400
     39 C28        -4.7710   -4.9870   13.4500 c3        1 ANJ     -0.097100
     40 HO2         3.3460    2.7680    3.4660 ho        1 ANJ      0.458000
     41 HN1         3.8260    2.4260    0.4050 hn        1 ANJ      0.343500
     42 HN2         0.6880   -0.4220    5.0750 hn        1 ANJ      0.489800
     43 H1          3.9360    2.3720   -1.8680 h5        1 ANJ      0.065200
     44 H3          0.5390    1.0490   -0.6690 ha        1 ANJ      0.207000
     45 H4         -1.1920    0.3870    0.9490 ha        1 ANJ      0.170000
     46 H5         -0.8310    0.5670    3.3700 ha        1 ANJ      0.137000
     47 H9          2.2110    0.7180    6.9640 hx        1 ANJ      0.155700
     48 H10         1.1070    1.6790    8.6940 h1        1 ANJ      0.131700
     49 H111       -0.4870    3.3750    8.0480 hc        1 ANJ      0.074033
     50 H112        0.5860    3.1440    6.6050 hc        1 ANJ      0.074033
     51 H113       -1.1090    2.4450    6.6370 hc        1 ANJ      0.074033
     52 H13        -2.6830   -1.8690    8.3800 hc        1 ANJ      0.109700
     53 H14        -0.8130   -0.9590   10.7020 h1        1 ANJ      0.117700
     54 H15        -0.2320   -2.9550    8.3530 h1        1 ANJ      0.093700
     55 H161        1.3910   -2.3410   10.9420 hc        1 ANJ      0.068033
     56 H162        0.4310   -3.8600   10.6470 hc        1 ANJ      0.068033
     57 H163        1.8660   -3.4650    9.5970 hc        1 ANJ      0.068033
     58 H181       -2.8310    0.5770   10.2840 hc        1 ANJ      0.070700
     59 H182       -3.5710   -1.0250   10.6730 hc        1 ANJ      0.070700
     60 H191       -4.1590    0.5870    8.0880 hc        1 ANJ      0.044700
     61 H192       -4.9610   -0.9440    8.6110 hc        1 ANJ      0.044700
     62 H201       -5.0080    1.7420   10.1580 hc        1 ANJ      0.046200
     63 H202       -5.7920    0.2080   10.6970 hc        1 ANJ      0.046200
     64 H211       -7.1850    0.1790    8.6000 hc        1 ANJ      0.040700
     65 H212       -6.3980    1.7100    8.0530 hc        1 ANJ      0.040700
     66 H221       -8.0150    1.3460   10.6710 hc        1 ANJ      0.041200
     67 H222       -7.2290    2.8760   10.1240 hc        1 ANJ      0.041200
     68 H231       -9.4370    1.3310    8.5920 hc        1 ANJ      0.036700
     69 H232       -9.6550    2.8530    9.5500 hc        1 ANJ      0.036700
     70 H233       -8.6490    2.8650    8.0440 hc        1 ANJ      0.036700
     71 H25        -3.0030   -4.6900   11.4800 hc        1 ANJ      0.085700
     72 H261       -1.3010   -4.2700   14.0460 hc        1 ANJ      0.054033
     73 H262       -0.7540   -5.0650   12.5070 hc        1 ANJ      0.054033
     74 H263       -2.0670   -5.8230   13.5040 hc        1 ANJ      0.054033
     75 H271       -3.5850   -3.3400   14.2070 hc        1 ANJ      0.056200
     76 H272       -4.5240   -2.9780   12.7060 hc        1 ANJ      0.056200
     77 H281       -5.6760   -4.7100   14.0440 hc        1 ANJ      0.043700
     78 H282       -5.1070   -5.4240   12.4780 hc        1 ANJ      0.043700
     79 H283       -4.2090   -5.7720   14.0130 hc        1 ANJ      0.043700
     80 H22        -0.3200    0.8490    5.4770 hn        1 ANJ      0.489800
@<TRIPOS>BOND
     1    1   12 2   
     2    2   18 1   
     3    2   40 1   
     4    3   19 2   
     5    4   21 1   
     6    4   23 1   
     7    5   23 2   
     8    6   26 1   
     9    6   28 1   
    10    7   28 2   
    11    8   25 1   
    12    8   35 1   
    13    9   35 2   
    14   10   12 1   
    15   10   13 1   
    16   10   41 1   
    17   11   19 1   
    18   11   20 1   
    19   11   42 1   
    20   11   80 1   
    21   12   43 1   
    22   13   14 ar  
    23   13   18 ar  
    24   14   15 ar  
    25   14   44 1   
    26   15   16 ar  
    27   15   45 1   
    28   16   17 ar  
    29   16   46 1   
    30   17   18 ar  
    31   17   19 1   
    32   20   21 1   
    33   20   28 1   
    34   20   47 1   
    35   21   22 1   
    36   21   48 1   
    37   22   49 1   
    38   22   50 1   
    39   22   51 1   
    40   23   24 1   
    41   24   25 1   
    42   24   29 1   
    43   24   52 1   
    44   25   26 1   
    45   25   53 1   
    46   26   27 1   
    47   26   54 1   
    48   27   55 1   
    49   27   56 1   
    50   27   57 1   
    51   29   30 1   
    52   29   58 1   
    53   29   59 1   
    54   30   31 1   
    55   30   60 1   
    56   30   61 1   
    57   31   32 1   
    58   31   62 1   
    59   31   63 1   
    60   32   33 1   
    61   32   64 1   
    62   32   65 1   
    63   33   34 1   
    64   33   66 1   
    65   33   67 1   
    66   34   68 1   
    67   34   69 1   
    68   34   70 1   
    69   35   36 1   
    70   36   37 1   
    71   36   38 1   
    72   36   71 1   
    73   37   72 1   
    74   37   73 1   
    75   37   74 1   
    76   38   39 1   
    77   38   75 1   
    78   38   76 1   
    79   39   77 1   
    80   39   78 1   
    81   39   79 1   
@<TRIPOS>SUBSTRUCTURE
     1 ANJ         1 TEMP              0 ****  ****    0 ROOT
