@<TRIPOS>MOLECULE
ANK
   45    46     1     0     0
SMALL
bcc


@<TRIPOS>ATOM
      1 N1         -0.6580   -1.0360    0.7380 nb        1 ANK     -0.804000
      2 C2          0.6490   -1.0140    0.3540 ca        1 ANK      0.631900
      3 N3          1.7710   -0.8190    1.0800 nb        1 ANK     -0.717000
      4 C4          1.5180   -0.6080    2.4080 ca        1 ANK      0.428800
      5 C5          0.1660   -0.6190    2.9690 ca        1 ANK     -0.192200
      6 C6         -0.9180   -0.8560    2.0720 ca        1 ANK      0.684200
      7 N6         -2.2210   -0.9670    2.5710 nv        1 ANK     -0.924500
      8 N7          0.2220   -0.3610    4.3450 nc        1 ANK     -0.587100
      9 C8          1.5250   -0.1940    4.6300 cd        1 ANK      0.470700
     10 N9          2.3680   -0.3550    3.4940 na        1 ANK     -0.275000
     11 PA          3.6210    1.4830    8.1920 p5        1 ANK      1.626800
     12 PB          2.6590    3.5560   10.5550 p5        1 ANK      1.557700
     13 PG          5.0150    5.9450   12.8390 p4        1 ANK      1.528300
     14 C1'         3.8120   -0.2210    3.3920 c3        1 ANK      0.221800
     15 O1A         4.7870    0.5930    8.4470 o         1 ANK     -0.920000
     16 O1B         2.0690    2.6110   11.5350 o         1 ANK     -0.873500
     17 O1G         3.9870    6.5850   13.6840 o         1 ANK     -0.828833
     18 C2'         4.5840   -1.0910    4.4400 c3        1 ANK      0.110100
     19 O2'         5.6960   -1.6770    3.7950 oh        1 ANK     -0.616800
     20 O2A         2.4940    0.8240    7.4670 o         1 ANK     -0.920000
     21 O2B         1.8120    4.5190    9.8090 o         1 ANK     -0.873500
     22 O2G         5.5490    6.6770   11.6710 o         1 ANK     -0.828833
     23 C3'         4.9290   -0.0820    5.5460 c3        1 ANK      0.082100
     24 O3'         6.2370   -0.3010    6.0210 oh        1 ANK     -0.653800
     25 O3A         3.2490    2.5010    9.3230 os        1 ANK     -0.815800
     26 N3B         4.0030    4.2520   11.1220 n8        1 ANK     -1.099900
     27 O3G         5.7890    4.8080   13.3800 o         1 ANK     -0.877633
     28 C4'         4.7930    1.3140    4.9000 c3        1 ANK      0.061100
     29 O4'         4.2320    1.1290    3.5800 os        1 ANK     -0.430600
     30 C5'         3.8830    2.2870    5.6880 c3        1 ANK      0.211400
     31 O5'         4.3010    2.4590    6.9870 os        1 ANK     -0.577200
     32 H2          0.8110   -1.1760   -0.7310 h5        1 ANK      0.021100
     33 HN6        -2.3370   -0.5620    3.4740 hn        1 ANK      0.404800
     34 HN6A       -2.9490   -0.7540    1.9270 hn        1 ANK      0.404800
     35 H8          1.9210    0.0630    5.6590 h5        1 ANK      0.197800
     36 H1'         4.1160   -0.4890    2.3380 h2        1 ANK      0.096700
     37 H2'         3.9700   -1.9440    4.8280 h1        1 ANK      0.080700
     38 HO2'        6.4770   -1.1630    4.0390 ho        1 ANK      0.425000
     39 H3'         4.1820   -0.1710    6.4000 h1        1 ANK      0.143700
     40 HO3'        6.2110   -0.0600    6.9730 ho        1 ANK      0.492000
     41 HN3B        4.4740    4.9310   10.5730 hn        1 ANK      0.412300
     42 H4'         5.8030    1.7720    4.7360 h1        1 ANK      0.061700
     43 H5'         3.9420    3.2830    5.1630 h1        1 ANK      0.023700
     44 H5'A        2.8210    1.9160    5.6460 h1        1 ANK      0.023700
     45 H3B2        4.6390    3.7200   11.6680 hn        1 ANK      0.412300
@<TRIPOS>BOND
     1    1    2 ar  
     2    1    6 ar  
     3    2    3 ar  
     4    2   32 1   
     5    3    4 ar  
     6    4    5 ar  
     7    4   10 1   
     8    5    6 ar  
     9    5    8 1   
    10    6    7 1   
    11    7   33 1   
    12    7   34 1   
    13    8    9 2   
    14    9   10 1   
    15    9   35 1   
    16   10   14 1   
    17   11   15 1   
    18   11   20 1   
    19   11   25 1   
    20   11   31 1   
    21   12   16 1   
    22   12   21 1   
    23   12   25 1   
    24   12   26 1   
    25   13   17 1   
    26   13   22 1   
    27   13   27 2   
    28   14   18 1   
    29   14   29 1   
    30   14   36 1   
    31   18   19 1   
    32   18   23 1   
    33   18   37 1   
    34   19   38 1   
    35   23   24 1   
    36   23   28 1   
    37   23   39 1   
    38   24   40 1   
    39   26   41 1   
    40   26   45 1   
    41   28   29 1   
    42   28   30 1   
    43   28   42 1   
    44   30   31 1   
    45   30   43 1   
    46   30   44 1   
@<TRIPOS>SUBSTRUCTURE
     1 ANK         1 TEMP              0 ****  ****    0 ROOT
