@<TRIPOS>MOLECULE
ANL
   14    11     1     0     0
SMALL
bcc


@<TRIPOS>ATOM
      1 C1         -0.4440    0.0000   -0.7700 c1        1 ANL      0.110800
      2 C2          0.9420    0.0000   -0.7700 c1        1 ANL     -0.080000
      3 C3          1.6350    0.0000    0.4310 c1        1 ANL     -0.080000
      4 C4          0.9420    0.0000    1.6310 c1        1 ANL     -0.080000
      5 C5         -0.4440    0.0000    1.6310 c1        1 ANL     -0.080000
      6 C6         -1.1370    0.0000    0.4310 c1        1 ANL     -0.133500
      7 N          -1.1540   -0.0010   -1.9980 n3        1 ANL     -0.792400
      8 H2          1.4300    0.0000   -1.6150 ha        1 ANL      0.072250
      9 H3          2.6110    0.0000    0.4310 ha        1 ANL      0.072250
     10 H4          1.4300    0.0000    2.4760 ha        1 ANL      0.072250
     11 H5         -0.9320    0.0000    2.4760 ha        1 ANL      0.072250
     12 H6         -2.1130    0.0000    0.4310 ha        1 ANL      0.072500
     13 HN1        -1.3820    0.7890   -2.3940 hn        1 ANL      0.386800
     14 HN2        -1.3810   -0.7910   -2.3930 hn        1 ANL      0.386800
@<TRIPOS>BOND
     1    1    6 3   
     2    1    7 1   
     3    2    3 3   
     4    2    8 1   
     5    3    9 1   
     6    4    5 3   
     7    4   10 1   
     8    5   11 1   
     9    6   12 1   
    10    7   13 1   
    11    7   14 1   
@<TRIPOS>SUBSTRUCTURE
     1 ANL         1 TEMP              0 ****  ****    0 ROOT
