@<TRIPOS>MOLECULE
ANL
   15    15     1     0     0
SMALL
bcc


@<TRIPOS>ATOM
      1 C1          0.0190   -0.0180    0.0020 ca        1 ANL     -0.078400
      2 C2          1.4250   -0.0270   -0.0040 ca        1 ANL     -0.099000
      3 C3          2.1040   -0.0090    1.2120 ca        1 ANL     -0.098000
      4 C4          1.3980    0.0170    2.4170 ca        1 ANL     -0.063000
      5 C5          0.0020    0.0240    2.4120 ca        1 ANL     -0.098000
      6 C6         -0.7010    0.0060    1.2090 ca        1 ANL     -0.099000
      7 N          -0.7040   -0.0270   -1.2710 n4        1 ANL     -0.700000
      8 H2          1.9980   -0.0490   -0.9460 ha        1 ANL      0.158000
      9 H3          3.2070   -0.0170    1.2170 ha        1 ANL      0.176000
     10 H4          1.9450    0.0310    3.3750 ha        1 ANL      0.176000
     11 H5         -0.5550    0.0430    3.3650 ha        1 ANL      0.176000
     12 H6         -1.8040    0.0110    1.2250 ha        1 ANL      0.158000
     13 HN1        -0.7570    0.9300   -1.6410 hn        1 ANL      0.463800
     14 HN2        -1.6550   -0.3870   -1.1320 hn        1 ANL      0.463800
     15 HN3        -0.2120   -0.6220   -1.9470 hn        1 ANL      0.463800
@<TRIPOS>BOND
     1    1    2 ar  
     2    1    6 ar  
     3    1    7 1   
     4    2    3 ar  
     5    2    8 1   
     6    3    4 ar  
     7    3    9 1   
     8    4    5 ar  
     9    4   10 1   
    10    5    6 ar  
    11    5   11 1   
    12    6   12 1   
    13    7   13 1   
    14    7   14 1   
    15    7   15 1   
@<TRIPOS>SUBSTRUCTURE
     1 ANL         1 TEMP              0 ****  ****    0 ROOT
