@<TRIPOS>MOLECULE
ANL
   14    14     1     0     0
SMALL
bcc


@<TRIPOS>ATOM
      1 C1         -0.0200    0.0430   -0.0310 ca        1 ANL      0.136600
      2 C2          1.3880    0.1850   -0.0040 ca        1 ANL     -0.191000
      3 C3          2.0710    0.1700    1.2060 ca        1 ANL     -0.093000
      4 C4          1.3860    0.0070    2.4090 ca        1 ANL     -0.173000
      5 C5          0.0000   -0.1410    2.3940 ca        1 ANL     -0.093000
      6 C6         -0.7030   -0.1290    1.1960 ca        1 ANL     -0.191000
      7 N          -0.7270    0.1510   -1.2340 nh        1 ANL     -0.818200
      8 H2          1.9470    0.3180   -0.9420 ha        1 ANL      0.130000
      9 H3          3.1660    0.2880    1.2100 ha        1 ANL      0.129000
     10 H4          1.9340   -0.0040    3.3610 ha        1 ANL      0.131000
     11 H5         -0.5470   -0.2710    3.3410 ha        1 ANL      0.129000
     12 H6         -1.7970   -0.2450    1.2070 ha        1 ANL      0.130000
     13 HN1        -0.1910   -0.0720   -2.0440 hn        1 ANL      0.386800
     14 HN2        -1.6210   -0.2870   -1.2240 hn        1 ANL      0.386800
@<TRIPOS>BOND
     1    1    2 ar  
     2    1    6 ar  
     3    1    7 1   
     4    2    3 ar  
     5    2    8 1   
     6    3    4 ar  
     7    3    9 1   
     8    4    5 ar  
     9    4   10 1   
    10    5    6 ar  
    11    5   11 1   
    12    6   12 1   
    13    7   13 1   
    14    7   14 1   
@<TRIPOS>SUBSTRUCTURE
     1 ANL         1 TEMP              0 ****  ****    0 ROOT
