@<TRIPOS>MOLECULE
ANL
   14    14     1     0     0
SMALL
bcc


@<TRIPOS>ATOM
      1 C1         -0.0000   -0.0560    0.9580 ca        1 ANL      0.136600
      2 C2         -1.2160   -0.0300    0.2340 ca        1 ANL     -0.191000
      3 C3         -1.2040    0.0040   -1.1550 ca        1 ANL     -0.093000
      4 C4          0.0000    0.0210   -1.8580 ca        1 ANL     -0.173000
      5 C5          1.2040    0.0040   -1.1550 ca        1 ANL     -0.093000
      6 C6          1.2160   -0.0300    0.2340 ca        1 ANL     -0.191000
      7 N          -0.0000   -0.1850    2.3510 nh        1 ANL     -0.818200
      8 H2         -2.1770   -0.0460    0.7690 ha        1 ANL      0.130000
      9 H3         -2.1580    0.0180   -1.7040 ha        1 ANL      0.129000
     10 H4          0.0000    0.0490   -2.9560 ha        1 ANL      0.131000
     11 H5          2.1580    0.0180   -1.7040 ha        1 ANL      0.129000
     12 H6          2.1770   -0.0470    0.7690 ha        1 ANL      0.130000
     13 HN1         0.8310    0.1420    2.7920 hn        1 ANL      0.386800
     14 HN2        -0.8310    0.1420    2.7920 hn        1 ANL      0.386800
@<TRIPOS>BOND
     1    1    2 ar  
     2    1    6 ar  
     3    1    7 1   
     4    2    3 ar  
     5    2    8 1   
     6    3    4 ar  
     7    3    9 1   
     8    4    5 ar  
     9    4   10 1   
    10    5    6 ar  
    11    5   11 1   
    12    6   12 1   
    13    7   13 1   
    14    7   14 1   
@<TRIPOS>SUBSTRUCTURE
     1 ANL         1 TEMP              0 ****  ****    0 ROOT
