@<TRIPOS>MOLECULE
ANM
   38    39     1     0     0
SMALL
bcc


@<TRIPOS>ATOM
      1 C1          3.2570    1.2200   -1.0710 ca        1 ANM     -0.182500
      2 C2         -2.4340   -0.4600   -0.4330 c3        1 ANM      0.133100
      3 C3         -3.0220   -1.8010    0.0650 c3        1 ANM      0.112100
      4 C4         -1.8050   -2.6540    0.4880 c3        1 ANM      0.125800
      5 C6         -3.7280    2.6800    1.0740 c3        1 ANM     -0.151100
      6 C9          4.0540    0.4560   -0.1980 ca        1 ANM      0.120100
      7 C10         3.4700   -0.2850    0.8350 ca        1 ANM     -0.182500
      8 C11         2.0850   -0.2590    0.9940 ca        1 ANM     -0.090000
      9 C12         1.2800    0.4950    0.1360 ca        1 ANM     -0.114300
     10 C13         1.8790    1.2320   -0.8960 ca        1 ANM     -0.090000
     11 C15        -0.1950    0.5280    0.3210 c3        1 ANM     -0.018100
     12 C16        -0.8880   -0.6330   -0.4040 c3        1 ANM      0.161500
     13 N1         -0.5760   -1.9340    0.2010 n3        1 ANM     -0.806200
     14 O1          5.4110    0.5100   -0.4550 os        1 ANM     -0.328900
     15 O3         -3.0150    2.0230   -1.1800 o         1 ANM     -0.538000
     16 O4         -3.7150   -2.3740   -1.0300 oh        1 ANM     -0.595800
     17 H1          3.7340    1.7950   -1.8760 ha        1 ANM      0.141000
     18 H2         -2.7880   -0.2190   -1.4720 h1        1 ANM      0.106700
     19 H3         -3.7220   -1.6390    0.9270 h1        1 ANM      0.064700
     20 H41        -1.8420   -3.6540   -0.0250 h1        1 ANM      0.049200
     21 H42        -1.8380   -2.8300    1.5990 h1        1 ANM      0.049200
     22 H61        -3.6860    2.1900    2.0760 hc        1 ANM      0.077367
     23 H62        -3.1210    3.6180    1.0900 hc        1 ANM      0.077367
     24 H63        -4.7890    2.9350    0.8300 hc        1 ANM      0.077367
     25 H10         4.0840   -0.8840    1.5210 ha        1 ANM      0.141000
     26 H11         1.6180   -0.8460    1.8000 ha        1 ANM      0.140000
     27 H13         1.2510    1.8280   -1.5750 ha        1 ANM      0.140000
     28 H141        6.1450    0.1150    1.4690 h1        1 ANM      0.043033
     29 H142        5.9980   -1.3330    0.3510 h1        1 ANM      0.043033
     30 H143        7.2750   -0.0500    0.0270 h1        1 ANM      0.043033
     31 H151       -0.4490    0.4980    1.4130 hc        1 ANM      0.056700
     32 H152       -0.6140    1.4820   -0.1010 hc        1 ANM      0.056700
     33 H16        -0.5370   -0.6080   -1.4800 h1        1 ANM      0.050700
     34 HN1         0.0190   -2.4620   -0.4080 hn        1 ANM      0.365800
     35 HO4        -4.1150   -3.1910   -0.7090 ho        1 ANM      0.405000
     36 O2         -2.8850    0.5340    0.4930 os        1 ANM     -0.435900
     37 C5         -3.1970    1.7790    0.0130 c         1 ANM      0.636100
     38 C14         6.2440   -0.2450    0.4160 c3        1 ANM      0.114700
@<TRIPOS>BOND
     1    1    6 ar  
     2    1   10 ar  
     3    1   17 1   
     4    2    3 1   
     5    2   12 1   
     6    2   18 1   
     7    2   36 1   
     8    3    4 1   
     9    3   16 1   
    10    3   19 1   
    11    4   13 1   
    12    4   20 1   
    13    4   21 1   
    14    5   22 1   
    15    5   23 1   
    16    5   24 1   
    17    5   37 1   
    18    6    7 ar  
    19    6   14 1   
    20    7    8 ar  
    21    7   25 1   
    22    8    9 ar  
    23    8   26 1   
    24    9   10 ar  
    25    9   11 1   
    26   10   27 1   
    27   11   12 1   
    28   11   31 1   
    29   11   32 1   
    30   12   13 1   
    31   12   33 1   
    32   13   34 1   
    33   14   38 1   
    34   15   37 2   
    35   16   35 1   
    36   28   38 1   
    37   29   38 1   
    38   30   38 1   
    39   36   37 1   
@<TRIPOS>SUBSTRUCTURE
     1 ANM         1 TEMP              0 ****  ****    0 ROOT
