@<TRIPOS>MOLECULE
ANM
   38    35     1     0     0
SMALL
bcc


@<TRIPOS>ATOM
      1 C1          2.4520   -1.2690   -2.3930 c1        1 ANM     -0.205000
      2 C2         -1.2500    1.3050    1.2170 c3        1 ANM      0.024000
      3 C3         -1.7850    0.6890    2.6640 c3        1 ANM      0.004000
      4 C4         -2.5050   -0.3610    2.3740 c3        1 ANM     -0.110000
      5 C5         -0.2980    3.4850    1.3270 c1        1 ANM      0.308000
      6 C6          0.4540    4.4450    2.2250 c2        1 ANM     -0.219000
      7 C9          1.8490   -2.4820   -2.6420 c1        1 ANM      0.075000
      8 C10         0.7790   -2.9080   -1.8440 c1        1 ANM     -0.123000
      9 C11         0.3250   -2.1030   -0.7970 c1        1 ANM     -0.123000
     10 C12         0.9210   -0.9100   -0.5540 c1        1 ANM     -0.107000
     11 C13         2.0060   -0.4780   -1.3640 c1        1 ANM     -0.096000
     12 C14         1.8680   -3.1690   -4.9820 c3        1 ANM     -0.075000
     13 C15         0.4980   -0.0840    0.6380 c3        1 ANM     -0.105000
     14 C16        -0.9830    0.3170    0.4900 c3        1 ANM     -0.034000
     15 N1         -1.9630   -0.8710    1.0560 n3        1 ANM     -0.287000
     16 O1          2.4060   -3.3720   -3.6410 os        1 ANM     -0.212000
     17 O2         -0.0720    2.1000    1.4310 os        1 ANM     -0.274000
     18 O3         -1.1680    3.8960    0.6140 o         1 ANM     -0.350000
     19 O4         -2.5790    1.6540    3.3300 oh        1 ANM     -0.323000
     20 H1          3.1880   -0.9760   -2.9420 ha        1 ANM      0.135000
     21 H2         -1.9620    1.8590    0.7930 h1        1 ANM      0.146000
     22 H3         -1.0020    0.4240    3.2420 h1        1 ANM      0.104000
     23 H41        -2.3980   -1.0640    3.0850 h1        1 ANM      0.087500
     24 H42        -3.4180   -0.1170    2.2850 h1        1 ANM      0.087500
     25 H61        -0.2080    5.0250    2.7230 ha        1 ANM      0.117000
     26 H62         0.9770    3.9580    2.8470 ha        1 ANM      0.117000
     27 H63         1.0210    4.9930    1.6980 ha        1 ANM      0.117000
     28 H10         0.3690   -3.7310   -2.0130 ha        1 ANM      0.146500
     29 H11        -0.4360   -2.4040   -0.2290 ha        1 ANM      0.146500
     30 H13         2.4440    0.4010   -1.1840 ha        1 ANM      0.134000
     31 H141        0.8740   -3.0050   -4.9280 h1        1 ANM      0.082333
     32 H142        2.2920   -2.4200   -5.3810 h1        1 ANM      0.082333
     33 H143        2.0350   -3.9550   -5.5180 h1        1 ANM      0.082333
     34 H151        0.6190   -0.6270    1.4830 hc        1 ANM      0.097500
     35 H152        1.0740    0.7560    0.6900 hc        1 ANM      0.097500
     36 H16        -1.1890    0.5140   -0.4390 h1        1 ANM      0.086000
     37 HN1        -2.6360   -1.0000    0.4860 hn        1 ANM      0.163000
     38 HO4        -2.5990    1.4820    4.1550 ho        1 ANM      0.205000
@<TRIPOS>BOND
     1    1    7 1   
     2    1   20 1   
     3    2    3 1   
     4    2   14 1   
     5    2   17 1   
     6    2   21 1   
     7    3    4 1   
     8    3   19 1   
     9    3   22 1   
    10    4   15 1   
    11    4   23 1   
    12    4   24 1   
    13    5   17 1   
    14    5   18 1   
    15    6   25 1   
    16    6   26 1   
    17    6   27 1   
    18    7   16 1   
    19    8    9 1   
    20    8   28 1   
    21    9   29 1   
    22   10   11 1   
    23   10   13 1   
    24   11   30 1   
    25   12   16 1   
    26   12   31 1   
    27   12   32 1   
    28   12   33 1   
    29   13   14 1   
    30   13   34 1   
    31   13   35 1   
    32   14   15 1   
    33   14   36 1   
    34   15   37 1   
    35   19   38 1   
@<TRIPOS>SUBSTRUCTURE
     1 ANM         1 TEMP              0 ****  ****    0 ROOT
