@<TRIPOS>MOLECULE
ANM
   38    36     1     0     0
SMALL
bcc


@<TRIPOS>ATOM
      1 C1          1.2880   -0.3370    0.3150 c2        1 ANM     -0.171750
      2 C2         -3.5130   -0.3710    5.5700 cy        1 ANM     -0.033000
      3 C3         -0.8170   -2.6910    5.1970 c2        1 ANM     -0.116000
      4 C4          0.4190   -3.2400    5.1820 c2        1 ANM     -0.169000
      5 C6         -2.1950    1.1500    7.1140 c3        1 ANM     -0.263000
      6 C9          2.4910    0.0470    0.7530 c2        1 ANM     -0.171750
      7 C10         2.7520    0.4790    2.1480 c3        1 ANM     -0.104000
      8 C11         1.5500    0.4120    3.0180 c2        1 ANM     -0.171750
      9 C12         0.3470    0.0270    2.5810 c2        1 ANM     -0.171750
     10 C13         0.0810   -0.3740    1.1770 c3        1 ANM     -0.104000
     11 C15        -3.6520    0.4670    3.7300 cv        1 ANM     -0.037000
     12 C16        -4.6120    0.0380    4.5920 cv        1 ANM     -0.249000
     13 N1          1.5680   -2.6210    4.6830 n3        1 ANM     -0.305000
     14 O1          2.7500   -0.8010   -2.8150 o         1 ANM     -0.199000
     15 O3         -4.3470    0.2660    7.7070 o         1 ANM     -0.282000
     16 O4         -1.9000   -3.2650    5.8200 oh        1 ANM     -0.272000
     17 H1         -0.7020    0.3090    0.7410 hc        1 ANM      0.096500
     18 H2         -3.3450   -1.4700    5.6930 h1        1 ANM      0.176000
     19 H3         -1.1130   -1.7260    4.7520 h4        1 ANM      0.177000
     20 H41         2.1400   -3.2560    4.1660 hn        1 ANM      0.168500
     21 H42         0.6090   -4.2200    5.6600 h4        1 ANM      0.135000
     22 H61        -2.2010    1.6060    8.1330 hc        1 ANM      0.110333
     23 H62        -1.3030    0.4840    7.0080 hc        1 ANM      0.110333
     24 H63        -2.1200    1.9580    6.3450 hc        1 ANM      0.110333
     25 H10         3.1410    1.5360    2.1400 hc        1 ANM      0.096500
     26 H11         1.7110    0.7080    4.0670 ha        1 ANM      0.128000
     27 H13        -0.3520   -1.4130    1.1630 hc        1 ANM      0.096500
     28 H141        3.3660    0.0640    0.0810 ha        1 ANM      0.128000
     29 H142        3.5650   -0.1630    2.5900 hc        1 ANM      0.096500
     30 H143        1.1340   -0.6490   -0.7310 ha        1 ANM      0.128000
     31 H151       -3.4950    0.9000    2.7540 h4        1 ANM      0.188000
     32 H152       -0.5270   -0.0030    3.2560 ha        1 ANM      0.128000
     33 H16        -5.6850   -0.0290    4.6480 ha        1 ANM      0.178000
     34 HN1         1.3770   -1.7940    4.1470 hn        1 ANM      0.168500
     35 HO4        -1.6290   -4.1090    6.2070 ho        1 ANM      0.208000
     36 O2         -2.5400    0.1510    4.5560 os        1 ANM     -0.252000
     37 C5         -3.4360    0.3570    6.8790 c2        1 ANM      0.243000
     38 C14         3.7570   -0.4540   -2.3290 c1        1 ANM      0.199000
@<TRIPOS>BOND
     1    1    6 1   
     2    1   10 1   
     3    1   30 1   
     4    2   12 1   
     5    2   18 1   
     6    2   36 1   
     7    2   37 1   
     8    3    4 1   
     9    3   16 1   
    10    3   19 1   
    11    4   13 1   
    12    4   21 1   
    13    5   22 1   
    14    5   23 1   
    15    5   24 1   
    16    5   37 1   
    17    6    7 1   
    18    6   28 1   
    19    7    8 1   
    20    7   25 1   
    21    7   29 1   
    22    8    9 1   
    23    8   26 1   
    24    9   10 1   
    25    9   32 1   
    26   10   17 1   
    27   10   27 1   
    28   11   12 1   
    29   11   31 1   
    30   11   36 1   
    31   12   33 1   
    32   13   20 1   
    33   13   34 1   
    34   14   38 1   
    35   15   37 1   
    36   16   35 1   
@<TRIPOS>SUBSTRUCTURE
     1 ANM         1 TEMP              0 ****  ****    0 ROOT
