@<TRIPOS>MOLECULE
ANN
   18    18     1     0     0
SMALL
bcc


@<TRIPOS>ATOM
      1 C8         -0.0260    0.0010   -0.2160 c3        1 ANN      0.123700
      2 O3          1.3660    0.0020    0.0530 os        1 ANN     -0.346900
      3 C5          1.7200    0.0000    1.4000 ca        1 ANN      0.082100
      4 C6          3.1030   -0.0020    1.6450 ca        1 ANN     -0.205000
      5 C7          3.5540   -0.0040    2.9620 ca        1 ANN     -0.081000
      6 C2          2.6520   -0.0040    4.0310 ca        1 ANN     -0.149600
      7 C3          1.2810   -0.0010    3.7670 ca        1 ANN     -0.081000
      8 C4          0.8020    0.0010    2.4550 ca        1 ANN     -0.205000
      9 C1          3.1580   -0.0060    5.4650 c         1 ANN      0.909200
     10 O1          2.3030   -0.0050    6.3960 o         1 ANN     -0.834300
     11 O2          4.4080   -0.0080    5.6520 o         1 ANN     -0.834300
     12 H81        -0.5130    0.9170    0.2000 h1        1 ANN      0.028367
     13 H82        -0.5120   -0.9150    0.2000 h1        1 ANN      0.028367
     14 H83        -0.0840    0.0010   -1.3340 h1        1 ANN      0.028367
     15 H6          3.8030   -0.0020    0.8000 ha        1 ANN      0.116500
     16 H7          4.6320   -0.0060    3.1900 ha        1 ANN      0.152000
     17 H3          0.5850   -0.0010    4.6210 ha        1 ANN      0.152000
     18 H4         -0.2790    0.0020    2.2690 ha        1 ANN      0.116500
@<TRIPOS>BOND
     1    1    2 1   
     2    1   12 1   
     3    1   13 1   
     4    1   14 1   
     5    2    3 1   
     6    3    4 ar  
     7    3    8 ar  
     8    4    5 ar  
     9    4   15 1   
    10    5    6 ar  
    11    5   16 1   
    12    6    7 ar  
    13    6    9 1   
    14    7    8 ar  
    15    7   17 1   
    16    8   18 1   
    17    9   10 1   
    18    9   11 1   
@<TRIPOS>SUBSTRUCTURE
     1 ANN         1 TEMP              0 ****  ****    0 ROOT
