@<TRIPOS>MOLECULE
ANN
   18    16     1     0     0
SMALL
bcc


@<TRIPOS>ATOM
      1 C8         -1.7070    0.8070   -2.5850 c3        1 ANN     -0.065000
      2 O3         -0.8350   -0.2950   -2.2850 os        1 ANN     -0.239000
      3 C5         -0.2870   -0.2500   -0.9930 c2        1 ANN      0.009000
      4 C6          0.9460    0.4080   -0.7730 c2        1 ANN     -0.166000
      5 C7          1.5390    0.3810    0.4940 c1        1 ANN     -0.099000
      6 C2          0.9040   -0.3060    1.5590 c1        1 ANN     -0.110000
      7 C3         -0.3180   -0.9570    1.3430 c1        1 ANN     -0.096000
      8 C4         -0.9170   -0.9300    0.0620 c1        1 ANN     -0.186000
      9 C1          1.5400   -0.3220    2.9430 c2        1 ANN      0.357000
     10 O1          2.3930   -1.2190    3.2400 o         1 ANN     -0.566500
     11 O2          1.1960    0.5370    3.8070 o         1 ANN     -0.566500
     12 H81        -2.5300    0.7360   -2.0330 h1        1 ANN      0.064333
     13 H82        -1.9470    0.7840   -3.5380 h1        1 ANN      0.064333
     14 H83        -1.2430    1.6610   -2.3810 h1        1 ANN      0.064333
     15 H6          1.3920    0.8900   -1.5170 ha        1 ANN      0.119000
     16 H7          2.4030    0.8410    0.6460 ha        1 ANN      0.153000
     17 H3         -0.7590   -1.4340    2.0850 ha        1 ANN      0.153000
     18 H4         -1.7700   -1.3320   -0.0720 ha        1 ANN      0.113000
@<TRIPOS>BOND
     1    1    2 1   
     2    1   12 1   
     3    1   13 1   
     4    1   14 1   
     5    2    3 1   
     6    3    4 1   
     7    3    8 1   
     8    4    5 1   
     9    4   15 1   
    10    5   16 1   
    11    6    7 1   
    12    6    9 1   
    13    7   17 1   
    14    8   18 1   
    15    9   10 1   
    16    9   11 1   
@<TRIPOS>SUBSTRUCTURE
     1 ANN         1 TEMP              0 ****  ****    0 ROOT
