@<TRIPOS>MOLECULE
ANN
   18    18     1     0     0
SMALL
bcc


@<TRIPOS>ATOM
      1 C8          0.8100   -0.0010    3.8510 c3        1 ANN      0.123700
      2 O3         -0.3770   -0.0010    3.0760 os        1 ANN     -0.346900
      3 C5         -0.1960   -0.0000    1.6950 ca        1 ANN      0.082100
      4 C6         -1.3840   -0.0000    0.9460 ca        1 ANN     -0.205000
      5 C7         -1.3040   -0.0000   -0.4440 ca        1 ANN     -0.081000
      6 C2         -0.0650    0.0000   -1.0930 ca        1 ANN     -0.149600
      7 C3          1.1040    0.0000   -0.3310 ca        1 ANN     -0.081000
      8 C4          1.0520    0.0000    1.0640 ca        1 ANN     -0.205000
      9 C1          0.0070    0.0010   -2.6120 c         1 ANN      0.909200
     10 O1          1.1510    0.0010   -3.1510 o         1 ANN     -0.834300
     11 O2         -1.0790    0.0010   -3.2580 o         1 ANN     -0.834300
     12 H81         0.4420   -0.0010    4.9080 h1        1 ANN      0.028367
     13 H82         1.4180   -0.9160    3.6490 h1        1 ANN      0.028367
     14 H83         1.4180    0.9150    3.6490 h1        1 ANN      0.028367
     15 H6         -2.3510   -0.0010    1.4630 ha        1 ANN      0.116500
     16 H7         -2.2170   -0.0000   -1.0630 ha        1 ANN      0.152000
     17 H3          2.0720    0.0010   -0.8590 ha        1 ANN      0.152000
     18 H4          1.9830    0.0000    1.6450 ha        1 ANN      0.116500
@<TRIPOS>BOND
     1    1    2 1   
     2    1   12 1   
     3    1   13 1   
     4    1   14 1   
     5    2    3 1   
     6    3    4 ar  
     7    3    8 ar  
     8    4    5 ar  
     9    4   15 1   
    10    5    6 ar  
    11    5   16 1   
    12    6    7 ar  
    13    6    9 1   
    14    7    8 ar  
    15    7   17 1   
    16    8   18 1   
    17    9   10 1   
    18    9   11 1   
@<TRIPOS>SUBSTRUCTURE
     1 ANN         1 TEMP              0 ****  ****    0 ROOT
