@<TRIPOS>MOLECULE
ANO
   49    52     1     0     0
SMALL
bcc


@<TRIPOS>ATOM
      1 C1          1.3910   -0.8120    2.6400 c3        1 ANO     -0.070400
      2 C2          1.6180    0.6040    3.1140 c3        1 ANO     -0.182400
      3 C3          0.3850    1.1580    3.7650 c         1 ANO      0.571100
      4 O3          0.4170    1.7480    4.8490 o         1 ANO     -0.532100
      5 C4         -0.8850    0.9810    2.9870 c3        1 ANO     -0.181400
      6 C5         -1.0690   -0.4350    2.4580 c3        1 ANO     -0.046700
      7 C6         -2.3130   -0.4970    1.5830 c3        1 ANO     -0.074400
      8 C7         -2.1260    0.1910    0.2490 c3        1 ANO     -0.074400
      9 C8         -0.9080   -0.3440   -0.4850 c3        1 ANO     -0.046700
     10 C9          0.3530   -0.2300    0.3900 c3        1 ANO     -0.046700
     11 C10         0.1730   -0.9780    1.7220 c3        1 ANO     -0.039000
     12 C11         1.6120   -0.6550   -0.3610 c3        1 ANO     -0.075400
     13 C12         1.7760   -0.0080   -1.7280 c3        1 ANO     -0.056400
     14 C13         0.5170   -0.1790   -2.5560 c3        1 ANO     -0.152000
     15 C14        -0.6520    0.4400   -1.7550 c3        1 ANO     -0.064700
     16 C15        -1.7630    0.6230   -2.7830 c3        1 ANO     -0.072400
     17 C16        -1.0230    0.9950   -4.0710 c3        1 ANO     -0.188400
     18 C17         0.4270    0.6000   -3.8650 c         1 ANO      0.577100
     19 O17         1.3530    0.8570   -4.6290 o         1 ANO     -0.518100
     20 C18         0.3110   -1.6430   -2.9240 c3        1 ANO     -0.083100
     21 C19        -0.0000   -2.4800    1.5050 c3        1 ANO     -0.089100
     22 H11         1.2420   -1.4720    3.5380 hc        1 ANO      0.049200
     23 H12         2.3100   -1.1800    2.1150 hc        1 ANO      0.049200
     24 H21         2.4760    0.6270    3.8370 hc        1 ANO      0.070200
     25 H22         1.8880    1.2680    2.2490 hc        1 ANO      0.070200
     26 H41        -1.7640    1.2460    3.6350 hc        1 ANO      0.070700
     27 H42        -0.8630    1.7150    2.1370 hc        1 ANO      0.070700
     28 H5         -1.2430   -1.1050    3.3500 hc        1 ANO      0.052700
     29 H61        -2.5830   -1.5730    1.4130 hc        1 ANO      0.044700
     30 H62        -3.1700   -0.0210    2.1280 hc        1 ANO      0.044700
     31 H71        -3.0370    0.0300   -0.3870 hc        1 ANO      0.041700
     32 H72        -2.0200    1.2980    0.3990 hc        1 ANO      0.041700
     33 H8         -1.0940   -1.4220   -0.7450 hc        1 ANO      0.057700
     34 H9          0.4760    0.8640    0.6430 hc        1 ANO      0.044700
     35 H111        2.5090   -0.3760    0.2550 hc        1 ANO      0.043700
     36 H112        1.6210   -1.7700   -0.4780 hc        1 ANO      0.043700
     37 H121        1.9990    1.0840   -1.6100 hc        1 ANO      0.051700
     38 H122        2.6470   -0.4730   -2.2590 hc        1 ANO      0.051700
     39 H14        -0.3320    1.4790   -1.4430 hc        1 ANO      0.050700
     40 H151       -2.3480   -0.3210   -2.9150 hc        1 ANO      0.049700
     41 H152       -2.4730    1.4270   -2.4730 hc        1 ANO      0.049700
     42 H161       -1.4400    0.4540   -4.9560 hc        1 ANO      0.075200
     43 H162       -1.0880    2.0930   -4.2740 hc        1 ANO      0.075200
     44 H181        0.3310   -2.2940   -2.0180 hc        1 ANO      0.043700
     45 H182       -0.6710   -1.7820   -3.4380 hc        1 ANO      0.043700
     46 H183        1.1280   -1.9710   -3.6120 hc        1 ANO      0.043700
     47 H191       -0.2420   -2.9820    2.4740 hc        1 ANO      0.037700
     48 H192       -0.8250   -2.6970    0.7870 hc        1 ANO      0.037700
     49 H193        0.9430   -2.9270    1.1090 hc        1 ANO      0.037700
@<TRIPOS>BOND
     1    1    2 1   
     2    1   11 1   
     3    1   22 1   
     4    1   23 1   
     5    2    3 1   
     6    2   24 1   
     7    2   25 1   
     8    3    4 2   
     9    3    5 1   
    10    5    6 1   
    11    5   26 1   
    12    5   27 1   
    13    6    7 1   
    14    6   11 1   
    15    6   28 1   
    16    7    8 1   
    17    7   29 1   
    18    7   30 1   
    19    8    9 1   
    20    8   31 1   
    21    8   32 1   
    22    9   10 1   
    23    9   15 1   
    24    9   33 1   
    25   10   11 1   
    26   10   12 1   
    27   10   34 1   
    28   11   21 1   
    29   12   13 1   
    30   12   35 1   
    31   12   36 1   
    32   13   14 1   
    33   13   37 1   
    34   13   38 1   
    35   14   15 1   
    36   14   18 1   
    37   14   20 1   
    38   15   16 1   
    39   15   39 1   
    40   16   17 1   
    41   16   40 1   
    42   16   41 1   
    43   17   18 1   
    44   17   42 1   
    45   17   43 1   
    46   18   19 2   
    47   20   44 1   
    48   20   45 1   
    49   20   46 1   
    50   21   47 1   
    51   21   48 1   
    52   21   49 1   
@<TRIPOS>SUBSTRUCTURE
     1 ANO         1 TEMP              0 ****  ****    0 ROOT
