@<TRIPOS>MOLECULE
ANO
   49    52     1     0     0
SMALL
bcc


@<TRIPOS>ATOM
      1 C1          2.3530    0.3970    1.1140 c3        1 ANO     -0.010400
      2 C2          2.8900   -0.4140    2.2730 c3        1 ANO     -0.091400
      3 C3          1.4410   -0.1250    1.8060 c         1 ANO      0.107100
      4 O3          1.2460    0.3210    0.6850 o         1 ANO     -0.111100
      5 C4          0.2980   -0.1240    2.8320 c3        1 ANO     -0.130400
      6 C5          0.3330   -0.9130    1.8070 c3        1 ANO     -0.101700
      7 C6         -1.5440   -1.4810    1.3280 c3        1 ANO     -0.130400
      8 C7         -0.7660   -1.1490    1.4920 c3        1 ANO      0.008600
      9 C8         -0.8110    0.6450    0.6020 c3        1 ANO     -0.036700
     10 C9          0.0980    0.8330    0.2250 c3        1 ANO      0.008300
     11 C10         0.9720   -0.2160    0.6580 c3        1 ANO     -0.322000
     12 C11        -0.0590    0.8120   -1.6140 c3        1 ANO     -0.062400
     13 C12        -1.7900    2.0830   -2.3170 c3        1 ANO     -0.065400
     14 C13        -1.0070    1.2450   -1.7750 c3        1 ANO     -0.227000
     15 C14        -1.7290    0.6240   -0.5130 c3        1 ANO     -0.028700
     16 C15        -2.0890   -0.7350   -0.8290 c3        1 ANO     -0.079400
     17 C16        -0.5920   -1.6580   -2.0610 c3        1 ANO     -0.184400
     18 C17        -0.7310    0.1540   -2.7110 c         1 ANO      0.601100
     19 O17        -0.6860    0.3770   -3.9140 o         1 ANO     -0.530100
     20 C18         0.3200    1.9440   -1.3510 c3        1 ANO     -0.094100
     21 C19         1.2010   -1.2150   -0.4950 c3        1 ANO     -0.037100
     22 H11         2.9930    0.3640    0.3630 hc        1 ANO      0.079200
     23 H12         2.2220    1.3340    1.3970 hc        1 ANO      0.079200
     24 H21         3.3130   -0.0640    3.0920 hc        1 ANO      0.060700
     25 H22         3.2640   -1.2980    2.0600 hc        1 ANO      0.060700
     26 H41        -0.3940    0.5670    2.9470 hc        1 ANO      0.074700
     27 H42         0.5160   -0.5050    3.7180 hc        1 ANO      0.074700
     28 H5          0.8670   -1.7180    2.0360 hc        1 ANO      0.072700
     29 H61        -1.6640   -1.5030    0.3760 hc        1 ANO      0.035700
     30 H62        -2.2170   -0.8820    1.7350 hc        1 ANO      0.035700
     31 H71        -0.6300   -1.0490    2.4650 hc        1 ANO      0.043200
     32 H72        -0.0590   -1.7130    1.0980 hc        1 ANO      0.043200
     33 H8         -1.0690    1.3470    1.2500 hc        1 ANO      0.040700
     34 H9          0.4280    1.7140    0.5370 hc        1 ANO      0.046700
     35 H111        0.7800    1.1580   -2.0150 hc        1 ANO      0.046200
     36 H112       -0.1990   -0.1110   -1.9120 hc        1 ANO      0.046200
     37 H121       -2.4720    1.5610   -2.7970 hc        1 ANO      0.086200
     38 H122       -2.2050    2.5930   -1.5870 hc        1 ANO      0.086200
     39 H14        -2.5380    1.1460   -0.2950 hc        1 ANO      0.058700
     40 H151       -2.9510   -0.7380   -1.3100 hc        1 ANO      0.052200
     41 H152       -2.1800   -1.2350   -0.0150 hc        1 ANO      0.052200
     42 H161        0.2280   -2.0390   -1.6930 hc        1 ANO      0.074200
     43 H162       -0.9380   -2.3360   -2.6880 hc        1 ANO      0.074200
     44 H181        0.9350    1.2790   -0.9760 hc        1 ANO      0.033033
     45 H182        0.7370    2.3700   -2.1440 hc        1 ANO      0.033033
     46 H183        0.1260    2.6340   -0.6710 hc        1 ANO      0.033033
     47 H191        1.3440   -0.7210   -1.3330 hc        1 ANO      0.032367
     48 H192        0.4170   -1.7940   -0.5860 hc        1 ANO      0.032367
     49 H193        1.9980   -1.7670   -0.2990 hc        1 ANO      0.032367
@<TRIPOS>BOND
     1    1    2 1   
     2    1   11 1   
     3    1   22 1   
     4    1   23 1   
     5    2    3 1   
     6    2   24 1   
     7    2   25 1   
     8    3    4 2   
     9    3    5 1   
    10    5    6 1   
    11    5   26 1   
    12    5   27 1   
    13    6    7 1   
    14    6   11 1   
    15    6   28 1   
    16    7    8 1   
    17    7   29 1   
    18    7   30 1   
    19    8    9 1   
    20    8   31 1   
    21    8   32 1   
    22    9   10 1   
    23    9   15 1   
    24    9   33 1   
    25   10   11 1   
    26   10   12 1   
    27   10   34 1   
    28   11   21 1   
    29   12   13 1   
    30   12   35 1   
    31   12   36 1   
    32   13   14 1   
    33   13   37 1   
    34   13   38 1   
    35   14   15 1   
    36   14   18 1   
    37   14   20 1   
    38   15   16 1   
    39   15   39 1   
    40   16   17 1   
    41   16   40 1   
    42   16   41 1   
    43   17   18 1   
    44   17   42 1   
    45   17   43 1   
    46   18   19 2   
    47   20   44 1   
    48   20   45 1   
    49   20   46 1   
    50   21   47 1   
    51   21   48 1   
    52   21   49 1   
@<TRIPOS>SUBSTRUCTURE
     1 ANO         1 TEMP              0 ****  ****    0 ROOT
