@<TRIPOS>MOLECULE
ANO
   49    52     1     0     0
SMALL
bcc


@<TRIPOS>ATOM
      1 C1          0.1240   -0.0140    0.0150 c3        1 ANO     -0.070400
      2 C2          1.6260   -0.1280    0.1230 c3        1 ANO     -0.182400
      3 C3          2.0600   -0.1810    1.5580 c         1 ANO      0.571100
      4 O3          2.8700   -1.0140    1.9760 o         1 ANO     -0.532100
      5 C4          1.4730    0.8780    2.4440 c3        1 ANO     -0.181400
      6 C5         -0.0330    1.0290    2.2770 c3        1 ANO     -0.046700
      7 C6         -0.5270    2.1990    3.1160 c3        1 ANO     -0.074400
      8 C7         -0.1270    3.5400    2.5440 c3        1 ANO     -0.074400
      9 C8         -0.5650    3.6780    1.0960 c3        1 ANO     -0.046700
     10 C9         -0.0170    2.5170    0.2450 c3        1 ANO     -0.046700
     11 C10        -0.4740    1.1580    0.8040 c3        1 ANO     -0.039000
     12 C11        -0.3450    2.6870   -1.2350 c3        1 ANO     -0.075400
     13 C12         0.0030    4.0560   -1.8020 c3        1 ANO     -0.056400
     14 C13        -0.5880    5.1570   -0.9440 c3        1 ANO     -0.152000
     15 C14        -0.0450    4.9660    0.4920 c3        1 ANO     -0.064700
     16 C15        -0.3130    6.3000    1.1800 c3        1 ANO     -0.072400
     17 C16        -0.0980    7.3400    0.0760 c3        1 ANO     -0.188400
     18 C17        -0.1490    6.5880   -1.2400 c         1 ANO      0.577100
     19 O17         0.1070    7.0620   -2.3430 o         1 ANO     -0.518100
     20 C18        -2.1080    5.1560   -1.0390 c3        1 ANO     -0.083100
     21 C19        -1.9910    0.9990    0.7280 c3        1 ANO     -0.089100
     22 H11        -0.1650    0.0730   -1.0640 hc        1 ANO      0.049200
     23 H12        -0.3380   -0.9640    0.4010 hc        1 ANO      0.049200
     24 H21         2.1230    0.7540   -0.3630 hc        1 ANO      0.070200
     25 H22         1.9750   -1.0500   -0.4150 hc        1 ANO      0.070200
     26 H41         1.6990    0.6380    3.5180 hc        1 ANO      0.070700
     27 H42         1.9920    1.8440    2.2010 hc        1 ANO      0.070700
     28 H5         -0.5100    0.0900    2.6820 hc        1 ANO      0.052700
     29 H61        -1.6450    2.1440    3.1920 hc        1 ANO      0.044700
     30 H62        -0.1170    2.1030    4.1570 hc        1 ANO      0.044700
     31 H71        -0.5980    4.3610    3.1480 hc        1 ANO      0.041700
     32 H72         0.9840    3.6730    2.6170 hc        1 ANO      0.041700
     33 H8         -1.6880    3.6770    1.0610 hc        1 ANO      0.057700
     34 H9          1.1080    2.5480    0.3380 hc        1 ANO      0.044700
     35 H111        0.2310    1.9210   -1.8210 hc        1 ANO      0.043700
     36 H112       -1.4350    2.4860   -1.4050 hc        1 ANO      0.043700
     37 H121        1.1170    4.1770   -1.8510 hc        1 ANO      0.051700
     38 H122       -0.3900    4.1360   -2.8490 hc        1 ANO      0.051700
     39 H14         1.0790    4.8660    0.4160 hc        1 ANO      0.050700
     40 H151       -1.3580    6.3460    1.5760 hc        1 ANO      0.049700
     41 H152        0.3860    6.4620    2.0360 hc        1 ANO      0.049700
     42 H161        0.8940    7.8450    0.1820 hc        1 ANO      0.075200
     43 H162       -0.8910    8.1270    0.0920 hc        1 ANO      0.075200
     44 H181       -2.4140    5.4340   -2.0770 hc        1 ANO      0.043700
     45 H182       -2.5450    5.8940   -0.3240 hc        1 ANO      0.043700
     46 H183       -2.5260    4.1480   -0.8070 hc        1 ANO      0.043700
     47 H191       -2.5170    1.8510    1.2160 hc        1 ANO      0.037700
     48 H192       -2.3220    0.9400   -0.3370 hc        1 ANO      0.037700
     49 H193       -2.3030    0.0570    1.2420 hc        1 ANO      0.037700
@<TRIPOS>BOND
     1    1    2 1   
     2    1   11 1   
     3    1   22 1   
     4    1   23 1   
     5    2    3 1   
     6    2   24 1   
     7    2   25 1   
     8    3    4 2   
     9    3    5 1   
    10    5    6 1   
    11    5   26 1   
    12    5   27 1   
    13    6    7 1   
    14    6   11 1   
    15    6   28 1   
    16    7    8 1   
    17    7   29 1   
    18    7   30 1   
    19    8    9 1   
    20    8   31 1   
    21    8   32 1   
    22    9   10 1   
    23    9   15 1   
    24    9   33 1   
    25   10   11 1   
    26   10   12 1   
    27   10   34 1   
    28   11   21 1   
    29   12   13 1   
    30   12   35 1   
    31   12   36 1   
    32   13   14 1   
    33   13   37 1   
    34   13   38 1   
    35   14   15 1   
    36   14   18 1   
    37   14   20 1   
    38   15   16 1   
    39   15   39 1   
    40   16   17 1   
    41   16   40 1   
    42   16   41 1   
    43   17   18 1   
    44   17   42 1   
    45   17   43 1   
    46   18   19 2   
    47   20   44 1   
    48   20   45 1   
    49   20   46 1   
    50   21   47 1   
    51   21   48 1   
    52   21   49 1   
@<TRIPOS>SUBSTRUCTURE
     1 ANO         1 TEMP              0 ****  ****    0 ROOT
