@<TRIPOS>MOLECULE
ANO
   49    52     1     0     0
SMALL
bcc


@<TRIPOS>ATOM
      1 C1          0.1060   -0.0240    0.0460 c3        1 ANO     -0.070400
      2 C2          1.6080   -0.1440    0.1490 c3        1 ANO     -0.182400
      3 C3          2.0470   -0.1840    1.5840 c         1 ANO      0.571100
      4 O3          2.8550   -1.0170    2.0060 o         1 ANO     -0.532100
      5 C4          1.4680    0.8860    2.4610 c3        1 ANO     -0.181400
      6 C5         -0.0370    1.0420    2.2970 c3        1 ANO     -0.046700
      7 C6         -0.5230    2.2220    3.1270 c3        1 ANO     -0.074400
      8 C7         -0.1210    3.5560    2.5390 c3        1 ANO     -0.074400
      9 C8         -0.5630    3.6810    1.0920 c3        1 ANO     -0.046700
     10 C9         -0.0240    2.5090    0.2510 c3        1 ANO     -0.046700
     11 C10        -0.4840    1.1580    0.8260 c3        1 ANO     -0.039000
     12 C11        -0.3560    2.6660   -1.2300 c3        1 ANO     -0.075400
     13 C12        -0.0050    4.0270   -1.8120 c3        1 ANO     -0.056400
     14 C13        -0.5880    5.1390   -0.9620 c3        1 ANO     -0.152000
     15 C14        -0.0410    4.9610    0.4730 c3        1 ANO     -0.064700
     16 C15        -0.3000    6.3030    1.1490 c3        1 ANO     -0.072400
     17 C16        -0.0850    7.3300    0.0330 c3        1 ANO     -0.188400
     18 C17        -0.1450    6.5650   -1.2750 c         1 ANO      0.577100
     19 O17         0.1100    7.0270   -2.3840 o         1 ANO     -0.518100
     20 C18        -2.1080    5.1430   -1.0520 c3        1 ANO     -0.083100
     21 C19        -2.0020    1.0040    0.7560 c3        1 ANO     -0.089100
     22 H11        -0.1870    0.0530   -1.0330 hc        1 ANO      0.049200
     23 H12        -0.3580   -0.9690    0.4430 hc        1 ANO      0.049200
     24 H21         2.1070    0.7310   -0.3470 hc        1 ANO      0.070200
     25 H22         1.9510   -1.0720   -0.3810 hc        1 ANO      0.070200
     26 H41         1.6970    0.6560    3.5360 hc        1 ANO      0.070700
     27 H42         1.9900    1.8480    2.2060 hc        1 ANO      0.070700
     28 H5         -0.5170    0.1090    2.7140 hc        1 ANO      0.052700
     29 H61        -1.6420    2.1730    3.2070 hc        1 ANO      0.044700
     30 H62        -0.1110    2.1350    4.1670 hc        1 ANO      0.044700
     31 H71        -0.5850    4.3850    3.1370 hc        1 ANO      0.041700
     32 H72         0.9920    3.6850    2.6070 hc        1 ANO      0.041700
     33 H8         -1.6870    3.6850    1.0610 hc        1 ANO      0.057700
     34 H9          1.1020    2.5360    0.3390 hc        1 ANO      0.044700
     35 H111       -1.4470    2.4670   -1.3930 hc        1 ANO      0.043700
     36 H112        0.2140    1.8920   -1.8100 hc        1 ANO      0.043700
     37 H121       -0.4020    4.0990   -2.8580 hc        1 ANO      0.051700
     38 H122        1.1090    4.1430   -1.8660 hc        1 ANO      0.051700
     39 H14         1.0830    4.8560    0.3940 hc        1 ANO      0.050700
     40 H151       -1.3430    6.3570    1.5480 hc        1 ANO      0.049700
     41 H152        0.4030    6.4710    2.0000 hc        1 ANO      0.049700
     42 H161       -0.8750    8.1210    0.0450 hc        1 ANO      0.075200
     43 H162        0.9090    7.8330    0.1310 hc        1 ANO      0.075200
     44 H181       -2.5300    4.1400   -0.8080 hc        1 ANO      0.043700
     45 H182       -2.5400    5.8900   -0.3430 hc        1 ANO      0.043700
     46 H183       -2.4180    5.4120   -2.0920 hc        1 ANO      0.043700
     47 H191       -2.3160    0.0690    1.2810 hc        1 ANO      0.037700
     48 H192       -2.3380    0.9360   -0.3060 hc        1 ANO      0.037700
     49 H193       -2.5220    1.8640    1.2380 hc        1 ANO      0.037700
@<TRIPOS>BOND
     1    1    2 1   
     2    1   11 1   
     3    1   22 1   
     4    1   23 1   
     5    2    3 1   
     6    2   24 1   
     7    2   25 1   
     8    3    4 2   
     9    3    5 1   
    10    5    6 1   
    11    5   26 1   
    12    5   27 1   
    13    6    7 1   
    14    6   11 1   
    15    6   28 1   
    16    7    8 1   
    17    7   29 1   
    18    7   30 1   
    19    8    9 1   
    20    8   31 1   
    21    8   32 1   
    22    9   10 1   
    23    9   15 1   
    24    9   33 1   
    25   10   11 1   
    26   10   12 1   
    27   10   34 1   
    28   11   21 1   
    29   12   13 1   
    30   12   35 1   
    31   12   36 1   
    32   13   14 1   
    33   13   37 1   
    34   13   38 1   
    35   14   15 1   
    36   14   18 1   
    37   14   20 1   
    38   15   16 1   
    39   15   39 1   
    40   16   17 1   
    41   16   40 1   
    42   16   41 1   
    43   17   18 1   
    44   17   42 1   
    45   17   43 1   
    46   18   19 2   
    47   20   44 1   
    48   20   45 1   
    49   20   46 1   
    50   21   47 1   
    51   21   48 1   
    52   21   49 1   
@<TRIPOS>SUBSTRUCTURE
     1 ANO         1 TEMP              0 ****  ****    0 ROOT
