@<TRIPOS>MOLECULE
ANP
   45    46     1     0     0
SMALL
bcc


@<TRIPOS>ATOM
      1 PG         -0.7600    1.0310   -1.4610 p4        1 ANP      1.528300
      2 O1G         0.2750    0.1610   -2.0580 o         1 ANP     -0.828833
      3 O2G        -0.4210    1.8480   -0.2780 o         1 ANP     -0.828833
      4 O3G        -1.9430    1.3900   -2.2710 o         1 ANP     -0.877633
      5 PB         -2.6510   -2.0700    0.3500 p5        1 ANP      1.557700
      6 O1B        -3.8480   -1.4400    0.9590 o         1 ANP     -0.873500
      7 O2B        -1.5900   -2.6780    1.1900 o         1 ANP     -0.873500
      8 N3B        -2.0330   -1.1670   -0.8390 n8        1 ANP     -1.099900
      9 PA         -3.9990   -4.6970   -1.0950 p5        1 ANP      1.626800
     10 O1A        -4.8460   -4.4970   -2.3040 o         1 ANP     -0.920000
     11 O2A        -4.5290   -5.7130   -0.1370 o         1 ANP     -0.920000
     12 O3A        -3.3240   -3.4220   -0.4890 os        1 ANP     -0.815800
     13 O5'        -2.7110   -5.5240   -1.8190 os        1 ANP     -0.577200
     14 C5'        -2.5790   -6.8720   -1.5820 c3        1 ANP      0.211400
     15 C4'        -3.2620   -7.7310   -2.6740 c3        1 ANP      0.061100
     16 O4'        -3.1480   -9.1240   -2.3000 os        1 ANP     -0.430600
     17 C3'        -4.7630   -7.4240   -2.8670 c3        1 ANP      0.082100
     18 O3'        -5.0080   -6.8330   -4.1220 oh        1 ANP     -0.653800
     19 C2'        -5.4840   -8.7780   -2.7620 c3        1 ANP      0.110100
     20 O2'        -5.8160   -9.3770   -3.9980 oh        1 ANP     -0.616800
     21 C1'        -4.4320   -9.6870   -2.0420 c3        1 ANP      0.221800
     22 N9         -4.6830   -9.8280   -0.6180 na        1 ANP     -0.275000
     23 C8         -4.8670   -8.8190    0.3700 cc        1 ANP      0.470700
     24 N7         -5.0420   -9.3200    1.6060 nd        1 ANP     -0.587100
     25 C5         -4.9520  -10.7110    1.4670 ca        1 ANP     -0.192200
     26 C6         -5.0280  -11.7840    2.4040 ca        1 ANP      0.684200
     27 N6         -5.3450  -11.5190    3.7400 nv        1 ANP     -0.924500
     28 N1         -4.8510  -13.0720    1.9650 nb        1 ANP     -0.804000
     29 C2         -4.6480  -13.2470    0.6290 ca        1 ANP      0.631900
     30 N3         -4.5670  -12.3430   -0.3700 nb        1 ANP     -0.717000
     31 C4         -4.7110  -11.0530    0.0630 ca        1 ANP      0.428800
     32 HNB1       -1.2080   -1.4640   -1.3050 hn        1 ANP      0.412300
     33 H5'1       -2.9970   -7.1540   -0.5760 h1        1 ANP      0.023700
     34 H5'2       -1.4820   -7.1300   -1.6070 h1        1 ANP      0.023700
     35 H4'        -2.7130   -7.6350   -3.6460 h1        1 ANP      0.061700
     36 H3'        -5.1120   -6.7330   -2.0340 h1        1 ANP      0.143700
     37 HO3'       -5.0150   -5.8660   -3.9560 ho        1 ANP      0.492000
     38 H2'        -6.4460   -8.6970   -2.1920 h1        1 ANP      0.080700
     39 HO2'       -5.3290   -8.9080   -4.6880 ho        1 ANP      0.425000
     40 H1'        -4.4080  -10.7200   -2.4980 h2        1 ANP      0.096700
     41 H8         -4.8500   -7.7130    0.1320 h5        1 ANP      0.197800
     42 HN61       -5.0270  -12.1900    4.4010 hn        1 ANP      0.404800
     43 HN62       -5.1880  -10.5710    4.0060 hn        1 ANP      0.404800
     44 H2         -4.5220  -14.3050    0.3200 h5        1 ANP      0.021100
     45 H3B2       -2.6400   -0.6790   -1.4530 hn        1 ANP      0.412300
@<TRIPOS>BOND
     1    1    2 1   
     2    1    3 1   
     3    1    4 2   
     4    5    6 1   
     5    5    7 1   
     6    5    8 1   
     7    5   12 1   
     8    8   32 1   
     9    8   45 1   
    10    9   10 1   
    11    9   11 1   
    12    9   12 1   
    13    9   13 1   
    14   13   14 1   
    15   14   15 1   
    16   14   33 1   
    17   14   34 1   
    18   15   16 1   
    19   15   17 1   
    20   15   35 1   
    21   16   21 1   
    22   17   18 1   
    23   17   19 1   
    24   17   36 1   
    25   18   37 1   
    26   19   20 1   
    27   19   21 1   
    28   19   38 1   
    29   20   39 1   
    30   21   22 1   
    31   21   40 1   
    32   22   23 1   
    33   22   31 1   
    34   23   24 2   
    35   23   41 1   
    36   24   25 1   
    37   25   26 ar  
    38   25   31 ar  
    39   26   27 1   
    40   26   28 ar  
    41   27   42 1   
    42   27   43 1   
    43   28   29 ar  
    44   29   30 ar  
    45   29   44 1   
    46   30   31 ar  
@<TRIPOS>SUBSTRUCTURE
     1 ANP         1 TEMP              0 ****  ****    0 ROOT
