@<TRIPOS>MOLECULE
ANQ
   20    18     1     0     0
SMALL
bcc


@<TRIPOS>ATOM
      1 O1         -3.5040   -0.5540   -0.7030 o         1 ANQ     -0.220000
      2 C1         -2.2890   -0.5540   -0.7030 c1        1 ANQ      0.236000
      3 C81        -1.3990   -0.5540    0.5220 c1        1 ANQ     -0.161000
      4 C8         -1.6460    0.2060    1.6650 c1        1 ANQ     -0.032000
      5 C82        -0.0140   -0.6930    0.0740 c2        1 ANQ     -0.012000
      6 C21        -0.0060   -0.7600   -1.3630 c2        1 ANQ     -0.161000
      7 C2         -1.4500   -0.6890   -1.8500 c2        1 ANQ      0.236000
      8 O2         -1.8250   -0.8390   -2.9960 o         1 ANQ     -0.220000
      9 C3          1.1290   -0.3090   -2.0370 c1        1 ANQ     -0.032000
     10 C51         1.0300   -0.2360    0.7930 c1        1 ANQ     -0.052000
     11 C6          0.7740    0.5400    1.9600 c1        1 ANQ     -0.112500
     12 C7         -0.5680    0.7590    2.3930 c1        1 ANQ     -0.112500
     13 C5          2.1850    0.2220    0.1080 c2        1 ANQ     -0.077000
     14 C4          2.2310    0.1840   -1.3080 c1        1 ANQ     -0.148000
     15 H8         -2.5640    0.3570    1.9630 ha        1 ANQ      0.153000
     16 H3          1.1610   -0.3350   -3.0120 ha        1 ANQ      0.153000
     17 H6          1.5180    0.9220    2.4640 ha        1 ANQ      0.140500
     18 H7         -0.7410    1.2850    3.1970 ha        1 ANQ      0.140500
     19 H5          2.9480    0.5640    0.6120 ha        1 ANQ      0.140000
     20 H4          3.0320    0.4850   -1.7790 ha        1 ANQ      0.141000
@<TRIPOS>BOND
     1    1    2 1   
     2    2    7 1   
     3    3    4 1   
     4    3    5 1   
     5    4   15 1   
     6    5    6 1   
     7    5   10 1   
     8    6    7 1   
     9    6    9 1   
    10    7    8 1   
    11    9   16 1   
    12   10   13 1   
    13   11   12 1   
    14   11   17 1   
    15   12   18 1   
    16   13   14 1   
    17   13   19 1   
    18   14   20 1   
@<TRIPOS>SUBSTRUCTURE
     1 ANQ         1 TEMP              0 ****  ****    0 ROOT
