@<TRIPOS>MOLECULE
ANQ
   20    22     1     0     0
SMALL
bcc


@<TRIPOS>ATOM
      1 O1         -1.4820   -0.0000   -2.8030 o         1 ANQ     -0.220000
      2 C1         -0.7740    0.0000   -1.8040 c         1 ANQ      0.236000
      3 C81        -1.1910    0.0000   -0.3810 ca        1 ANQ     -0.161000
      4 C8         -2.4060   -0.0000    0.2540 ca        1 ANQ     -0.032000
      5 C82         0.0000    0.0000    0.4100 ca        1 ANQ     -0.012000
      6 C21         1.1910    0.0000   -0.3810 ca        1 ANQ     -0.161000
      7 C2          0.7740    0.0000   -1.8040 c         1 ANQ      0.236000
      8 O2          1.4820    0.0000   -2.8030 o         1 ANQ     -0.220000
      9 C3          2.4060    0.0000    0.2540 ca        1 ANQ     -0.032000
     10 C51         0.0000    0.0000    1.8080 ca        1 ANQ     -0.052000
     11 C6         -1.2780    0.0000    2.4370 ca        1 ANQ     -0.077000
     12 C7         -2.4280   -0.0000    1.6780 ca        1 ANQ     -0.148000
     13 C5          1.2780   -0.0000    2.4370 ca        1 ANQ     -0.077000
     14 C4          2.4280   -0.0000    1.6780 ca        1 ANQ     -0.148000
     15 H8         -3.3520   -0.0010   -0.3070 ha        1 ANQ      0.153000
     16 H3          3.3520    0.0000   -0.3070 ha        1 ANQ      0.153000
     17 H6         -1.3290    0.0000    3.5370 ha        1 ANQ      0.140000
     18 H7         -3.4100   -0.0000    2.1770 ha        1 ANQ      0.141000
     19 H5          1.3290   -0.0000    3.5370 ha        1 ANQ      0.140000
     20 H4          3.4100   -0.0000    2.1770 ha        1 ANQ      0.141000
@<TRIPOS>BOND
     1    1    2 2   
     2    2    3 1   
     3    2    7 1   
     4    3    4 ar  
     5    3    5 ar  
     6    4   12 ar  
     7    4   15 1   
     8    5    6 ar  
     9    5   10 ar  
    10    6    7 1   
    11    6    9 ar  
    12    7    8 2   
    13    9   14 ar  
    14    9   16 1   
    15   10   11 ar  
    16   10   13 ar  
    17   11   12 ar  
    18   11   17 1   
    19   12   18 1   
    20   13   14 ar  
    21   13   19 1   
    22   14   20 1   
@<TRIPOS>SUBSTRUCTURE
     1 ANQ         1 TEMP              0 ****  ****    0 ROOT
