@<TRIPOS>MOLECULE
ANR
   48    42     1     0     0
SMALL
bcc


@<TRIPOS>ATOM
      1 C15        -6.5190    1.4030   -1.2690 c1        1 ANR     -0.146750
      2 C14        -5.2770    1.8730   -1.4660 c1        1 ANR     -0.146750
      3 C13        -4.4150    2.2800   -0.2690 c1        1 ANR     -0.074000
      4 C20        -4.8060    3.4800    0.5770 c3        1 ANR     -0.183000
      5 C12        -3.2620    1.5430    0.0480 c1        1 ANR     -0.129000
      6 C11        -2.8630    0.3220   -0.8130 c1        1 ANR     -0.146750
      7 C10        -1.9270   -0.5840   -0.3400 c1        1 ANR     -0.146750
      8 C9         -1.2960   -0.3820    1.0150 c1        1 ANR     -0.074000
      9 C19        -2.1510   -0.2690    2.2210 c3        1 ANR     -0.183000
     10 C8          0.0540   -0.3040    1.1310 c1        1 ANR     -0.129000
     11 C7          0.9260   -0.4170   -0.0990 c1        1 ANR     -0.136000
     12 C6          2.2520   -0.8480    0.0200 c1        1 ANR     -0.043000
     13 C1          3.1450   -0.9640   -1.2060 c2        1 ANR     -0.019000
     14 C17         3.6690    0.4180   -1.6180 c3        1 ANR     -0.203500
     15 C18         2.3330   -1.3320   -2.4360 c3        1 ANR     -0.203500
     16 C2          4.2330   -1.9180   -1.0240 c3        1 ANR     -0.147000
     17 C3          5.1230   -1.7370    0.1620 c3        1 ANR     -0.131000
     18 C4          4.3500   -1.6720    1.4780 c2        1 ANR     -0.158000
     19 C5          2.8530   -1.2190    1.4230 c2        1 ANR     -0.075000
     20 C16         2.1090   -0.8120    2.7310 c3        1 ANR     -0.179000
     21 H151       -6.8720    1.3190   -0.3620 DU        1 ANR      0.113000
     22 H152       -7.0630    1.1450   -2.0250 ha        1 ANR      0.121250
     23 H14        -4.9230    1.9570   -2.3740 ha        1 ANR      0.121250
     24 H201       -5.5340    3.9720    0.1310 hc        1 ANR      0.083333
     25 H202       -5.1110    3.1720    1.4620 hc        1 ANR      0.083333
     26 H203       -4.0320    4.0700    0.6860 hc        1 ANR      0.083333
     27 H12        -2.7070    1.8050    0.8180 ha        1 ANR      0.129000
     28 H11        -3.2760    0.1880   -1.7010 ha        1 ANR      0.121250
     29 H10        -1.6790   -1.3470   -0.8790 ha        1 ANR      0.121250
     30 H191       -1.9040   -0.9800    2.8690 hc        1 ANR      0.083333
     31 H192       -2.0210    0.5950    2.6270 hc        1 ANR      0.083333
     32 H193       -3.0940   -0.3720    1.9650 hc        1 ANR      0.083333
     33 H8          0.4600   -0.1730    2.0050 ha        1 ANR      0.129000
     34 H7          0.5690   -0.1910   -0.9650 ha        1 ANR      0.127000
     35 H171        4.2980    0.3210   -2.4080 hc        1 ANR      0.075833
     36 H172        2.9180    0.9880   -1.8690 hc        1 ANR      0.075833
     37 H173        4.1260    0.8040   -0.9020 hc        1 ANR      0.075833
     38 H181        1.8250   -2.1510   -2.2610 hc        1 ANR      0.075833
     39 H182        1.7060   -0.5920   -2.6530 hc        1 ANR      0.075833
     40 H183        2.9400   -1.4790   -3.1930 hc        1 ANR      0.075833
     41 H21         4.8030   -1.8860   -1.8390 hc        1 ANR      0.083500
     42 H22         3.8350   -2.8210   -0.9660 hc        1 ANR      0.083500
     43 H31         5.8210   -2.4160    0.1070 hc        1 ANR      0.089000
     44 H32         5.6590   -0.9220    0.1010 hc        1 ANR      0.089000
     45 H4          4.8280   -1.6890    2.3310 ha        1 ANR      0.125000
     46 H161        2.7150   -0.9470    3.5150 hc        1 ANR      0.082333
     47 H162        1.8510    0.1240    2.6780 hc        1 ANR      0.082333
     48 H163        1.3270   -1.3540    2.8350 hc        1 ANR      0.082333
@<TRIPOS>BOND
     1    1    2 1   
     2    1   22 1   
     3    2   23 1   
     4    3    4 1   
     5    3    5 1   
     6    4   24 1   
     7    4   25 1   
     8    4   26 1   
     9    5   27 1   
    10    6    7 1   
    11    6   28 1   
    12    7   29 1   
    13    8    9 1   
    14    8   10 1   
    15    9   30 1   
    16    9   31 1   
    17    9   32 1   
    18   10   33 1   
    19   11   12 1   
    20   11   34 1   
    21   12   19 1   
    22   13   14 1   
    23   13   15 1   
    24   13   16 1   
    25   14   35 1   
    26   14   36 1   
    27   14   37 1   
    28   15   38 1   
    29   15   39 1   
    30   15   40 1   
    31   16   17 1   
    32   16   41 1   
    33   16   42 1   
    34   17   18 1   
    35   17   43 1   
    36   17   44 1   
    37   18   19 1   
    38   18   45 1   
    39   19   20 1   
    40   20   46 1   
    41   20   47 1   
    42   20   48 1   
@<TRIPOS>SUBSTRUCTURE
     1 ANR         1 TEMP              0 ****  ****    0 ROOT
