@<TRIPOS>MOLECULE
ANR
   48    49     1     0     0
SMALL
bcc


@<TRIPOS>ATOM
      1 C15         3.9590    1.5710    0.1840 c2        1 ANR     -0.213000
      2 C14         4.1900    0.7340    1.1960 ce        1 ANR     -0.124000
      3 C13         3.1700    0.2230    2.1050 ce        1 ANR     -0.019200
      4 C20         1.7770    0.7140    1.9370 c3        1 ANR     -0.057900
      5 C12         3.4770   -0.6530    3.0500 cu        1 ANR     -0.173400
      6 C11         3.0400   -1.4820    4.1730 cx        1 ANR     -0.082200
      7 C10         4.4900   -1.4890    3.7170 cx        1 ANR     -0.045300
      8 C9          5.5570   -0.8970    4.5460 c2        1 ANR     -0.082400
      9 C19         5.3280   -0.8830    6.0100 c3        1 ANR     -0.058900
     10 C8          6.6810   -0.4300    3.9680 ce        1 ANR     -0.132000
     11 C7          7.7660    0.1990    4.6880 ce        1 ANR     -0.134000
     12 C6          9.0940    0.0670    4.4790 cf        1 ANR     -0.045200
     13 C1          9.6850   -0.8640    3.4440 c3        1 ANR     -0.008800
     14 C17         9.5370   -0.2390    2.0590 c3        1 ANR     -0.085600
     15 C18         8.9900   -2.2250    3.4620 c3        1 ANR     -0.085600
     16 C2         11.1720   -1.1440    3.7040 c3        1 ANR     -0.069400
     17 C3         11.9810    0.1110    3.9440 c3        1 ANR     -0.048200
     18 C4         11.3480    0.9350    4.9940 c2        1 ANR     -0.158200
     19 C5         10.0280    0.8910    5.2590 cf        1 ANR     -0.083200
     20 C16         9.4810    1.7240    6.3640 c3        1 ANR     -0.058900
     21 H151        2.9610    1.9590   -0.0600 ha        1 ANR      0.112500
     22 H152        4.7670    1.9250   -0.4690 ha        1 ANR      0.112500
     23 H14         5.2150    0.3740    1.4020 ha        1 ANR      0.125000
     24 H201        1.3940    0.4410    0.9220 hc        1 ANR      0.044367
     25 H202        1.0970    0.2710    2.7040 hc        1 ANR      0.044367
     26 H203        1.7490    1.8280    2.0370 hc        1 ANR      0.044367
     27 H12         2.4180   -2.3760    3.9800 hc        1 ANR      0.077200
     28 H11         2.7800   -0.9960    5.1320 hc        1 ANR      0.077200
     29 H10         4.8460   -2.3890    3.1670 hc        1 ANR      0.088700
     30 H191        4.7110    0.0090    6.2900 hc        1 ANR      0.044367
     31 H192        4.7780   -1.8030    6.3310 hc        1 ANR      0.044367
     32 H193        6.2920   -0.8340    6.5730 hc        1 ANR      0.044367
     33 H8          6.7820   -0.4740    2.8680 ha        1 ANR      0.127000
     34 H7          7.4070    0.8830    5.4820 ha        1 ANR      0.125000
     35 H171        8.4650   -0.0300    1.8310 hc        1 ANR      0.036700
     36 H172       10.1020    0.7210    2.0030 hc        1 ANR      0.036700
     37 H173        9.9350   -0.9370    1.2840 hc        1 ANR      0.036700
     38 H181        9.6110   -2.9760    2.9150 hc        1 ANR      0.036700
     39 H182        7.9940   -2.1800    2.9640 hc        1 ANR      0.036700
     40 H183        8.8510   -2.5740    4.5120 hc        1 ANR      0.036700
     41 H21        11.2590   -1.8120    4.6010 hc        1 ANR      0.043700
     42 H22        11.5940   -1.6990    2.8250 hc        1 ANR      0.043700
     43 H31        12.0660    0.7100    2.9970 hc        1 ANR      0.049700
     44 H32        13.0240   -0.1700    4.2510 hc        1 ANR      0.049700
     45 H4         12.0200    1.5940    5.5660 ha        1 ANR      0.123000
     46 H161       10.3000    2.2400    6.9230 hc        1 ANR      0.041700
     47 H162        8.7920    2.5070    5.9610 hc        1 ANR      0.041700
     48 H163        8.9150    1.0880    7.0890 hc        1 ANR      0.041700
@<TRIPOS>BOND
     1    1    2 2   
     2    1   21 1   
     3    1   22 1   
     4    2    3 1   
     5    2   23 1   
     6    3    4 1   
     7    3    5 2   
     8    4   24 1   
     9    4   25 1   
    10    4   26 1   
    11    5    6 1   
    12    5    7 1   
    13    6    7 1   
    14    6   27 1   
    15    6   28 1   
    16    7    8 1   
    17    7   29 1   
    18    8    9 1   
    19    8   10 2   
    20    9   30 1   
    21    9   31 1   
    22    9   32 1   
    23   10   11 1   
    24   10   33 1   
    25   11   12 2   
    26   11   34 1   
    27   12   13 1   
    28   12   19 1   
    29   13   14 1   
    30   13   15 1   
    31   13   16 1   
    32   14   35 1   
    33   14   36 1   
    34   14   37 1   
    35   15   38 1   
    36   15   39 1   
    37   15   40 1   
    38   16   17 1   
    39   16   41 1   
    40   16   42 1   
    41   17   18 1   
    42   17   43 1   
    43   17   44 1   
    44   18   19 2   
    45   18   45 1   
    46   19   20 1   
    47   20   46 1   
    48   20   47 1   
    49   20   48 1   
@<TRIPOS>SUBSTRUCTURE
     1 ANR         1 TEMP              0 ****  ****    0 ROOT
