@<TRIPOS>MOLECULE
ANR
   48    49     1     0     0
SMALL
bcc


@<TRIPOS>ATOM
      1 C15         4.9470   -0.0190   -0.2490 c2        1 ANR     -0.212000
      2 C14         4.8200   -0.3850    1.0270 ce        1 ANR     -0.129000
      3 C13         3.7280    0.0200    1.9060 ce        1 ANR     -0.021200
      4 C20         2.7110    0.9580    1.3640 c3        1 ANR     -0.057900
      5 C12         3.6440   -0.4360    3.1470 cu        1 ANR     -0.175400
      6 C11         2.9130   -0.4590    4.4130 cx        1 ANR     -0.081200
      7 C10         4.1750   -1.2880    4.2210 cx        1 ANR     -0.043300
      8 C9          5.4020   -0.9540    4.9680 c2        1 ANR     -0.092400
      9 C19         5.4510   -1.5210    6.3380 c3        1 ANR     -0.056900
     10 C8          6.3930   -0.2310    4.4150 ce        1 ANR     -0.125000
     11 C7          7.6020    0.1720    5.1010 ce        1 ANR     -0.135000
     12 C6          8.8730    0.1300    4.6460 cf        1 ANR     -0.046200
     13 C1          9.2550   -0.4390    3.2990 c3        1 ANR     -0.008800
     14 C17         8.9230    0.5790    2.2110 c3        1 ANR     -0.086100
     15 C18         8.5100   -1.7420    3.0140 c3        1 ANR     -0.086100
     16 C2         10.7500   -0.7790    3.2220 c3        1 ANR     -0.069400
     17 C3         11.6400    0.3520    3.6870 c3        1 ANR     -0.048200
     18 C4         11.2120    0.8290    5.0180 c2        1 ANR     -0.159200
     19 C5          9.9490    0.7010    5.4680 cf        1 ANR     -0.083200
     20 C16         9.6160    1.1730    6.8390 c3        1 ANR     -0.058900
     21 H151        4.2280    0.6340   -0.7620 ha        1 ANR      0.113500
     22 H152        5.7900   -0.3560   -0.8660 ha        1 ANR      0.113500
     23 H14         5.5730   -1.0460    1.4960 ha        1 ANR      0.126000
     24 H201        1.9430    1.2110    2.1350 hc        1 ANR      0.044700
     25 H202        3.2020    1.9050    1.0270 hc        1 ANR      0.044700
     26 H203        2.1930    0.4970    0.4850 hc        1 ANR      0.044700
     27 H12         1.9380   -0.9780    4.4700 hc        1 ANR      0.077700
     28 H11         2.9500    0.4260    5.0750 hc        1 ANR      0.077700
     29 H10         4.0510   -2.3890    4.1100 hc        1 ANR      0.088700
     30 H191        6.3170   -1.1220    6.9200 hc        1 ANR      0.043033
     31 H192        5.5480   -2.6350    6.2850 hc        1 ANR      0.043033
     32 H193        4.5080   -1.2780    6.8890 hc        1 ANR      0.043033
     33 H8          6.2750    0.1400    3.3780 ha        1 ANR      0.136000
     34 H7          7.3990    0.5900    6.1070 ha        1 ANR      0.125000
     35 H171        9.1910    0.1650    1.2090 hc        1 ANR      0.037033
     36 H172        7.8330    0.8180    2.2160 hc        1 ANR      0.037033
     37 H173        9.4930    1.5240    2.3740 hc        1 ANR      0.037033
     38 H181        9.0020   -2.2860    2.1710 hc        1 ANR      0.037033
     39 H182        7.4510   -1.5470    2.7200 hc        1 ANR      0.037033
     40 H183        8.5180   -2.3980    3.9150 hc        1 ANR      0.037033
     41 H21        10.9450   -1.6830    3.8580 hc        1 ANR      0.043200
     42 H22        11.0070   -1.0460    2.1640 hc        1 ANR      0.043200
     43 H31        11.6050    1.2040    2.9540 hc        1 ANR      0.049200
     44 H32        12.7050   -0.0030    3.7290 hc        1 ANR      0.049200
     45 H4         11.9910    1.2980    5.6390 ha        1 ANR      0.123000
     46 H161       10.5310    1.5170    7.3810 hc        1 ANR      0.041367
     47 H162        8.8980    2.0310    6.7940 hc        1 ANR      0.041367
     48 H163        9.1510    0.3480    7.4340 hc        1 ANR      0.041367
@<TRIPOS>BOND
     1    1    2 2   
     2    1   21 1   
     3    1   22 1   
     4    2    3 1   
     5    2   23 1   
     6    3    4 1   
     7    3    5 2   
     8    4   24 1   
     9    4   25 1   
    10    4   26 1   
    11    5    6 1   
    12    5    7 1   
    13    6    7 1   
    14    6   27 1   
    15    6   28 1   
    16    7    8 1   
    17    7   29 1   
    18    8    9 1   
    19    8   10 2   
    20    9   30 1   
    21    9   31 1   
    22    9   32 1   
    23   10   11 1   
    24   10   33 1   
    25   11   12 2   
    26   11   34 1   
    27   12   13 1   
    28   12   19 1   
    29   13   14 1   
    30   13   15 1   
    31   13   16 1   
    32   14   35 1   
    33   14   36 1   
    34   14   37 1   
    35   15   38 1   
    36   15   39 1   
    37   15   40 1   
    38   16   17 1   
    39   16   41 1   
    40   16   42 1   
    41   17   18 1   
    42   17   43 1   
    43   17   44 1   
    44   18   19 2   
    45   18   45 1   
    46   19   20 1   
    47   20   46 1   
    48   20   47 1   
    49   20   48 1   
@<TRIPOS>SUBSTRUCTURE
     1 ANR         1 TEMP              0 ****  ****    0 ROOT
