@<TRIPOS>MOLECULE
ANR
   48    48     1     0     0
SMALL
bcc


@<TRIPOS>ATOM
      1 C15         7.9440    0.8970    0.0640 c2        1 ANR     -0.211000
      2 C14         6.6940    0.9860   -0.3950 ce        1 ANR     -0.132000
      3 C13         5.6070    0.0760   -0.0490 ce        1 ANR     -0.071200
      4 C20         5.9820   -1.1820    0.6400 c3        1 ANR     -0.060900
      5 C12         4.3370    0.4200   -0.3600 cf        1 ANR     -0.129000
      6 C11         3.1530   -0.3500   -0.0640 cf        1 ANR     -0.129000
      7 C10         1.9260    0.0420   -0.4580 ce        1 ANR     -0.121000
      8 C9          0.6960   -0.6860   -0.1910 ce        1 ANR     -0.081200
      9 C19         0.7990   -1.9470    0.5830 c3        1 ANR     -0.060900
     10 C8         -0.4810   -0.1910   -0.6380 cf        1 ANR     -0.117000
     11 C7         -1.7590   -0.8510   -0.5040 cf        1 ANR     -0.141000
     12 C6         -2.9530   -0.2990   -0.1890 ce        1 ANR     -0.040200
     13 C1         -3.1270    1.1610    0.1630 c3        1 ANR     -0.010800
     14 C17        -3.1130    1.9930   -1.1170 c3        1 ANR     -0.086100
     15 C18        -2.0140    1.6450    1.0910 c3        1 ANR     -0.086100
     16 C2         -4.4440    1.4180    0.9090 c3        1 ANR     -0.069400
     17 C3         -5.6440    0.8020    0.2260 c3        1 ANR     -0.049200
     18 C4         -5.3970   -0.6250   -0.0620 c2        1 ANR     -0.156200
     19 C5         -4.1610   -1.1350   -0.2240 ce        1 ANR     -0.085200
     20 C16        -4.0040   -2.5940   -0.4710 c3        1 ANR     -0.058900
     21 H151        8.7200    1.6170   -0.2280 ha        1 ANR      0.113000
     22 H152        8.2770    0.1130    0.7570 ha        1 ANR      0.113000
     23 H14         6.4180    1.8050   -1.0850 ha        1 ANR      0.121000
     24 H201        6.2080   -0.9730    1.7160 hc        1 ANR      0.044033
     25 H202        5.1690   -1.9460    0.5930 hc        1 ANR      0.044033
     26 H203        6.8960   -1.6250    0.1700 hc        1 ANR      0.044033
     27 H12         4.1580    1.3770   -0.8850 ha        1 ANR      0.121000
     28 H11         3.2850   -1.2810    0.5120 ha        1 ANR      0.127000
     29 H10         1.8060    0.9800   -1.0320 ha        1 ANR      0.121000
     30 H191        1.2650   -1.7480    1.5810 hc        1 ANR      0.044033
     31 H192       -0.2020   -2.4120    0.7560 hc        1 ANR      0.044033
     32 H193        1.4410   -2.6830    0.0360 hc        1 ANR      0.044033
     33 H8         -0.4890    0.7630   -1.1970 ha        1 ANR      0.127000
     34 H7         -1.7060   -1.9340   -0.7290 ha        1 ANR      0.127000
     35 H171       -3.9630    1.7020   -1.7790 hc        1 ANR      0.037367
     36 H172       -3.2070    3.0770   -0.8660 hc        1 ANR      0.037367
     37 H173       -2.1610    1.8390   -1.6770 hc        1 ANR      0.037367
     38 H181       -1.0670    1.8280    0.5310 hc        1 ANR      0.037367
     39 H182       -2.3130    2.6070    1.5750 hc        1 ANR      0.037367
     40 H183       -1.8190    0.8900    1.8890 hc        1 ANR      0.037367
     41 H21        -4.3560    0.9960    1.9450 hc        1 ANR      0.044200
     42 H22        -4.5940    2.5250    1.0050 hc        1 ANR      0.044200
     43 H31        -6.5460    0.9120    0.8860 hc        1 ANR      0.049700
     44 H32        -5.8700    1.3440   -0.7330 hc        1 ANR      0.049700
     45 H4         -6.2890   -1.2670   -0.1340 ha        1 ANR      0.123000
     46 H161       -3.3190   -3.0470    0.2880 hc        1 ANR      0.041700
     47 H162       -4.9880   -3.1210   -0.4080 hc        1 ANR      0.041700
     48 H163       -3.5800   -2.7750   -1.4900 hc        1 ANR      0.041700
@<TRIPOS>BOND
     1    1    2 2   
     2    1   21 1   
     3    1   22 1   
     4    2    3 1   
     5    2   23 1   
     6    3    4 1   
     7    3    5 2   
     8    4   24 1   
     9    4   25 1   
    10    4   26 1   
    11    5    6 1   
    12    5   27 1   
    13    6    7 2   
    14    6   28 1   
    15    7    8 1   
    16    7   29 1   
    17    8    9 1   
    18    8   10 2   
    19    9   30 1   
    20    9   31 1   
    21    9   32 1   
    22   10   11 1   
    23   10   33 1   
    24   11   12 2   
    25   11   34 1   
    26   12   13 1   
    27   12   19 1   
    28   13   14 1   
    29   13   15 1   
    30   13   16 1   
    31   14   35 1   
    32   14   36 1   
    33   14   37 1   
    34   15   38 1   
    35   15   39 1   
    36   15   40 1   
    37   16   17 1   
    38   16   41 1   
    39   16   42 1   
    40   17   18 1   
    41   17   43 1   
    42   17   44 1   
    43   18   19 2   
    44   18   45 1   
    45   19   20 1   
    46   20   46 1   
    47   20   47 1   
    48   20   48 1   
@<TRIPOS>SUBSTRUCTURE
     1 ANR         1 TEMP              0 ****  ****    0 ROOT
