@<TRIPOS>MOLECULE
ANS
   29    30     1     0     0
SMALL
bcc


@<TRIPOS>ATOM
      1 C1         -0.0490    0.0040   -0.0330 ca        1 ANS     -0.236500
      2 C2          1.3250   -0.0400   -0.0040 ca        1 ANS     -0.063000
      3 C3          2.0340   -0.0680    1.2180 ca        1 ANS     -0.157000
      4 C4          1.3570   -0.0500    2.4120 ca        1 ANS     -0.106000
      5 C4A        -0.0640   -0.0040    2.4340 ca        1 ANS     -0.036000
      6 C5         -0.8100    0.0170    3.6640 ca        1 ANS      0.074600
      7 C6         -2.1960    0.0620    3.6230 ca        1 ANS     -0.166000
      8 C7         -2.8810    0.0870    2.3900 ca        1 ANS     -0.154000
      9 C8         -2.1890    0.0690    1.2070 ca        1 ANS     -0.083000
     10 C8A        -0.7650    0.0230    1.1970 ca        1 ANS      0.039000
     11 N          -0.0920   -0.0110    4.9150 nh        1 ANS     -0.625000
     12 CM1        -0.2600    1.2050    5.6810 c3        1 ANS      0.164100
     13 CM2        -0.3570   -1.2070    5.6850 c3        1 ANS      0.164100
     14 S          -0.8590    0.0360   -1.6300 s6        1 ANS      1.454100
     15 O1S         0.2020    0.0040   -2.5640 o         1 ANS     -0.743200
     16 O2S        -1.6790   -1.1150   -1.6510 o         1 ANS     -0.743200
     17 O3S        -1.6000    1.2400   -1.6430 o         1 ANS     -0.743200
     18 H2          1.8870   -0.0550   -0.9560 ha        1 ANS      0.157000
     19 H3          3.1330   -0.1030    1.2000 ha        1 ANS      0.110000
     20 H4          1.9140   -0.0710    3.3600 ha        1 ANS      0.128000
     21 H6         -2.7850    0.0780    4.5520 ha        1 ANS      0.110000
     22 H7         -3.9800    0.1230    2.3940 ha        1 ANS      0.119000
     23 H8         -2.7190    0.0890    0.2360 ha        1 ANS      0.175000
     24 HM11       -1.3050    1.3480    6.0710 h1        1 ANS      0.026200
     25 HM12        0.4440    1.1740    6.5540 h1        1 ANS      0.026200
     26 HM13        0.0010    2.0800    5.0310 h1        1 ANS      0.026200
     27 HM21       -1.4100   -1.2620    6.0790 h1        1 ANS      0.026200
     28 HM22        0.3480   -1.2320    6.5560 h1        1 ANS      0.026200
     29 HM23       -0.1720   -2.1030    5.0370 h1        1 ANS      0.026200
@<TRIPOS>BOND
     1    1    2 ar  
     2    1   10 ar  
     3    1   14 1   
     4    2    3 ar  
     5    2   18 1   
     6    3    4 ar  
     7    3   19 1   
     8    4    5 ar  
     9    4   20 1   
    10    5    6 ar  
    11    5   10 ar  
    12    6    7 ar  
    13    6   11 1   
    14    7    8 ar  
    15    7   21 1   
    16    8    9 ar  
    17    8   22 1   
    18    9   10 ar  
    19    9   23 1   
    20   11   12 1   
    21   11   13 1   
    22   12   24 1   
    23   12   25 1   
    24   12   26 1   
    25   13   27 1   
    26   13   28 1   
    27   13   29 1   
    28   14   15 1   
    29   14   16 1   
    30   14   17 1   
@<TRIPOS>SUBSTRUCTURE
     1 ANS         1 TEMP              0 ****  ****    0 ROOT
