@<TRIPOS>MOLECULE
ANS
   29    24     1     0     0
SMALL
bcc


@<TRIPOS>ATOM
      1 C1          0.4530    0.0760   -2.4900 c1        1 ANS     -0.220400
      2 C2          1.8400    0.0300   -2.4500 c1        1 ANS     -0.005500
      3 C3          2.4990   -0.0020   -1.2290 c1        1 ANS     -0.091000
      4 C4          1.7700    0.0110   -0.0440 c1        1 ANS     -0.091000
      5 C4A         0.3680    0.0560   -0.0830 cg        1 ANS     -0.048000
      6 C5         -0.3720    0.0240    1.1160 c1        1 ANS      0.068800
      7 C6         -1.7630    0.0240    1.0750 c1        1 ANS     -0.091000
      8 C7         -2.4230    0.0570   -0.1460 c1        1 ANS     -0.091000
      9 C8         -1.6930    0.0890   -1.3310 c1        1 ANS     -0.034500
     10 C8A        -0.2850    0.0890   -1.2920 cg        1 ANS      0.045000
     11 N          -0.0790   -0.0670    2.5150 n3        1 ANS     -0.607200
     12 CM1         0.3110   -1.3350    3.0910 c3        1 ANS      0.169600
     13 CM2        -0.1890    1.1100    3.3570 c3        1 ANS      0.169600
     14 S          -0.1800    0.1030   -4.1830 s4        1 ANS      1.625200
     15 O1S        -1.1050    1.2810   -4.4060 o         1 ANS     -0.674400
     16 O2S         0.9220    0.4040   -5.1770 o         1 ANS     -0.674400
     17 O3S        -0.8700   -1.2050   -4.5060 os        1 ANS     -1.064000
     18 H2          2.3500    0.0210   -3.2770 ha        1 ANS      0.099500
     19 H3          3.4780   -0.1140   -1.2020 ha        1 ANS      0.058000
     20 H4          2.2330   -0.0130    0.8150 ha        1 ANS      0.058000
     21 H6         -2.2740    0.0010    1.9020 ha        1 ANS      0.058000
     22 H7         -3.4030    0.0570   -0.1740 ha        1 ANS      0.058000
     23 H8         -2.1530    0.0430   -2.1840 ha        1 ANS      0.117500
     24 HM11       -0.3210   -1.5770    3.8040 h1        1 ANS      0.027533
     25 HM12        1.2200   -1.2600    3.4690 h1        1 ANS      0.027533
     26 HM13        0.3020   -2.0310    2.3920 h1        1 ANS      0.027533
     27 HM21       -0.0550    1.9190    2.8090 h1        1 ANS      0.027533
     28 HM22        0.4960    1.0740    4.0620 h1        1 ANS      0.027533
     29 HM23       -1.0780    1.1380    3.7670 h1        1 ANS      0.027533
@<TRIPOS>BOND
     1    1    2 3   
     2    1   14 1   
     3    2   18 1   
     4    3    4 3   
     5    3   19 1   
     6    4   20 1   
     7    5    6 3   
     8    5   10 1   
     9    6   11 1   
    10    7    8 3   
    11    7   21 1   
    12    8   22 1   
    13    9   10 3   
    14    9   23 1   
    15   11   12 1   
    16   11   13 1   
    17   12   24 1   
    18   12   25 1   
    19   12   26 1   
    20   13   27 1   
    21   13   28 1   
    22   13   29 1   
    23   14   15 1   
    24   14   16 1   
@<TRIPOS>SUBSTRUCTURE
     1 ANS         1 TEMP              0 ****  ****    0 ROOT
