@<TRIPOS>MOLECULE
ANS
   30    31     1     0     0
SMALL
bcc


@<TRIPOS>ATOM
      1 C1         -0.0260    0.0090   -0.0410 ca        1 ANS     -0.160500
      2 C2          1.3460   -0.0290   -0.0540 ca        1 ANS     -0.074000
      3 C3          2.0780   -0.0530    1.1520 ca        1 ANS     -0.073000
      4 C4          1.4280   -0.0390    2.3660 ca        1 ANS     -0.200000
      5 C4A         0.0100    0.0000    2.4260 ca        1 ANS     -0.020000
      6 C5         -0.7470    0.0170    3.6420 ca        1 ANS     -0.095400
      7 C6         -2.1370    0.0560    3.6350 ca        1 ANS     -0.079000
      8 C7         -2.8290    0.0790    2.4160 ca        1 ANS     -0.171000
      9 C8         -2.1390    0.0640    1.2230 ca        1 ANS      0.002000
     10 C8A        -0.7190    0.0240    1.1980 ca        1 ANS      0.027000
     11 N          -0.0450   -0.0060    4.9400 n4        1 ANS     -0.538800
     12 CM1        -0.3230    1.2260    5.7220 c3        1 ANS      0.090100
     13 CM2        -0.3910   -1.2260    5.7150 c3        1 ANS      0.090100
     14 S          -0.9130    0.0390   -1.6600 s6        1 ANS      1.459100
     15 O1S        -1.6470    1.2330   -1.5770 o         1 ANS     -0.725200
     16 O2S         0.1310    0.0130   -2.5900 o         1 ANS     -0.725200
     17 O3S        -1.7120   -1.1130   -1.5840 o         1 ANS     -0.725200
     18 H2          1.8830   -0.0410   -1.0220 ha        1 ANS      0.183000
     19 H3          3.1790   -0.0840    1.1150 ha        1 ANS      0.133000
     20 H4          2.0500   -0.0590    3.2720 ha        1 ANS      0.090000
     21 H6         -2.7200    0.0700    4.5700 ha        1 ANS      0.125000
     22 H7         -3.9290    0.1100    2.4250 ha        1 ANS      0.155000
     23 H8         -2.6850    0.0820    0.2550 ha        1 ANS      0.208000
     24 HM11       -0.0420    2.1210    5.1030 hx        1 ANS      0.095367
     25 HM12       -1.4160    1.2800    5.9670 hx        1 ANS      0.095367
     26 HM13        0.2790    1.2070    6.6680 hx        1 ANS      0.095367
     27 HM21       -0.1610   -2.1310    5.0900 hx        1 ANS      0.095367
     28 HM22       -1.4860   -1.2190    5.9600 hx        1 ANS      0.095367
     29 HM23        0.2100   -1.2460    6.6610 hx        1 ANS      0.095367
     30 HN1         0.9670   -0.0340    4.7520 hn        1 ANS      0.452800
@<TRIPOS>BOND
     1    1    2 ar  
     2    1   10 ar  
     3    1   14 1   
     4    2    3 ar  
     5    2   18 1   
     6    3    4 ar  
     7    3   19 1   
     8    4    5 ar  
     9    4   20 1   
    10    5    6 ar  
    11    5   10 ar  
    12    6    7 ar  
    13    6   11 1   
    14    7    8 ar  
    15    7   21 1   
    16    8    9 ar  
    17    8   22 1   
    18    9   10 ar  
    19    9   23 1   
    20   11   12 1   
    21   11   13 1   
    22   11   30 1   
    23   12   24 1   
    24   12   25 1   
    25   12   26 1   
    26   13   27 1   
    27   13   28 1   
    28   13   29 1   
    29   14   15 1   
    30   14   16 1   
    31   14   17 1   
@<TRIPOS>SUBSTRUCTURE
     1 ANS         1 TEMP              0 ****  ****    0 ROOT
