@<TRIPOS>MOLECULE
ANS
   29    30     1     0     0
SMALL
bcc


@<TRIPOS>ATOM
      1 C1         -0.0500   -0.0020   -0.0330 ca        1 ANS     -0.236500
      2 C2          1.3230   -0.0490   -0.0050 ca        1 ANS     -0.063000
      3 C3          2.0330   -0.0750    1.2160 ca        1 ANS     -0.157000
      4 C4          1.3570   -0.0540    2.4110 ca        1 ANS     -0.106000
      5 C4A        -0.0640   -0.0050    2.4340 ca        1 ANS     -0.036000
      6 C5         -0.8100    0.0190    3.6650 ca        1 ANS      0.074600
      7 C6         -2.1960    0.0670    3.6230 ca        1 ANS     -0.166000
      8 C7         -2.8810    0.0920    2.3910 ca        1 ANS     -0.154000
      9 C8         -2.1900    0.0700    1.2080 ca        1 ANS     -0.083000
     10 C8A        -0.7660    0.0210    1.1970 ca        1 ANS      0.039000
     11 N          -0.0910   -0.0070    4.9150 nh        1 ANS     -0.625000
     12 CM1        -0.2550    1.2110    5.6780 c3        1 ANS      0.164100
     13 CM2        -0.3590   -1.2010    5.6880 c3        1 ANS      0.164100
     14 S          -0.8610    0.0290   -1.6300 s6        1 ANS      1.454100
     15 O1S         0.2000   -0.0060   -2.5640 o         1 ANS     -0.743200
     16 O2S        -1.6820   -1.1210   -1.6480 o         1 ANS     -0.743200
     17 O3S        -1.6010    1.2330   -1.6450 o         1 ANS     -0.743200
     18 H2          1.8850   -0.0670   -0.9570 ha        1 ANS      0.157000
     19 H3          3.1320   -0.1130    1.1980 ha        1 ANS      0.110000
     20 H4          1.9150   -0.0750    3.3590 ha        1 ANS      0.128000
     21 H6         -2.7840    0.0860    4.5530 ha        1 ANS      0.110000
     22 H7         -3.9800    0.1290    2.3960 ha        1 ANS      0.119000
     23 H8         -2.7200    0.0890    0.2370 ha        1 ANS      0.175000
     24 HM11        0.0070    2.0840    5.0260 h1        1 ANS      0.026200
     25 HM12       -1.3000    1.3580    6.0690 h1        1 ANS      0.026200
     26 HM13        0.4490    1.1800    6.5510 h1        1 ANS      0.026200
     27 HM21        0.3470   -1.2260    6.5590 h1        1 ANS      0.026200
     28 HM22       -0.1760   -2.0990    5.0420 h1        1 ANS      0.026200
     29 HM23       -1.4110   -1.2530    6.0820 h1        1 ANS      0.026200
@<TRIPOS>BOND
     1    1    2 ar  
     2    1   10 ar  
     3    1   14 1   
     4    2    3 ar  
     5    2   18 1   
     6    3    4 ar  
     7    3   19 1   
     8    4    5 ar  
     9    4   20 1   
    10    5    6 ar  
    11    5   10 ar  
    12    6    7 ar  
    13    6   11 1   
    14    7    8 ar  
    15    7   21 1   
    16    8    9 ar  
    17    8   22 1   
    18    9   10 ar  
    19    9   23 1   
    20   11   12 1   
    21   11   13 1   
    22   12   24 1   
    23   12   25 1   
    24   12   26 1   
    25   13   27 1   
    26   13   28 1   
    27   13   29 1   
    28   14   15 1   
    29   14   16 1   
    30   14   17 1   
@<TRIPOS>SUBSTRUCTURE
     1 ANS         1 TEMP              0 ****  ****    0 ROOT
