@<TRIPOS>MOLECULE
ANS
   29    30     1     0     0
SMALL
bcc


@<TRIPOS>ATOM
      1 C1         -0.5700    0.0450   -1.3120 ca        1 ANS     -0.236500
      2 C2         -1.9410    0.0730   -1.2220 ca        1 ANS     -0.063000
      3 C3         -2.5950    0.0670    0.0300 ca        1 ANS     -0.157000
      4 C4         -1.8650    0.0320    1.1930 ca        1 ANS     -0.106000
      5 C4A        -0.4440    0.0020    1.1510 ca        1 ANS     -0.036000
      6 C5          0.3570   -0.0360    2.3460 ca        1 ANS      0.074600
      7 C6          1.7400   -0.0640    2.2420 ca        1 ANS     -0.166000
      8 C7          2.3690   -0.0570    0.9800 ca        1 ANS     -0.154000
      9 C8          1.6250   -0.0220   -0.1710 ca        1 ANS     -0.083000
     10 C8A         0.2010    0.0080   -0.1160 ca        1 ANS      0.039000
     11 N          -0.3050   -0.0420    3.6280 nh        1 ANS     -0.625000
     12 CM1        -0.0810   -1.2660    4.3650 c3        1 ANS      0.164100
     13 CM2        -0.0280    1.1460    4.4050 c3        1 ANS      0.164100
     14 S           0.1690    0.0550   -2.9440 s6        1 ANS      1.454100
     15 O1S        -0.9330    0.0940   -3.8290 o         1 ANS     -0.743200
     16 O2S         0.9740    1.2160   -2.9770 o         1 ANS     -0.743200
     17 O3S         0.9220   -1.1380   -3.0160 o         1 ANS     -0.743200
     18 H2         -2.5450    0.1020   -2.1470 ha        1 ANS      0.157000
     19 H3         -3.6940    0.0900    0.0620 ha        1 ANS      0.110000
     20 H4         -2.3800    0.0270    2.1650 ha        1 ANS      0.128000
     21 H6          2.3690   -0.0930    3.1440 ha        1 ANS      0.110000
     22 H7          3.4670   -0.0810    0.9340 ha        1 ANS      0.119000
     23 H8          2.1100   -0.0160   -1.1640 ha        1 ANS      0.175000
     24 HM11       -0.7460   -1.2640    5.2680 h1        1 ANS      0.026033
     25 HM12       -0.3520   -2.1370    3.7130 h1        1 ANS      0.026033
     26 HM13        0.9830   -1.3950    4.7080 h1        1 ANS      0.026033
     27 HM21       -0.2600    2.0490    3.7820 h1        1 ANS      0.026033
     28 HM22       -0.6930    1.1430    5.3080 h1        1 ANS      0.026033
     29 HM23        1.0400    1.2170    4.7510 h1        1 ANS      0.026033
@<TRIPOS>BOND
     1    1    2 ar  
     2    1   10 ar  
     3    1   14 1   
     4    2    3 ar  
     5    2   18 1   
     6    3    4 ar  
     7    3   19 1   
     8    4    5 ar  
     9    4   20 1   
    10    5    6 ar  
    11    5   10 ar  
    12    6    7 ar  
    13    6   11 1   
    14    7    8 ar  
    15    7   21 1   
    16    8    9 ar  
    17    8   22 1   
    18    9   10 ar  
    19    9   23 1   
    20   11   12 1   
    21   11   13 1   
    22   12   24 1   
    23   12   25 1   
    24   12   26 1   
    25   13   27 1   
    26   13   28 1   
    27   13   29 1   
    28   14   15 1   
    29   14   16 1   
    30   14   17 1   
@<TRIPOS>SUBSTRUCTURE
     1 ANS         1 TEMP              0 ****  ****    0 ROOT
