@<TRIPOS>MOLECULE
ANT
   41    43     1     0     0
SMALL
bcc


@<TRIPOS>ATOM
      1 C1          0.3390   -0.3120   -0.3070 c3        1 ANT     -0.022200
      2 C2          1.8290   -0.2580   -0.1070 ce        1 ANT     -0.310200
      3 C3          2.0910   -0.2790    1.2750 c2        1 ANT      0.156600
      4 N4          0.9470   -0.3570    2.0210 n         1 ANT     -0.365000
      5 C5          0.9050   -0.2490    3.4410 c         1 ANT      0.729100
      6 O5          1.9830   -0.1220    4.0350 o         1 ANT     -0.556500
      7 C5A        -0.4190   -0.2640    4.1000 ca        1 ANT     -0.158600
      8 C6         -0.6200    0.6320    5.1480 ca        1 ANT     -0.087000
      9 C7         -1.8480    0.6710    5.8110 ca        1 ANT     -0.108000
     10 C8         -2.8820   -0.1870    5.4500 ca        1 ANT     -0.046300
     11 C8M        -4.1900   -0.1590    6.1390 c3        1 ANT     -0.058800
     12 C9         -2.6700   -1.1130    4.3970 ca        1 ANT      0.154100
     13 C9A        -1.4370   -1.1680    3.7080 ca        1 ANT      0.030600
     14 O9         -3.7370   -1.9250    4.1110 oh        1 ANT     -0.481100
     15 N10        -1.2470   -2.1490    2.6960 nh        1 ANT     -0.767600
     16 C11        -1.1100   -1.6670    1.3290 c3        1 ANT      0.389300
     17 O11        -2.3620   -1.2830    0.7690 oh        1 ANT     -0.594800
     18 C4A        -0.2350   -0.3860    1.1400 c3        1 ANT      0.056700
     19 C12         2.8460   -0.1810   -1.0580 ce        1 ANT      0.151000
     20 C13         2.8150   -0.1190   -2.4310 cf        1 ANT     -0.415200
     21 C14         1.6570   -0.1410   -3.2500 c         1 ANT      0.582300
     22 O14         0.4530   -0.2620   -3.0510 o         1 ANT     -0.489100
     23 N15         1.9610    0.0150   -4.7580 n4        1 ANT     -0.769400
     24 H11A        0.0280   -1.2030   -0.9060 hc        1 ANT      0.082700
     25 H12A       -0.0430    0.6040   -0.8210 hc        1 ANT      0.082700
     26 H3          3.0740   -0.2310    1.7760 h4        1 ANT      0.203000
     27 H6          0.1960    1.3060    5.4570 ha        1 ANT      0.160000
     28 H7         -1.9970    1.3880    6.6360 ha        1 ANT      0.159000
     29 HM81       -4.9960    0.1190    5.4130 hc        1 ANT      0.063367
     30 HM82       -4.1930    0.5740    6.9820 hc        1 ANT      0.063367
     31 HM83       -4.4320   -1.1760    6.5400 hc        1 ANT      0.063367
     32 HO9        -3.4750   -2.5730    3.4390 ho        1 ANT      0.439000
     33 HN         -0.5010   -2.7730    2.9390 hn        1 ANT      0.405800
     34 H11        -0.6840   -2.5220    0.7180 h2        1 ANT      0.061700
     35 HO1        -3.0090   -1.9770    0.9580 ho        1 ANT      0.430000
     36 H4A        -0.8820    0.5120    1.3590 h1        1 ANT      0.112700
     37 H12         3.8770   -0.1560   -0.6300 ha        1 ANT      0.143000
     38 H13         3.7940   -0.0440   -2.9360 ha        1 ANT      0.151000
     39 HN51        2.4350    0.9040   -4.9230 hn        1 ANT      0.454467
     40 HN52        1.0830   -0.0060   -5.2850 hn        1 ANT      0.454467
     41 H153        2.5640   -0.7460   -5.0710 hn        1 ANT      0.454467
@<TRIPOS>BOND
     1    1    2 1   
     2    1   18 1   
     3    1   24 1   
     4    1   25 1   
     5    2    3 2   
     6    2   19 1   
     7    3    4 1   
     8    3   26 1   
     9    4    5 1   
    10    4   18 1   
    11    5    6 2   
    12    5    7 1   
    13    7    8 ar  
    14    7   13 ar  
    15    8    9 ar  
    16    8   27 1   
    17    9   10 ar  
    18    9   28 1   
    19   10   11 1   
    20   10   12 ar  
    21   11   29 1   
    22   11   30 1   
    23   11   31 1   
    24   12   13 ar  
    25   12   14 1   
    26   13   15 1   
    27   14   32 1   
    28   15   16 1   
    29   15   33 1   
    30   16   17 1   
    31   16   18 1   
    32   16   34 1   
    33   17   35 1   
    34   18   36 1   
    35   19   20 2   
    36   19   37 1   
    37   20   21 1   
    38   20   38 1   
    39   21   22 2   
    40   21   23 1   
    41   23   39 1   
    42   23   40 1   
    43   23   41 1   
@<TRIPOS>SUBSTRUCTURE
     1 ANT         1 TEMP              0 ****  ****    0 ROOT
