@<TRIPOS>MOLECULE
ANT
   40    42     1     0     0
SMALL
bcc


@<TRIPOS>ATOM
      1 C1         -0.8440    0.4910   -1.7900 c3        1 ANT     -0.030200
      2 C2          0.4460    0.1280   -2.4780 ce        1 ANT     -0.221200
      3 C3          1.4040   -0.1640   -1.5410 c2        1 ANT      0.045600
      4 N4          0.9070   -0.0420   -0.2340 n         1 ANT     -0.390000
      5 C5          1.6600   -0.1960    0.9260 c         1 ANT      0.742100
      6 O5          2.8690   -0.4790    0.8440 o         1 ANT     -0.613500
      7 C5A         0.9850    0.0360    2.2320 ca        1 ANT     -0.132600
      8 C6          1.6990    0.7640    3.1910 ca        1 ANT     -0.090000
      9 C7          1.1630    0.9960    4.4490 ca        1 ANT     -0.123000
     10 C8         -0.0990    0.4940    4.7870 ca        1 ANT     -0.107300
     11 C8M        -0.6650    0.7440    6.1330 c3        1 ANT     -0.062800
     12 C9         -0.8130   -0.2430    3.8310 ca        1 ANT      0.072100
     13 C9A        -0.2900   -0.4900    2.5260 ca        1 ANT      0.136600
     14 O9         -2.0690   -0.7610    4.0840 oh        1 ANT     -0.514100
     15 N10        -0.9660   -1.3260    1.6090 nh        1 ANT     -0.727600
     16 C11        -1.4380   -0.7650    0.3510 c3        1 ANT      0.371300
     17 O11        -2.7030   -0.1040    0.4570 oh        1 ANT     -0.619800
     18 C4A        -0.5110    0.3190   -0.2750 c3        1 ANT      0.103700
     19 C12         0.6210    0.1000   -3.8970 ce        1 ANT      0.001000
     20 C13        -0.3430    0.4150   -4.7810 cf        1 ANT     -0.265200
     21 C14        -0.0740    0.3590   -6.2350 c         1 ANT      0.663300
     22 O14         1.0280   -0.0010   -6.7070 o         1 ANT     -0.627100
     23 N15        -1.0880    0.7160   -7.0950 n         1 ANT     -0.678000
     24 H11A       -1.1360    1.5480   -2.0020 hc        1 ANT      0.065200
     25 H12A       -1.6840   -0.1770   -2.0980 hc        1 ANT      0.065200
     26 H3          2.4530   -0.4560   -1.6830 h4        1 ANT      0.191000
     27 H6          2.7040    1.1390    2.9340 ha        1 ANT      0.157000
     28 H7          1.7350    1.5740    5.1910 ha        1 ANT      0.143000
     29 HM81       -1.6680    1.2360    6.0530 hc        1 ANT      0.051033
     30 HM82       -0.7850   -0.2180    6.6930 hc        1 ANT      0.051033
     31 HM83        0.0030    1.4120    6.7310 hc        1 ANT      0.051033
     32 HO9        -2.2180   -0.7400    5.0400 ho        1 ANT      0.429000
     33 HN         -1.7020   -1.8350    2.0670 hn        1 ANT      0.401800
     34 H11        -1.5340   -1.6480   -0.3530 h2        1 ANT      0.068700
     35 HO1        -3.3760   -0.7710    0.6350 ho        1 ANT      0.409000
     36 H4A        -0.6750    1.2840    0.2820 h1        1 ANT      0.086700
     37 H12         1.6230   -0.2020   -4.2630 ha        1 ANT      0.153000
     38 H13        -1.3480    0.7200   -4.4540 ha        1 ANT      0.128000
     39 HN51       -0.9270    0.6960   -8.0700 hn        1 ANT      0.309500
     40 HN52       -1.9610    1.0230   -6.7590 hn        1 ANT      0.309500
@<TRIPOS>BOND
     1    1    2 1   
     2    1   18 1   
     3    1   24 1   
     4    1   25 1   
     5    2    3 2   
     6    2   19 1   
     7    3    4 1   
     8    3   26 1   
     9    4    5 1   
    10    4   18 1   
    11    5    6 2   
    12    5    7 1   
    13    7    8 ar  
    14    7   13 ar  
    15    8    9 ar  
    16    8   27 1   
    17    9   10 ar  
    18    9   28 1   
    19   10   11 1   
    20   10   12 ar  
    21   11   29 1   
    22   11   30 1   
    23   11   31 1   
    24   12   13 ar  
    25   12   14 1   
    26   13   15 1   
    27   14   32 1   
    28   15   16 1   
    29   15   33 1   
    30   16   17 1   
    31   16   18 1   
    32   16   34 1   
    33   17   35 1   
    34   18   36 1   
    35   19   20 2   
    36   19   37 1   
    37   20   21 1   
    38   20   38 1   
    39   21   22 2   
    40   21   23 1   
    41   23   39 1   
    42   23   40 1   
@<TRIPOS>SUBSTRUCTURE
     1 ANT         1 TEMP              0 ****  ****    0 ROOT
