@<TRIPOS>MOLECULE
ANT
   41    43     1     0     0
SMALL
bcc


@<TRIPOS>ATOM
      1 C1          0.0650   -0.4110   -0.3250 c3        1 ANT     -0.024200
      2 C2          1.4640    0.1340   -0.2150 ce        1 ANT     -0.320200
      3 C3          1.7340    0.4170    1.1330 c2        1 ANT      0.169600
      4 N4          0.6740    0.1170    1.9420 n         1 ANT     -0.352000
      5 C5          0.6220    0.3750    3.3410 c         1 ANT      0.750100
      6 O5          1.6090    0.9080    3.8610 o         1 ANT     -0.560500
      7 C5A        -0.6230    0.0360    4.0630 ca        1 ANT     -0.147600
      8 C6         -1.0790    0.9580    5.0140 ca        1 ANT     -0.084000
      9 C7         -2.2140    0.6900    5.7660 ca        1 ANT     -0.111000
     10 C8         -2.9170   -0.5080    5.5960 ca        1 ANT     -0.086300
     11 C8M        -4.1270   -0.7860    6.4040 c3        1 ANT     -0.072800
     12 C9         -2.4570   -1.4360    4.6480 ca        1 ANT      0.082100
     13 C9A        -1.2960   -1.1870    3.8590 ca        1 ANT      0.128600
     14 O9         -3.0970   -2.6340    4.4070 oh        1 ANT     -0.513100
     15 N10        -0.7660   -2.1680    2.9880 nh        1 ANT     -0.734600
     16 C11        -0.7940   -1.9160    1.5570 c3        1 ANT      0.380300
     17 O11        -2.0660   -2.1090    0.9310 oh        1 ANT     -0.621800
     18 C4A        -0.4320   -0.4540    1.1540 c3        1 ANT      0.089700
     19 C12         2.3510    0.3400   -1.2700 ce        1 ANT      0.151000
     20 C13         2.0540    0.0720   -2.5900 cf        1 ANT     -0.422200
     21 C14         3.0290    0.3220   -3.5930 c         1 ANT      0.568300
     22 O14         4.1790    0.7530   -3.5490 o         1 ANT     -0.487100
     23 N15         2.5780   -0.0020   -5.0250 n4        1 ANT     -0.762400
     24 H11A       -0.5920    0.2610   -0.9280 hc        1 ANT      0.071700
     25 H12A        0.0470   -1.4300   -0.7840 hc        1 ANT      0.071700
     26 H3          2.6570    0.8440    1.5640 h4        1 ANT      0.206000
     27 H6         -0.5170    1.8930    5.1690 ha        1 ANT      0.161000
     28 H7         -2.5640    1.4250    6.5090 ha        1 ANT      0.156000
     29 HM81       -3.9580   -1.6720    7.0690 hc        1 ANT      0.060700
     30 HM82       -4.3880    0.0870    7.0530 hc        1 ANT      0.060700
     31 HM83       -5.0030   -1.0010    5.7410 hc        1 ANT      0.060700
     32 HO9        -3.7280   -2.7960    5.1250 ho        1 ANT      0.441000
     33 HN         -1.1420   -3.0770    3.2000 hn        1 ANT      0.413800
     34 H11        -0.0470   -2.6410    1.1080 h2        1 ANT      0.068700
     35 HO1        -2.3540   -3.0160    1.0950 ho        1 ANT      0.424000
     36 H4A        -1.3500    0.1860    1.2880 h1        1 ANT      0.108700
     37 H12         3.3550    0.7470   -1.0230 ha        1 ANT      0.151000
     38 H13         1.0680   -0.3300   -2.8640 ha        1 ANT      0.157000
     39 HN51        2.3360   -0.9900   -5.0960 hn        1 ANT      0.455800
     40 HN52        1.7600    0.5600   -5.2640 hn        1 ANT      0.455800
     41 H153        3.3400    0.2100   -5.6780 hn        1 ANT      0.455800
@<TRIPOS>BOND
     1    1    2 1   
     2    1   18 1   
     3    1   24 1   
     4    1   25 1   
     5    2    3 2   
     6    2   19 1   
     7    3    4 1   
     8    3   26 1   
     9    4    5 1   
    10    4   18 1   
    11    5    6 2   
    12    5    7 1   
    13    7    8 ar  
    14    7   13 ar  
    15    8    9 ar  
    16    8   27 1   
    17    9   10 ar  
    18    9   28 1   
    19   10   11 1   
    20   10   12 ar  
    21   11   29 1   
    22   11   30 1   
    23   11   31 1   
    24   12   13 ar  
    25   12   14 1   
    26   13   15 1   
    27   14   32 1   
    28   15   16 1   
    29   15   33 1   
    30   16   17 1   
    31   16   18 1   
    32   16   34 1   
    33   17   35 1   
    34   18   36 1   
    35   19   20 2   
    36   19   37 1   
    37   20   21 1   
    38   20   38 1   
    39   21   22 2   
    40   21   23 1   
    41   23   39 1   
    42   23   40 1   
    43   23   41 1   
@<TRIPOS>SUBSTRUCTURE
     1 ANT         1 TEMP              0 ****  ****    0 ROOT
