@<TRIPOS>MOLECULE
ANT
   40    38     1     0     0
SMALL
bcc


@<TRIPOS>ATOM
      1 C1          0.2370    1.0650   -2.1280 c3        1 ANT     -0.115000
      2 C2          1.4020    1.6180   -1.9430 c2        1 ANT     -0.207000
      3 C3          2.0450    1.2040   -0.7570 c1        1 ANT      0.018000
      4 N4          1.2490    0.7920    0.1410 n2        1 ANT     -0.296000
      5 C5          1.0940    0.5420    1.5870 c2        1 ANT      0.354000
      6 O5          1.9950    0.5050    2.3660 o         1 ANT     -0.328000
      7 C5A        -0.3830    0.4330    1.9700 c2        1 ANT     -0.116000
      8 C6         -1.0720    1.2840    2.8570 c1        1 ANT     -0.102000
      9 C7         -2.2320    0.8420    3.4850 c1        1 ANT     -0.110000
     10 C8         -2.7030   -0.4160    3.2430 c1        1 ANT     -0.066000
     11 C8M        -3.9310   -0.9170    3.9790 c2        1 ANT     -0.174000
     12 C9         -2.0270   -1.2580    2.3690 c2        1 ANT      0.102000
     13 C9A        -0.8550   -0.8180    1.7310 c2        1 ANT     -0.053000
     14 O9         -2.4590   -2.5910    2.2070 oh        1 ANT     -0.247000
     15 N10        -0.0830   -1.4800    0.6610 n3        1 ANT     -0.313000
     16 C11        -0.3580   -0.8800   -0.6240 c3        1 ANT      0.107000
     17 O11        -1.8010   -1.0570   -0.9480 oh        1 ANT     -0.323000
     18 C4A        -0.0530    0.5090   -0.6080 c3        1 ANT     -0.004000
     19 C12         2.2480    2.0970   -3.1660 c2        1 ANT     -0.050000
     20 C13         3.0400    1.2310   -3.8110 c1        1 ANT     -0.204000
     21 C14         3.1150   -0.2160   -3.3550 c1        1 ANT      0.331000
     22 O14         3.1830   -0.4750   -2.1830 o         1 ANT     -0.369000
     23 N15         3.2100   -1.2280   -4.2930 n3        1 ANT     -0.437000
     24 H11A        0.1910    0.5250   -2.9510 hc        1 ANT      0.106000
     25 H12A       -0.4840    1.7430   -2.3030 hc        1 ANT      0.106000
     26 H3          2.9250    1.6130   -0.4950 ha        1 ANT      0.197000
     27 H6         -0.7290    2.2040    3.0350 ha        1 ANT      0.158000
     28 H7         -2.6660    1.4000    4.1610 ha        1 ANT      0.145000
     29 HM81       -3.6900   -1.6840    4.5230 ha        1 ANT      0.092333
     30 HM82       -4.6390   -1.1870    3.3120 ha        1 ANT      0.092333
     31 HM83       -4.2770   -0.2060    4.5520 ha        1 ANT      0.092333
     32 HO9        -2.0950   -3.1070    2.8540 ho        1 ANT      0.235000
     33 HN          0.7940   -1.4130    0.8390 hn        1 ANT      0.194000
     34 H11         0.1760   -1.3160   -1.2990 h2        1 ANT      0.096000
     35 HO1        -1.9000   -1.7480   -1.5560 ho        1 ANT      0.216000
     36 H4A        -0.7800    1.0010   -0.2080 h1        1 ANT      0.131000
     37 H12         2.2020    3.0080   -3.4530 ha        1 ANT      0.133000
     38 H13         3.5780    1.5340   -4.5890 ha        1 ANT      0.157000
     39 HN51        3.2530   -1.0210   -5.1870 hn        1 ANT      0.225000
     40 HN52        3.2780   -2.1330   -4.0110 hn        1 ANT      0.225000
@<TRIPOS>BOND
     1    1    2 1   
     2    1   18 1   
     3    1   24 1   
     4    1   25 1   
     5    2    3 1   
     6    2   19 1   
     7    3   26 1   
     8    4    5 1   
     9    4   18 1   
    10    5    6 1   
    11    5    7 1   
    12    7    8 1   
    13    7   13 1   
    14    8   27 1   
    15    9   10 1   
    16    9   28 1   
    17   10   12 1   
    18   11   29 1   
    19   11   30 1   
    20   11   31 1   
    21   12   13 1   
    22   12   14 1   
    23   13   15 1   
    24   14   32 1   
    25   15   16 1   
    26   15   33 1   
    27   16   17 1   
    28   16   18 1   
    29   16   34 1   
    30   17   35 1   
    31   18   36 1   
    32   19   20 1   
    33   19   37 1   
    34   20   38 1   
    35   21   22 1   
    36   21   23 1   
    37   23   39 1   
    38   23   40 1   
@<TRIPOS>SUBSTRUCTURE
     1 ANT         1 TEMP              0 ****  ****    0 ROOT
