@<TRIPOS>MOLECULE
ANT
   41    43     1     0     0
SMALL
bcc


@<TRIPOS>ATOM
      1 C1          0.3450   -0.3370   -0.2830 c3        1 ANT     -0.022200
      2 C2          1.8380   -0.2770   -0.0980 ce        1 ANT     -0.310200
      3 C3          2.1130   -0.2910    1.2820 c2        1 ANT      0.156600
      4 N4          0.9770   -0.3710    2.0390 n         1 ANT     -0.365000
      5 C5          0.9480   -0.2580    3.4590 c         1 ANT      0.729100
      6 O5          2.0310   -0.1250    4.0430 o         1 ANT     -0.556500
      7 C5A        -0.3690   -0.2740    4.1300 ca        1 ANT     -0.158600
      8 C6         -0.5640    0.6250    5.1780 ca        1 ANT     -0.087000
      9 C7         -1.7850    0.6620    5.8530 ca        1 ANT     -0.108000
     10 C8         -2.8190   -0.2000    5.5040 ca        1 ANT     -0.046300
     11 C8M        -4.1210   -0.1740    6.2060 c3        1 ANT     -0.058800
     12 C9         -2.6140   -1.1300    4.4530 ca        1 ANT      0.154100
     13 C9A        -1.3880   -1.1830    3.7530 ca        1 ANT      0.030600
     14 O9         -3.6810   -1.9460    4.1800 oh        1 ANT     -0.481100
     15 N10        -1.2050   -2.1680    2.7420 nu        1 ANT     -0.767600
     16 C11        -1.0820   -1.6910    1.3720 c3        1 ANT      0.389300
     17 O11        -2.3410   -1.3130    0.8230 oh        1 ANT     -0.594800
     18 C4A        -0.2140   -0.4070    1.1700 c3        1 ANT      0.056700
     19 C12         2.8450   -0.2000   -1.0580 ce        1 ANT      0.151000
     20 C13         2.8000   -0.1430   -2.4320 cf        1 ANT     -0.415200
     21 C14         1.6350   -0.1730   -3.2400 c         1 ANT      0.582300
     22 O14         0.4330   -0.2970   -3.0280 o         1 ANT     -0.489100
     23 N15         1.9240   -0.0210   -4.7500 nz        1 ANT     -0.769400
     24 H11A        0.0320   -1.2310   -0.8750 hc        1 ANT      0.082700
     25 H12A       -0.0440    0.5760   -0.7970 hc        1 ANT      0.082700
     26 H3          3.1010   -0.2380    1.7730 h4        1 ANT      0.203000
     27 H6          0.2540    1.3020    5.4760 ha        1 ANT      0.160000
     28 H7         -1.9280    1.3810    6.6760 ha        1 ANT      0.159000
     29 HM81       -4.3550   -1.1900    6.6140 hc        1 ANT      0.063367
     30 HM82       -4.1180    0.5630    7.0460 hc        1 ANT      0.063367
     31 HM83       -4.9350    0.0980    5.4870 hc        1 ANT      0.063367
     32 HO9        -3.4240   -2.5960    3.5080 ho        1 ANT      0.439000
     33 HN         -0.4540   -2.7880    2.9810 hn        1 ANT      0.405800
     34 H11        -0.6600   -2.5460    0.7610 h2        1 ANT      0.061700
     35 HO1        -2.9830   -2.0080    1.0200 ho        1 ANT      0.430000
     36 H4A        -0.8610    0.4890    1.3920 h1        1 ANT      0.112700
     37 H12         3.8800   -0.1700   -0.6410 ha        1 ANT      0.143000
     38 H13         3.7740   -0.0670   -2.9470 ha        1 ANT      0.151000
     39 HN51        2.3930    0.8680   -4.9240 hn        1 ANT      0.454467
     40 HN52        2.5260   -0.7810   -5.0670 hn        1 ANT      0.454467
     41 H153        1.0410   -0.0480   -5.2690 hn        1 ANT      0.454467
@<TRIPOS>BOND
     1    1    2 1   
     2    1   18 1   
     3    1   24 1   
     4    1   25 1   
     5    2    3 2   
     6    2   19 1   
     7    3    4 1   
     8    3   26 1   
     9    4    5 1   
    10    4   18 1   
    11    5    6 2   
    12    5    7 1   
    13    7    8 ar  
    14    7   13 ar  
    15    8    9 ar  
    16    8   27 1   
    17    9   10 ar  
    18    9   28 1   
    19   10   11 1   
    20   10   12 ar  
    21   11   29 1   
    22   11   30 1   
    23   11   31 1   
    24   12   13 ar  
    25   12   14 1   
    26   13   15 1   
    27   14   32 1   
    28   15   16 1   
    29   15   33 1   
    30   16   17 1   
    31   16   18 1   
    32   16   34 1   
    33   17   35 1   
    34   18   36 1   
    35   19   20 2   
    36   19   37 1   
    37   20   21 1   
    38   20   38 1   
    39   21   22 2   
    40   21   23 1   
    41   23   39 1   
    42   23   40 1   
    43   23   41 1   
@<TRIPOS>SUBSTRUCTURE
     1 ANT         1 TEMP              0 ****  ****    0 ROOT
