@<TRIPOS>MOLECULE
ANU
   26    28     1     0     0
SMALL
bcc


@<TRIPOS>ATOM
      1 O3'        -0.1380   -0.2980   -0.0960 oh        1 ANU     -0.583800
      2 C3'         1.2390   -0.0090   -0.1050 c3        1 ANU      0.138100
      3 C2'         1.8930    0.0090    1.2720 c3        1 ANU      0.032100
      4 O2          1.3790    0.5390    2.5060 os        1 ANU     -0.356400
      5 C2          1.9160   -0.3350    3.5010 cc        1 ANU      0.797500
      6 N3          1.8780   -0.0380    4.7700 nd        1 ANU     -0.639100
      7 C4          2.3600   -1.0510    5.6690 c         1 ANU      0.695700
      8 O4          2.3980   -0.8150    6.8840 o         1 ANU     -0.515100
      9 C5          2.7810   -2.3510    5.1010 cc        1 ANU     -0.319200
     10 C6          2.7820   -2.5680    3.7580 cd        1 ANU      0.118000
     11 N1          2.4620   -1.5340    2.8960 na        1 ANU     -0.653400
     12 C1'         1.9270   -1.5480    1.5500 c3        1 ANU      0.382300
     13 O4'         2.5870   -2.0440    0.3830 os        1 ANU     -0.407600
     14 C4'         1.9710   -1.2700   -0.7100 c3        1 ANU      0.088100
     15 C5'         3.0970   -0.8690   -1.6550 c3        1 ANU      0.130400
     16 O5'         3.7010   -2.0000   -2.2380 oh        1 ANU     -0.584800
     17 H1         -0.5790    0.4370    0.3520 ho        1 ANU      0.428000
     18 H3'         1.4510    0.9180   -0.6970 h1        1 ANU      0.076700
     19 H2'         2.9290    0.4370    1.1420 h1        1 ANU      0.093700
     20 H5          3.0870   -3.1280    5.8130 ha        1 ANU      0.176000
     21 H6          3.0760   -3.5220    3.2830 h4        1 ANU      0.172000
     22 H1'         0.8930   -2.0140    1.5650 h2        1 ANU      0.089700
     23 H4'         1.2300   -1.9520   -1.2020 h1        1 ANU      0.107700
     24 H5'1        3.8600   -0.2550   -1.1040 h1        1 ANU      0.059200
     25 H5'2        2.6800   -0.2830   -2.5180 h1        1 ANU      0.059200
     26 H5'         4.0560   -2.5400   -1.5180 ho        1 ANU      0.416000
@<TRIPOS>BOND
     1    1    2 1   
     2    1   17 1   
     3    2    3 1   
     4    2   14 1   
     5    2   18 1   
     6    3    4 1   
     7    3   12 1   
     8    3   19 1   
     9    4    5 1   
    10    5    6 2   
    11    5   11 1   
    12    6    7 1   
    13    7    8 2   
    14    7    9 1   
    15    9   10 2   
    16    9   20 1   
    17   10   11 1   
    18   10   21 1   
    19   11   12 1   
    20   12   13 1   
    21   12   22 1   
    22   13   14 1   
    23   14   15 1   
    24   14   23 1   
    25   15   16 1   
    26   15   24 1   
    27   15   25 1   
    28   16   26 1   
@<TRIPOS>SUBSTRUCTURE
     1 ANU         1 TEMP              0 ****  ****    0 ROOT
