@<TRIPOS>MOLECULE
ANU
   26    28     1     0     0
SMALL
bcc


@<TRIPOS>ATOM
      1 O3'         2.1630   -2.0190    1.2110 oh        1 ANU     -0.583800
      2 C3'         2.1810   -1.3450   -0.0240 c3        1 ANU      0.138100
      3 C2'         0.8090   -0.9180   -0.5350 c3        1 ANU      0.032100
      4 O2         -0.4340   -1.6400   -0.4890 os        1 ANU     -0.356400
      5 C2         -1.4170   -0.6160   -0.3310 cc        1 ANU      0.797500
      6 N3         -2.6880   -0.8510   -0.4970 nd        1 ANU     -0.639100
      7 C4         -3.5750    0.2430   -0.2060 c         1 ANU      0.695700
      8 O4         -4.7920    0.1030   -0.3900 o         1 ANU     -0.515100
      9 C5         -2.9930    1.4980    0.3190 cc        1 ANU     -0.319200
     10 C6         -1.6480    1.6490    0.4600 cd        1 ANU      0.118000
     11 N1         -0.7970    0.6440    0.0330 na        1 ANU     -0.653400
     12 C1'         0.5440    0.2910    0.4510 c3        1 ANU      0.382300
     13 O4'         1.7210    1.0830    0.2730 os        1 ANU     -0.407600
     14 C4'         2.8020    0.0820    0.2390 c3        1 ANU      0.088100
     15 C5'         3.7530    0.4970   -0.8770 c3        1 ANU      0.130400
     16 O5'         4.3510    1.7430   -0.6000 oh        1 ANU     -0.584800
     17 H1          1.7040   -2.8590    1.0680 ho        1 ANU      0.428000
     18 H3'         2.7660   -1.9190   -0.7860 h1        1 ANU      0.076700
     19 H2'         0.9440   -0.5710   -1.6000 h1        1 ANU      0.093700
     20 H5         -3.6960    2.2970    0.5900 ha        1 ANU      0.176000
     21 H6         -1.1630    2.5580    0.8570 h4        1 ANU      0.172000
     22 H1'         0.5240   -0.0260    1.5400 h2        1 ANU      0.089700
     23 H4'         3.2930    0.1130    1.2460 h1        1 ANU      0.107700
     24 H5'1        3.2040    0.5320   -1.8560 h1        1 ANU      0.059200
     25 H5'2        4.6080   -0.2290   -0.9390 h1        1 ANU      0.059200
     26 H5'         3.6380    2.3920   -0.5200 ho        1 ANU      0.416000
@<TRIPOS>BOND
     1    1    2 1   
     2    1   17 1   
     3    2    3 1   
     4    2   14 1   
     5    2   18 1   
     6    3    4 1   
     7    3   12 1   
     8    3   19 1   
     9    4    5 1   
    10    5    6 2   
    11    5   11 1   
    12    6    7 1   
    13    7    8 2   
    14    7    9 1   
    15    9   10 2   
    16    9   20 1   
    17   10   11 1   
    18   10   21 1   
    19   11   12 1   
    20   12   13 1   
    21   12   22 1   
    22   13   14 1   
    23   14   15 1   
    24   14   23 1   
    25   15   16 1   
    26   15   24 1   
    27   15   25 1   
    28   16   26 1   
@<TRIPOS>SUBSTRUCTURE
     1 ANU         1 TEMP              0 ****  ****    0 ROOT
