@<TRIPOS>MOLECULE
ANU
   26    26     1     0     0
SMALL
bcc


@<TRIPOS>ATOM
      1 O3'        -2.1950    1.0700   -1.4460 oh        1 ANU     -0.311000
      2 C3'        -0.7990    1.0700   -1.4460 c3        1 ANU      0.027000
      3 C2'        -0.3540    1.0700   -0.2820 c3        1 ANU     -0.079000
      4 O2         -0.8770    1.7820    0.5430 os        1 ANU     -0.151000
      5 C2         -0.8170    0.8910    1.9010 c2        1 ANU      0.224000
      6 N3         -0.2240    1.4310    3.0870 n1        1 ANU     -0.212000
      7 C4          0.5960    0.5770    3.9520 c1        1 ANU      0.298000
      8 O4          0.9920    0.9960    5.0210 o         1 ANU     -0.276000
      9 C5          0.9570   -0.8750    3.5010 c2        1 ANU     -0.300000
     10 C6          0.4120   -1.4210    2.1980 c1        1 ANU      0.036000
     11 N1         -0.4020   -0.6160    1.3930 n2        1 ANU     -0.261000
     12 C1'        -0.6190   -0.5760    0.2180 c3        1 ANU      0.113000
     13 O4'         0.1370   -1.2430   -0.5820 os        1 ANU     -0.264000
     14 C4'        -0.1650   -0.4630   -2.0760 c3        1 ANU     -0.023000
     15 C5'         0.7830   -0.3120   -2.6690 c3        1 ANU     -0.020000
     16 O5'         1.2070   -1.5470   -3.2020 oh        1 ANU     -0.312000
     17 H1         -2.4910    1.6620   -2.0380 ho        1 ANU      0.227000
     18 H3'        -0.4480    1.8270   -1.9540 h1        1 ANU      0.116000
     19 H2'         0.6050    1.2510   -0.3030 h1        1 ANU      0.133000
     20 H5          1.5030   -1.4430    4.0780 ha        1 ANU      0.176000
     21 H6          0.6370   -2.3280    1.9150 ha        1 ANU      0.172000
     22 H1'        -1.5520   -0.8160    0.0560 h2        1 ANU      0.129000
     23 H4'        -0.8410   -0.9400   -2.5950 h1        1 ANU      0.147000
     24 H5'1        1.4790    0.0450   -2.0840 h1        1 ANU      0.098500
     25 H5'2        0.6160    0.3160   -3.3970 h1        1 ANU      0.098500
     26 H5'         1.8590   -1.4090   -3.7880 ho        1 ANU      0.215000
@<TRIPOS>BOND
     1    1    2 1   
     2    1   17 1   
     3    2    3 1   
     4    2   14 1   
     5    2   18 1   
     6    3    4 1   
     7    3   12 1   
     8    3   19 1   
     9    4    5 1   
    10    5    6 1   
    11    5   11 1   
    12    7    8 1   
    13    7    9 1   
    14    9   10 1   
    15    9   20 1   
    16   10   21 1   
    17   11   12 1   
    18   12   13 1   
    19   12   22 1   
    20   13   14 1   
    21   14   15 1   
    22   14   23 1   
    23   15   16 1   
    24   15   24 1   
    25   15   25 1   
    26   16   26 1   
@<TRIPOS>SUBSTRUCTURE
     1 ANU         1 TEMP              0 ****  ****    0 ROOT
