@<TRIPOS>MOLECULE
ANU
   26    28     1     0     0
SMALL
bcc


@<TRIPOS>ATOM
      1 O3'        -0.1510   -0.3310   -0.0940 oh        1 ANU     -0.583800
      2 C3'         1.2240   -0.0300   -0.1100 c3        1 ANU      0.138100
      3 C2'         1.8830    0.0050    1.2640 c3        1 ANU      0.032100
      4 O2          1.3680    0.5400    2.4970 os        1 ANU     -0.356400
      5 C2          1.9170   -0.3210    3.4960 cc        1 ANU      0.797500
      6 N3          1.8810   -0.0150    4.7630 nd        1 ANU     -0.639100
      7 C4          2.3750   -1.0160    5.6680 c         1 ANU      0.695700
      8 O4          2.4150   -0.7700    6.8810 o         1 ANU     -0.515100
      9 C5          2.8050   -2.3170    5.1090 cc        1 ANU     -0.319200
     10 C6          2.8040   -2.5450    3.7670 cd        1 ANU      0.118000
     11 N1          2.4710   -1.5200    2.8980 na        1 ANU     -0.653400
     12 C1'         1.9310   -1.5500    1.5550 c3        1 ANU      0.382300
     13 O4'         2.5910   -2.0490    0.3890 os        1 ANU     -0.407600
     14 C4'         1.9650   -1.2890   -0.7080 c3        1 ANU      0.088100
     15 C5'         3.0840   -0.8860   -1.6590 c3        1 ANU      0.130400
     16 O5'         3.6960   -2.0170   -2.2360 oh        1 ANU     -0.584800
     17 H1         -0.5960    0.4030    0.3500 ho        1 ANU      0.428000
     18 H3'         1.4260    0.8940   -0.7100 h1        1 ANU      0.076700
     19 H2'         2.9150    0.4400    1.1270 h1        1 ANU      0.093700
     20 H5          3.1210   -3.0860    5.8260 ha        1 ANU      0.176000
     21 H6          3.1040   -3.4990    3.2990 h4        1 ANU      0.172000
     22 H1'         0.9010   -2.0250    1.5770 h2        1 ANU      0.089700
     23 H4'         1.2280   -1.9810   -1.1910 h1        1 ANU      0.107700
     24 H5'1        2.6580   -0.3110   -2.5260 h1        1 ANU      0.059200
     25 H5'2        3.8430   -0.2610   -1.1160 h1        1 ANU      0.059200
     26 H5'         4.0580   -2.5470   -1.5130 ho        1 ANU      0.416000
@<TRIPOS>BOND
     1    1    2 1   
     2    1   17 1   
     3    2    3 1   
     4    2   14 1   
     5    2   18 1   
     6    3    4 1   
     7    3   12 1   
     8    3   19 1   
     9    4    5 1   
    10    5    6 2   
    11    5   11 1   
    12    6    7 1   
    13    7    8 2   
    14    7    9 1   
    15    9   10 2   
    16    9   20 1   
    17   10   11 1   
    18   10   21 1   
    19   11   12 1   
    20   12   13 1   
    21   12   22 1   
    22   13   14 1   
    23   14   15 1   
    24   14   23 1   
    25   15   16 1   
    26   15   24 1   
    27   15   25 1   
    28   16   26 1   
@<TRIPOS>SUBSTRUCTURE
     1 ANU         1 TEMP              0 ****  ****    0 ROOT
