@<TRIPOS>MOLECULE
ANW
   35    37     1     0     0
SMALL
bcc


@<TRIPOS>ATOM
      1 NAA         2.0570   -1.8410    0.0290 nb        1 ANW     -0.801000
      2 NAB         4.4010   -1.9970    0.2400 nh        1 ANW     -0.944500
      3 CAC        -5.9970    0.4420   -1.4560 c3        1 ANW     -0.087100
      4 CAD        -5.2450    0.8000   -0.1880 c3        1 ANW     -0.015400
      5 CAE        -6.0640    0.4380    1.0360 c3        1 ANW     -0.087100
      6 CAF        -3.9030    0.1390   -0.1530 ca        1 ANW     -0.131300
      7 CAG        -2.7430    0.9120   -0.1200 ca        1 ANW     -0.048000
      8 CAH        -1.4770    0.3130   -0.0870 ca        1 ANW     -0.213600
      9 CAI        -1.3910   -1.0860   -0.0870 ca        1 ANW      0.161100
     10 CAJ        -2.5550   -1.8810   -0.1200 ca        1 ANW     -0.170000
     11 CAK        -3.7930   -1.2610   -0.1530 ca        1 ANW     -0.085000
     12 CAL         0.9720   -1.0440   -0.0120 ca        1 ANW      0.677600
     13 CAM         3.2860   -1.2080    0.0810 ca        1 ANW      0.730200
     14 CAN         3.4090    0.2320    0.0340 ca        1 ANW     -0.326900
     15 CAO         2.2520    0.9860    0.0030 ca        1 ANW      0.029000
     16 CAP         0.9800    0.3680   -0.0180 ca        1 ANW     -0.406900
     17 CAQ        -0.2500    1.1370   -0.0550 c         1 ANW      0.616300
     18 CAR         4.7490    0.9510   -0.0120 c         1 ANW      0.925200
     19 OAS        -0.2090   -1.7960   -0.0560 os        1 ANW     -0.341400
     20 OAT        -0.3060    2.3780   -0.0610 o         1 ANW     -0.574100
     21 OAU         5.7830    0.3100   -0.3720 o         1 ANW     -0.826800
     22 OAV         4.7600    2.1730    0.2930 o         1 ANW     -0.826800
     23 HNAB        4.3320   -2.9690    0.0630 hn        1 ANW      0.444800
     24 HNAA        5.2850   -1.5430    0.0820 hn        1 ANW      0.444800
     25 HAC        -6.9790    0.9740   -1.4820 hc        1 ANW      0.032700
     26 HACA       -5.4050    0.7380   -2.3550 hc        1 ANW      0.032700
     27 HACB       -6.1880   -0.6570   -1.5040 hc        1 ANW      0.032700
     28 HAD        -5.0910    1.9190   -0.1820 hc        1 ANW      0.051700
     29 HAE        -6.2570   -0.6610    1.0700 hc        1 ANW      0.032700
     30 HAEA       -5.5210    0.7300    1.9660 hc        1 ANW      0.032700
     31 HAEB       -7.0460    0.9700    1.0110 hc        1 ANW      0.032700
     32 HAG        -2.7940    2.0140   -0.1200 ha        1 ANW      0.155000
     33 HAJ        -2.4590   -2.9760   -0.1190 ha        1 ANW      0.147000
     34 HAK        -4.7070   -1.8750   -0.1790 ha        1 ANW      0.126000
     35 HAO         2.3230    2.0890   -0.0070 ha        1 ANW      0.183000
@<TRIPOS>BOND
     1    1   12 ar  
     2    1   13 ar  
     3    2   13 1   
     4    2   23 1   
     5    2   24 1   
     6    3    4 1   
     7    3   25 1   
     8    3   26 1   
     9    3   27 1   
    10    4    5 1   
    11    4    6 1   
    12    4   28 1   
    13    5   29 1   
    14    5   30 1   
    15    5   31 1   
    16    6    7 ar  
    17    6   11 ar  
    18    7    8 ar  
    19    7   32 1   
    20    8    9 ar  
    21    8   17 1   
    22    9   10 ar  
    23    9   19 1   
    24   10   11 ar  
    25   10   33 1   
    26   11   34 1   
    27   12   16 ar  
    28   12   19 1   
    29   13   14 ar  
    30   14   15 ar  
    31   14   18 1   
    32   15   16 ar  
    33   15   35 1   
    34   16   17 1   
    35   17   20 2   
    36   18   21 1   
    37   18   22 1   
@<TRIPOS>SUBSTRUCTURE
     1 ANW         1 TEMP              0 ****  ****    0 ROOT
