@<TRIPOS>MOLECULE
ANW
   35    37     1     0     0
SMALL
bcc


@<TRIPOS>ATOM
      1 NAA        -0.0470   -0.0830   -0.0810 nb        1 ANW     -0.801000
      2 NAB        -2.0870    0.4310    0.9870 nv        1 ANW     -0.944500
      3 CAC         7.8040   -2.5650   -2.1990 c3        1 ANW     -0.087100
      4 CAD         7.4850   -1.2020   -1.6150 c3        1 ANW     -0.015400
      5 CAE         8.1090   -0.1050   -2.4560 c3        1 ANW     -0.087100
      6 CAF         6.0080   -1.0050   -1.4810 ca        1 ANW     -0.131300
      7 CAG         5.4400   -0.8030   -0.2240 ca        1 ANW     -0.048000
      8 CAH         4.0580   -0.6170   -0.0780 ca        1 ANW     -0.213600
      9 CAI         3.2490   -0.6350   -1.2220 ca        1 ANW      0.161100
     10 CAJ         3.8090   -0.8380   -2.5000 ca        1 ANW     -0.170000
     11 CAK         5.1780   -1.0200   -2.6150 ca        1 ANW     -0.085000
     12 CAL         1.2840   -0.2490    0.0360 ca        1 ANW      0.677600
     13 CAM        -0.7460    0.1430    1.0910 ca        1 ANW      0.730200
     14 CAN        -0.0950    0.1440    2.3830 ca        1 ANW     -0.326900
     15 CAO         1.2750   -0.0220    2.4240 ca        1 ANW      0.029000
     16 CAP         2.0210   -0.2240    1.2400 ca        1 ANW     -0.406900
     17 CAQ         3.4610   -0.4050    1.2570 c         1 ANW      0.616300
     18 CAR        -0.8520    0.2900    3.6940 c         1 ANW      0.925200
     19 OAS         1.8800   -0.4650   -1.2140 os        1 ANW     -0.341400
     20 OAT         4.1610   -0.3930    2.2830 o         1 ANW     -0.574100
     21 OAU        -2.0990    0.0550    3.7190 o         1 ANW     -0.826800
     22 OAV        -0.1870    0.6200    4.7120 o         1 ANW     -0.826800
     23 HNAB       -2.5580    0.2250    0.1410 hn        1 ANW      0.444800
     24 HNAA       -2.6090    0.4000    1.8460 hn        1 ANW      0.444800
     25 HAC         7.3810   -2.6620   -3.2280 hc        1 ANW      0.032700
     26 HACA        8.9100   -2.7090   -2.2550 hc        1 ANW      0.032700
     27 HACB        7.3700   -3.3720   -1.5610 hc        1 ANW      0.032700
     28 HAD         7.9460   -1.1520   -0.5850 hc        1 ANW      0.051700
     29 HAE         7.8990    0.8950   -2.0070 hc        1 ANW      0.032700
     30 HAEA        9.2150   -0.2470   -2.5120 hc        1 ANW      0.032700
     31 HAEB        7.6960   -0.1210   -3.4930 hc        1 ANW      0.032700
     32 HAG         6.0640   -0.7860    0.6850 ha        1 ANW      0.155000
     33 HAJ         3.1510   -0.8480   -3.3810 ha        1 ANW      0.147000
     34 HAK         5.6220   -1.1790   -3.6090 ha        1 ANW      0.126000
     35 HAO         1.7950    0.0010    3.4000 ha        1 ANW      0.183000
@<TRIPOS>BOND
     1    1   12 ar  
     2    1   13 ar  
     3    2   13 1   
     4    2   23 1   
     5    2   24 1   
     6    3    4 1   
     7    3   25 1   
     8    3   26 1   
     9    3   27 1   
    10    4    5 1   
    11    4    6 1   
    12    4   28 1   
    13    5   29 1   
    14    5   30 1   
    15    5   31 1   
    16    6    7 ar  
    17    6   11 ar  
    18    7    8 ar  
    19    7   32 1   
    20    8    9 ar  
    21    8   17 1   
    22    9   10 ar  
    23    9   19 1   
    24   10   11 ar  
    25   10   33 1   
    26   11   34 1   
    27   12   16 ar  
    28   12   19 1   
    29   13   14 ar  
    30   14   15 ar  
    31   14   18 1   
    32   15   16 ar  
    33   15   35 1   
    34   16   17 1   
    35   17   20 2   
    36   18   21 1   
    37   18   22 1   
@<TRIPOS>SUBSTRUCTURE
     1 ANW         1 TEMP              0 ****  ****    0 ROOT
