@<TRIPOS>MOLECULE
ANW
   36    38     1     0     0
SMALL
bcc


@<TRIPOS>ATOM
      1 NAA        -0.0360    0.0420   -0.2160 nb        1 ANW     -0.753000
      2 NAB        -2.1240    0.3900    0.8350 nh        1 ANW     -0.952500
      3 CAC         7.8000   -2.5900   -2.2350 c3        1 ANW     -0.090100
      4 CAD         7.5070   -1.2460   -1.5940 c3        1 ANW     -0.023400
      5 CAE         8.1800   -0.1290   -2.3670 c3        1 ANW     -0.090100
      6 CAF         6.0320   -1.0130   -1.4880 ca        1 ANW     -0.100300
      7 CAG         5.4380   -0.8530   -0.2360 ca        1 ANW     -0.047000
      8 CAH         4.0580   -0.6330   -0.1180 ca        1 ANW     -0.208600
      9 CAI         3.2840   -0.5750   -1.2840 ca        1 ANW      0.137100
     10 CAJ         3.8640   -0.7340   -2.5550 ca        1 ANW     -0.149000
     11 CAK         5.2320   -0.9510   -2.6410 ca        1 ANW     -0.073000
     12 CAL         1.2900   -0.1850   -0.0790 ca        1 ANW      0.721600
     13 CAM        -0.7580    0.2160    0.9410 ca        1 ANW      0.742200
     14 CAN        -0.1330    0.1740    2.2390 ca        1 ANW     -0.406900
     15 CAO         1.2420   -0.0260    2.3200 ca        1 ANW      0.081000
     16 CAP         1.9900   -0.2280    1.1550 ca        1 ANW     -0.388900
     17 CAQ         3.4340   -0.4650    1.2030 c         1 ANW      0.614300
     18 CAR        -0.9070    0.3860    3.4700 c         1 ANW      0.648700
     19 OAS         1.9090   -0.3660   -1.3040 os        1 ANW     -0.320400
     20 OAT         4.0700   -0.5210    2.2640 o         1 ANW     -0.540100
     21 OAU        -0.6840    1.2010    4.3630 o         1 ANW     -0.472000
     22 OAV        -2.0260   -0.3740    3.6940 oh        1 ANW     -0.590100
     23 HNAB       -2.5960    0.7820    1.6170 hn        1 ANW      0.443800
     24 HNAA       -2.0530   -1.1180    3.0760 ho        1 ANW      0.435000
     25 HAC         7.4040   -2.6240   -3.2790 hc        1 ANW      0.038700
     26 HACA        7.3270   -3.4130   -1.6490 hc        1 ANW      0.038700
     27 HACB        8.9020   -2.7620   -2.2690 hc        1 ANW      0.038700
     28 HAD         7.9420   -1.2580   -0.5520 hc        1 ANW      0.057700
     29 HAE         7.7970   -0.0850   -3.4150 hc        1 ANW      0.038700
     30 HAEA        9.2830   -0.3010   -2.4010 hc        1 ANW      0.038700
     31 HAEB        7.9880    0.8560   -1.8770 hc        1 ANW      0.038700
     32 HAG         6.0410   -0.8970    0.6880 ha        1 ANW      0.163000
     33 HAJ         3.2310   -0.6840   -3.4530 ha        1 ANW      0.160000
     34 HAK         5.6990   -1.0760   -3.6320 ha        1 ANW      0.145000
     35 HAO         1.7540   -0.0300    3.3000 ha        1 ANW      0.182000
     36 HAB3       -2.5230    0.5380   -0.0630 hn        1 ANW      0.443800
@<TRIPOS>BOND
     1    1   12 ar  
     2    1   13 ar  
     3    2   13 1   
     4    2   23 1   
     5    2   36 1   
     6    3    4 1   
     7    3   25 1   
     8    3   26 1   
     9    3   27 1   
    10    4    5 1   
    11    4    6 1   
    12    4   28 1   
    13    5   29 1   
    14    5   30 1   
    15    5   31 1   
    16    6    7 ar  
    17    6   11 ar  
    18    7    8 ar  
    19    7   32 1   
    20    8    9 ar  
    21    8   17 1   
    22    9   10 ar  
    23    9   19 1   
    24   10   11 ar  
    25   10   33 1   
    26   11   34 1   
    27   12   16 ar  
    28   12   19 1   
    29   13   14 ar  
    30   14   15 ar  
    31   14   18 1   
    32   15   16 ar  
    33   15   35 1   
    34   16   17 1   
    35   17   20 2   
    36   18   21 2   
    37   18   22 1   
    38   22   24 1   
@<TRIPOS>SUBSTRUCTURE
     1 ANW         1 TEMP              0 ****  ****    0 ROOT
