@<TRIPOS>MOLECULE
ANW
   35    37     1     0     0
SMALL
bcc


@<TRIPOS>ATOM
      1 NAA        -0.0470   -0.0840   -0.0770 nb        1 ANW     -0.801000
      2 NAB        -2.0860    0.4270    0.9930 nh        1 ANW     -0.944500
      3 CAC         7.8030   -2.5600   -2.2060 c3        1 ANW     -0.087100
      4 CAD         7.4840   -1.1990   -1.6180 c3        1 ANW     -0.015400
      5 CAE         8.1070   -0.0990   -2.4570 c3        1 ANW     -0.087100
      6 CAF         6.0070   -1.0020   -1.4830 ca        1 ANW     -0.131300
      7 CAG         5.4400   -0.8040   -0.2250 ca        1 ANW     -0.048000
      8 CAH         4.0580   -0.6180   -0.0780 ca        1 ANW     -0.213600
      9 CAI         3.2480   -0.6330   -1.2210 ca        1 ANW      0.161100
     10 CAJ         3.8070   -0.8330   -2.5000 ca        1 ANW     -0.170000
     11 CAK         5.1760   -1.0150   -2.6160 ca        1 ANW     -0.085000
     12 CAL         1.2840   -0.2510    0.0390 ca        1 ANW      0.677600
     13 CAM        -0.7450    0.1390    1.0960 ca        1 ANW      0.730200
     14 CAN        -0.0940    0.1360    2.3880 ca        1 ANW     -0.326900
     15 CAO         1.2760   -0.0300    2.4280 ca        1 ANW      0.029000
     16 CAP         2.0220   -0.2280    1.2430 ca        1 ANW     -0.406900
     17 CAQ         3.4610   -0.4090    1.2590 c         1 ANW      0.616300
     18 CAR        -0.8500    0.2790    3.7000 c         1 ANW      0.925200
     19 OAS         1.8790   -0.4630   -1.2120 os        1 ANW     -0.341400
     20 OAT         4.1620   -0.3990    2.2840 o         1 ANW     -0.574100
     21 OAU        -2.0970    0.0440    3.7250 o         1 ANW     -0.826800
     22 OAV        -0.1850    0.6060    4.7180 o         1 ANW     -0.826800
     23 HNAB       -2.6080    0.3930    1.8530 hn        1 ANW      0.444800
     24 HNAA       -2.5580    0.2230    0.1470 hn        1 ANW      0.444800
     25 HAC         7.3690   -3.3680   -1.5700 hc        1 ANW      0.032700
     26 HACA        7.3790   -2.6540   -3.2350 hc        1 ANW      0.032700
     27 HACB        8.9090   -2.7040   -2.2630 hc        1 ANW      0.032700
     28 HAD         7.9450   -1.1510   -0.5880 hc        1 ANW      0.051700
     29 HAE         7.6940   -0.1120   -3.4940 hc        1 ANW      0.032700
     30 HAEA        9.2130   -0.2410   -2.5140 hc        1 ANW      0.032700
     31 HAEB        7.8970    0.9000   -2.0050 hc        1 ANW      0.032700
     32 HAG         6.0640   -0.7890    0.6840 ha        1 ANW      0.155000
     33 HAJ         3.1500   -0.8410   -3.3800 ha        1 ANW      0.147000
     34 HAK         5.6200   -1.1710   -3.6110 ha        1 ANW      0.126000
     35 HAO         1.7970   -0.0100    3.4030 ha        1 ANW      0.183000
@<TRIPOS>BOND
     1    1   12 ar  
     2    1   13 ar  
     3    2   13 1   
     4    2   23 1   
     5    2   24 1   
     6    3    4 1   
     7    3   25 1   
     8    3   26 1   
     9    3   27 1   
    10    4    5 1   
    11    4    6 1   
    12    4   28 1   
    13    5   29 1   
    14    5   30 1   
    15    5   31 1   
    16    6    7 ar  
    17    6   11 ar  
    18    7    8 ar  
    19    7   32 1   
    20    8    9 ar  
    21    8   17 1   
    22    9   10 ar  
    23    9   19 1   
    24   10   11 ar  
    25   10   33 1   
    26   11   34 1   
    27   12   16 ar  
    28   12   19 1   
    29   13   14 ar  
    30   14   15 ar  
    31   14   18 1   
    32   15   16 ar  
    33   15   35 1   
    34   16   17 1   
    35   17   20 2   
    36   18   21 1   
    37   18   22 1   
@<TRIPOS>SUBSTRUCTURE
     1 ANW         1 TEMP              0 ****  ****    0 ROOT
