@<TRIPOS>MOLECULE
ANW
   35    33     1     0     0
SMALL
bcc


@<TRIPOS>ATOM
      1 NAA        -3.8890   -0.1190   -0.0570 n1        1 ANW     -0.275000
      2 NAB        -5.7720   -0.7580    0.6910 n3        1 ANW     -0.343000
      3 CAC         4.4700   -1.2760   -1.1480 c3        1 ANW     -0.207000
      4 CAD         3.9660    0.0710   -1.6190 c3        1 ANW     -0.060000
      5 CAE         4.7640    1.1680   -0.9510 c3        1 ANW     -0.207000
      6 CAF         2.5050    0.2180   -1.2560 c2        1 ANW     -0.124000
      7 CAG         1.7890    0.3290   -0.0700 c2        1 ANW     -0.046000
      8 CAH         0.3880    0.2500   -0.0850 c1        1 ANW     -0.192000
      9 CAI        -0.2790    0.0610   -1.2780 c1        1 ANW      0.116000
     10 CAJ         0.4450   -0.0510   -2.4770 c1        1 ANW     -0.171000
     11 CAK         1.8310    0.0280   -2.4600 c1        1 ANW     -0.088000
     12 CAL        -2.5150    0.0240   -0.0360 c1        1 ANW      0.179000
     13 CAM        -4.5990   -0.0780    1.1090 c2        1 ANW      0.210000
     14 CAN        -3.9390    0.1070    2.3210 c2        1 ANW     -0.241000
     15 CAO        -2.5790    0.2490    2.3440 c1        1 ANW      0.029000
     16 CAP        -1.8590    0.2080    1.1630 c1        1 ANW     -0.321000
     17 CAQ        -0.3790    0.3360    1.1840 c2        1 ANW      0.336000
     18 CAR        -4.9180    0.1430    3.4740 c2        1 ANW      0.374000
     19 OAS        -1.7550    0.0310   -1.3020 os        1 ANW     -0.126000
     20 OAT         0.2090    0.4160    2.2440 o         1 ANW     -0.335000
     21 OAU        -5.6170    1.1700    3.6750 o         1 ANW     -0.561500
     22 OAV        -5.0390   -0.8590    4.2270 o         1 ANW     -0.561500
     23 HNAB       -6.4580   -0.2920    0.3070 hn        1 ANW      0.240000
     24 HNAA       -5.8370   -1.6640    0.7970 hn        1 ANW      0.240000
     25 HAC         4.0740   -1.4870   -0.2770 hc        1 ANW      0.074000
     26 HACA        4.2150   -1.9650   -1.7980 hc        1 ANW      0.074000
     27 HACB        5.4460   -1.2490   -1.0660 hc        1 ANW      0.074000
     28 HAD         4.0700    0.1370   -2.5870 hc        1 ANW      0.079000
     29 HAE         4.3410    2.0340   -1.1290 hc        1 ANW      0.074000
     30 HAEA        4.7910    1.0110    0.0160 hc        1 ANW      0.074000
     31 HAEB        5.6770    1.1710   -1.3060 hc        1 ANW      0.074000
     32 HAG         2.2610    0.4780    0.7720 ha        1 ANW      0.155000
     33 HAJ        -0.0260   -0.1840   -3.3210 ha        1 ANW      0.147000
     34 HAK         2.3340   -0.0410   -3.2940 ha        1 ANW      0.124000
     35 HAO        -2.1160    0.3800    3.1940 ha        1 ANW      0.183000
@<TRIPOS>BOND
     1    1   13 1   
     2    2   13 1   
     3    2   23 1   
     4    2   24 1   
     5    3    4 1   
     6    3   25 1   
     7    3   26 1   
     8    3   27 1   
     9    4    5 1   
    10    4    6 1   
    11    4   28 1   
    12    5   29 1   
    13    5   30 1   
    14    5   31 1   
    15    6    7 1   
    16    6   11 1   
    17    7    8 1   
    18    7   32 1   
    19    8   17 1   
    20    9   10 1   
    21    9   19 1   
    22   10   33 1   
    23   11   34 1   
    24   12   16 1   
    25   12   19 1   
    26   13   14 1   
    27   14   15 1   
    28   14   18 1   
    29   15   35 1   
    30   16   17 1   
    31   17   20 1   
    32   18   21 1   
    33   18   22 1   
@<TRIPOS>SUBSTRUCTURE
     1 ANW         1 TEMP              0 ****  ****    0 ROOT
