@<TRIPOS>MOLECULE
ANX
   17    16     1     0     0
SMALL
bcc


@<TRIPOS>ATOM
      1 O1         -0.1340   -0.1160    0.1420 oh        1 ANX     -0.171000
      2 C1          1.2340   -0.0670    0.0480 c2        1 ANX      0.116000
      3 C2          1.9660    0.0600    1.2100 c2        1 ANX     -0.312000
      4 N2          1.3540    0.0900    2.5400 no        1 ANX      0.599000
      5 O21         2.0790    0.2420    3.4930 o         1 ANX     -0.365500
      6 O22         0.1670   -0.0460    2.6580 o         1 ANX     -0.365500
      7 C3          3.4580    0.2100    1.1720 c3        1 ANX     -0.011000
      8 C4          3.9250    0.1440   -0.1820 c1        1 ANX      0.035000
      9 O41         5.7150    0.5030   -3.0020 o         1 ANX     -0.444700
     10 O42         4.0050   -0.6500   -3.4580 o         1 ANX     -0.444700
     11 C5          4.2520    0.0600   -1.3370 c1        1 ANX     -0.209000
     12 C6          1.8150    0.0100   -1.2500 c1        1 ANX     -0.053000
     13 H5         -0.5060   -0.1890   -0.7540 ho        1 ANX      0.229000
     14 H3          3.7550    1.1990    1.6340 hc        1 ANX      0.156500
     15 H4          3.9490   -0.5990    1.7900 hc        1 ANX      0.156500
     16 H6          1.9300   -0.8200   -1.9490 ha        1 ANX      0.156000
     17 N1          4.6890   -0.0290   -2.6870 no        1 ANX      0.928400
@<TRIPOS>BOND
     1    1    2 1   
     2    1   13 1   
     3    2    3 1   
     4    2   12 1   
     5    3    4 1   
     6    3    7 1   
     7    4    5 1   
     8    4    6 1   
     9    7    8 1   
    10    7   14 1   
    11    7   15 1   
    12    8   11 1   
    13    9   17 2   
    14   10   17 2   
    15   11   17 1   
    16   12   16 1   
@<TRIPOS>SUBSTRUCTURE
     1 ANX         1 TEMP              0 ****  ****    0 ROOT
