@<TRIPOS>MOLECULE
ANX
   17    16     1     0     0
SMALL
bcc


@<TRIPOS>ATOM
      1 O1         -0.0900   -0.0000    0.2140 oh        1 ANX     -0.465100
      2 C1          1.2650    0.0220    0.3430 ce        1 ANX      0.237000
      3 C2          1.9690    0.1690    1.6310 ce        1 ANX     -0.219100
      4 N2          1.2930   -0.2900    2.8790 no        1 ANX      0.293100
      5 O21         1.9480   -0.4070    3.8750 o         1 ANX     -0.196000
      6 O22         0.1120   -0.5200    2.8530 o         1 ANX     -0.196000
      7 C3          3.2230    0.6650    1.6970 c2        1 ANX     -0.041000
      8 C4          2.6700   -0.1710   -1.8170 c1        1 ANX      0.123100
      9 O41         5.4530   -0.0420   -1.7970 o         1 ANX     -0.216500
     10 O42         5.4920   -0.3850   -3.8740 o         1 ANX     -0.216500
     11 C5          3.4180   -0.2600   -2.8980 c2        1 ANX     -0.276200
     12 C6          1.9870   -0.0770   -0.7730 c1        1 ANX     -0.146900
     13 H5         -0.5320    0.1400    1.0700 ho        1 ANX      0.470000
     14 H3          3.7500    1.0010    0.7880 ha        1 ANX      0.173500
     15 H4          3.7800    0.7530    2.6450 ha        1 ANX      0.173500
     16 H6          3.0250   -0.3670   -3.9240 h4        1 ANX      0.207000
     17 N1          4.8890   -0.2290   -2.8460 no        1 ANX      0.294100
@<TRIPOS>BOND
     1    1    2 1   
     2    1   13 1   
     3    2    3 1   
     4    2   12 2   
     5    3    4 1   
     6    3    7 2   
     7    4    5 1   
     8    4    6 1   
     9    7   14 1   
    10    7   15 1   
    11    8   11 2   
    12    8   12 2   
    13    9   17 1   
    14   10   17 1   
    15   11   16 1   
    16   11   17 1   
@<TRIPOS>SUBSTRUCTURE
     1 ANX         1 TEMP              0 ****  ****    0 ROOT
