@<TRIPOS>MOLECULE
ANX
   17    17     1     0     0
SMALL
bcc


@<TRIPOS>ATOM
      1 O1          1.9060   -1.1290    4.0510 oh        1 ANX     -0.480100
      2 C1          1.7990   -1.0480    2.6980 ca        1 ANX      0.216100
      3 C2          0.7510   -0.4610    1.9570 ca        1 ANX     -0.245200
      4 N2         -0.4190    0.1710    2.6090 no        1 ANX      0.323200
      5 O21        -1.2780    0.6530    1.9260 o         1 ANX     -0.204000
      6 O22        -0.4800    0.1840    3.8140 o         1 ANX     -0.204000
      7 C3          0.7990   -0.4640    0.5450 ca        1 ANX     -0.044000
      8 C4          1.8650   -1.0380   -0.1250 ca        1 ANX     -0.128000
      9 O41         4.0620   -2.2240   -1.3020 o         1 ANX     -0.187500
     10 O42         4.9450   -2.7390    0.5390 o         1 ANX     -0.187500
     11 C5          2.9090   -1.6230    0.6210 ca        1 ANX     -0.098200
     12 C6          2.8900   -1.6360    2.0100 ca        1 ANX     -0.120000
     13 H5          1.1470   -0.7200    4.5030 ho        1 ANX      0.475000
     14 H3         -0.0260   -0.0020   -0.0290 ha        1 ANX      0.186000
     15 H4          1.8990   -1.0380   -1.2280 ha        1 ANX      0.187000
     16 H6          3.7050   -2.0920    2.6020 ha        1 ANX      0.201000
     17 N1          4.0610   -2.2430   -0.1030 no        1 ANX      0.308200
@<TRIPOS>BOND
     1    1    2 1   
     2    1   13 1   
     3    2    3 ar  
     4    2   12 ar  
     5    3    4 1   
     6    3    7 ar  
     7    4    5 1   
     8    4    6 1   
     9    7    8 ar  
    10    7   14 1   
    11    8   11 ar  
    12    8   15 1   
    13    9   17 1   
    14   10   17 1   
    15   11   12 ar  
    16   11   17 1   
    17   12   16 1   
@<TRIPOS>SUBSTRUCTURE
     1 ANX         1 TEMP              0 ****  ****    0 ROOT
