@<TRIPOS>MOLECULE
ANX
   17    15     1     0     0
SMALL
bcc


@<TRIPOS>ATOM
      1 O1         -2.5910   -0.1040    0.0120 oh        1 ANX     -0.196000
      2 C1         -1.1840   -0.0750    0.0220 c2        1 ANX      0.144000
      3 C2         -0.5020    0.0110    1.2250 c2        1 ANX     -0.140000
      4 N2         -1.2200    0.0140    2.4490 no        1 ANX      0.577000
      5 O21        -0.5500   -0.1050    3.6340 o         1 ANX     -0.337000
      6 O22        -2.4400    0.0930    2.4420 o         1 ANX     -0.337000
      7 C3          0.8830    0.0690    1.2340 c1        1 ANX     -0.043000
      8 C4          1.5850    0.0400    0.0400 c1        1 ANX     -0.122000
      9 N1          1.6200   -0.0640   -2.3840 n2        1 ANX      0.563000
     10 O41         2.1370   -1.2360   -2.8540 os        1 ANX     -0.335000
     11 O42         1.7760    0.9700   -3.0150 o         1 ANX     -0.344000
     12 C5          0.9030   -0.0460   -1.1640 c2        1 ANX     -0.050000
     13 C6         -0.4820   -0.1040   -1.1720 c2        1 ANX     -0.179000
     14 H5         -2.8950    0.4890   -0.5770 ho        1 ANX      0.237000
     15 H3          1.3630    0.1300    2.0820 ha        1 ANX      0.189000
     16 H4          2.5610    0.0810    0.0460 ha        1 ANX      0.187000
     17 H6         -0.9620   -0.1650   -2.0200 ha        1 ANX      0.184000
@<TRIPOS>BOND
     1    1    2 1   
     2    1   14 1   
     3    2    3 1   
     4    2   13 1   
     5    3    4 1   
     6    3    7 1   
     7    4    5 1   
     8    4    6 1   
     9    7   15 1   
    10    8   12 1   
    11    8   16 1   
    12    9   11 1   
    13    9   12 1   
    14   12   13 1   
    15   13   17 1   
@<TRIPOS>SUBSTRUCTURE
     1 ANX         1 TEMP              0 ****  ****    0 ROOT
