@<TRIPOS>MOLECULE
ANX
   17    15     1     0     0
SMALL
bcc


@<TRIPOS>ATOM
      1 O1         -0.1750   -0.7890    0.0820 oh        1 ANX     -0.238000
      2 C1          1.1770   -0.5740    0.2750 c2        1 ANX     -0.175000
      3 C2          1.6120    0.3590    1.3270 c2        1 ANX     -0.150000
      4 N2          1.0900    0.0830    2.6990 no        1 ANX      0.563000
      5 O21         1.5200    0.7150    3.6230 o         1 ANX     -0.355000
      6 O22         0.2480   -0.7660    2.8370 o         1 ANX     -0.355000
      7 C3          2.4250    1.4060    1.1020 c2        1 ANX     -0.073000
      8 C4          4.9250   -1.8580   -3.4300 c1        1 ANX      0.367000
      9 O41         6.0010    0.8170   -2.7910 o         1 ANX     -0.494200
     10 O42         4.5030    0.9880   -1.3230 o         1 ANX     -0.494200
     11 C5          4.5460   -0.9440   -2.5490 c2        1 ANX     -0.555000
     12 C6          2.0670   -1.1350   -0.5570 c1        1 ANX      0.204000
     13 H5         -0.5400   -1.1470    0.9110 ho        1 ANX      0.252000
     14 H3          2.8090    1.6230    0.0910 ha        1 ANX      0.172500
     15 H4          2.7540    2.0870    1.9040 ha        1 ANX      0.172500
     16 H6          3.6360   -1.2370   -1.9320 h4        1 ANX      0.273000
     17 N1          5.0540    0.3750   -2.2010 no        1 ANX      0.885400
@<TRIPOS>BOND
     1    1    2 1   
     2    1   13 1   
     3    2    3 1   
     4    2   12 1   
     5    3    4 1   
     6    3    7 1   
     7    4    5 1   
     8    4    6 1   
     9    7   14 1   
    10    7   15 1   
    11    8   11 1   
    12    9   17 2   
    13   10   17 2   
    14   11   16 1   
    15   11   17 1   
@<TRIPOS>SUBSTRUCTURE
     1 ANX         1 TEMP              0 ****  ****    0 ROOT
