@<TRIPOS>MOLECULE
ANY
   82    83     1     0     0
SMALL
bcc


@<TRIPOS>ATOM
      1 C1         -0.5960    0.0610   -5.7230 ca        1 ANY      0.142100
      2 C2         -0.2510    1.1960   -6.5300 ca        1 ANY      0.033600
      3 C3         -0.0560    2.4290   -5.8850 ca        1 ANY     -0.111000
      4 C4         -0.2000    2.5390   -4.5020 ca        1 ANY     -0.141000
      5 C5         -0.5220    1.4350   -3.7270 ca        1 ANY     -0.096000
      6 C6         -0.7080    0.1830   -4.3290 ca        1 ANY     -0.200600
      7 C7         -1.0500   -1.0060   -3.5020 c         1 ANY      0.685700
      8 N1         -0.1320    1.0350   -7.9200 n         1 ANY     -0.472100
      9 N2         -0.5070   -1.0760   -2.2270 n         1 ANY     -0.565900
     10 O1         -0.7560   -1.1280   -6.3940 oh        1 ANY     -0.528100
     11 O3         -1.8060   -1.9110   -3.9190 o         1 ANY     -0.620100
     12 C9         -0.7040   -2.2270   -1.3960 c3        1 ANY     -0.002300
     13 C10         0.5370   -2.6790   -0.5800 c3        1 ANY      0.151100
     14 O4         -2.4430   -1.0510    0.1650 os        1 ANY     -0.416900
     15 O5          0.6830   -1.8930    0.6050 os        1 ANY     -0.442900
     16 C11        -1.7110    0.1460    0.4470 c3        1 ANY      0.151100
     17 C12        -1.0250   -0.0160    1.8290 c3        1 ANY      0.120100
     18 C13         0.5000    0.1980    1.7440 c3        1 ANY     -0.125700
     19 C14         1.0240   -0.5690    0.5550 c         1 ANY      0.734600
     20 O6          1.6620   -0.1300   -0.4020 o         1 ANY     -0.632500
     21 C15         1.1870   -0.2530    3.0240 c3        1 ANY     -0.077400
     22 C16         2.6150    0.2430    3.0940 c3        1 ANY     -0.083400
     23 C20        -1.8940   -2.1560   -0.4310 c         1 ANY      0.712600
     24 O7         -2.5380   -3.1700   -0.1520 o         1 ANY     -0.567500
     25 O8         -1.5490    0.9960    2.6970 os        1 ANY     -0.441900
     26 C21        -1.9880    0.6340    3.9480 c         1 ANY      0.636100
     27 C22        -2.6510    1.7870    4.6620 c3        1 ANY     -0.104700
     28 C26         1.7950   -2.8030   -1.4040 c3        1 ANY     -0.129100
     29 O9         -1.8010   -0.5170    4.3350 o         1 ANY     -0.522000
     30 C27        -2.7520    1.2540    0.4150 c3        1 ANY     -0.087100
     31 C23        -4.1590    1.6770    4.4610 c3        1 ANY     -0.077400
     32 C17         3.3110   -0.2800    4.3320 c3        1 ANY     -0.077400
     33 C8          0.2860    1.9720   -8.8420 c         1 ANY      0.667900
     34 C24        -4.8680    2.9620    4.8020 c3        1 ANY     -0.094100
     35 C25        -2.2650    1.7600    6.1250 c3        1 ANY     -0.095100
     36 C18         4.7350    0.2280    4.4150 c3        1 ANY     -0.079400
     37 O2          0.6150    3.1390   -8.5830 o         1 ANY     -0.591100
     38 C19         5.4330   -0.2980    5.6500 c3        1 ANY     -0.079400
     39 C28         6.8570    0.2090    5.7360 c3        1 ANY     -0.080400
     40 C29         7.5570   -0.3120    6.9640 c3        1 ANY     -0.093100
     41 H3          0.2080    3.3280   -6.4700 ha        1 ANY      0.181000
     42 H4         -0.0540    3.5210   -4.0260 ha        1 ANY      0.144000
     43 H5         -0.6440    1.5560   -2.6400 ha        1 ANY      0.138000
     44 HN1        -0.3510    0.1200   -8.2560 hn        1 ANY      0.336500
     45 HN2         0.2410   -0.4580   -1.9960 hn        1 ANY      0.338500
     46 HO1        -1.3170   -1.7240   -5.8700 ho        1 ANY      0.466000
     47 H9         -0.9670   -3.1060   -2.0780 h1        1 ANY      0.125700
     48 H10         0.2720   -3.6890   -0.1330 h1        1 ANY      0.106700
     49 H11        -0.9380    0.3560   -0.3350 h1        1 ANY      0.050700
     50 H12        -1.2410   -1.0460    2.2360 h1        1 ANY      0.118700
     51 H13         0.7090    1.2900    1.5650 hc        1 ANY      0.096700
     52 H151        1.1630   -1.3740    3.0850 hc        1 ANY      0.066700
     53 H152        0.6020    0.1390    3.8980 hc        1 ANY      0.066700
     54 H161        2.6260    1.3650    3.1020 hc        1 ANY      0.044200
     55 H162        3.1730   -0.0860    2.1770 hc        1 ANY      0.044200
     56 H22        -2.2900    2.7470    4.1940 hc        1 ANY      0.080700
     57 H261        2.6250   -3.1800   -0.7560 hc        1 ANY      0.063033
     58 H262        1.6230   -3.5320   -2.2330 hc        1 ANY      0.063033
     59 H263        2.1160   -1.8270   -1.8400 hc        1 ANY      0.063033
     60 H271       -3.1930    1.3260   -0.6070 hc        1 ANY      0.055700
     61 H272       -3.5690    1.0400    1.1440 hc        1 ANY      0.055700
     62 H273       -2.2650    2.2210    0.6870 hc        1 ANY      0.055700
     63 H231       -4.3640    1.4160    3.3870 hc        1 ANY      0.056200
     64 H232       -4.5560    0.8400    5.0930 hc        1 ANY      0.056200
     65 H171        3.3120   -1.4020    4.3170 hc        1 ANY      0.043200
     66 H172        2.7430    0.0380    5.2450 hc        1 ANY      0.043200
     67 H8          0.2970    1.5630   -9.8820 h5        1 ANY      0.036200
     68 H241       -5.9630    2.8530    4.6120 hc        1 ANY      0.038700
     69 H242       -4.7230    3.2270    5.8770 hc        1 ANY      0.038700
     70 H243       -4.4850    3.8060    4.1780 hc        1 ANY      0.038700
     71 H251       -2.5440    0.7800    6.5840 hc        1 ANY      0.050367
     72 H252       -1.1640    1.9040    6.2390 hc        1 ANY      0.050367
     73 H253       -2.7920    2.5790    6.6720 hc        1 ANY      0.050367
     74 H181        4.7340    1.3490    4.4320 hc        1 ANY      0.040700
     75 H182        5.3010   -0.0880    3.4990 hc        1 ANY      0.040700
     76 H191        5.4350   -1.4200    5.6330 hc        1 ANY      0.040200
     77 H192        4.8670    0.0170    6.5660 hc        1 ANY      0.040200
     78 H281        6.8530    1.3310    5.7520 hc        1 ANY      0.038700
     79 H282        7.4210   -0.1060    4.8180 hc        1 ANY      0.038700
     80 H291        8.6040    0.0730    7.0080 hc        1 ANY      0.032700
     81 H292        7.0220    0.0120    7.8900 hc        1 ANY      0.032700
     82 H293        7.5920   -1.4290    6.9540 hc        1 ANY      0.032700
@<TRIPOS>BOND
     1    1    2 ar  
     2    1    6 ar  
     3    1   10 1   
     4    2    3 ar  
     5    2    8 1   
     6    3    4 ar  
     7    3   41 1   
     8    4    5 ar  
     9    4   42 1   
    10    5    6 ar  
    11    5   43 1   
    12    6    7 1   
    13    7    9 1   
    14    7   11 2   
    15    8   33 1   
    16    8   44 1   
    17    9   12 1   
    18    9   45 1   
    19   10   46 1   
    20   12   13 1   
    21   12   23 1   
    22   12   47 1   
    23   13   15 1   
    24   13   28 1   
    25   13   48 1   
    26   14   16 1   
    27   14   23 1   
    28   15   19 1   
    29   16   17 1   
    30   16   30 1   
    31   16   49 1   
    32   17   18 1   
    33   17   25 1   
    34   17   50 1   
    35   18   19 1   
    36   18   21 1   
    37   18   51 1   
    38   19   20 2   
    39   21   22 1   
    40   21   52 1   
    41   21   53 1   
    42   22   32 1   
    43   22   54 1   
    44   22   55 1   
    45   23   24 2   
    46   25   26 1   
    47   26   27 1   
    48   26   29 2   
    49   27   31 1   
    50   27   35 1   
    51   27   56 1   
    52   28   57 1   
    53   28   58 1   
    54   28   59 1   
    55   30   60 1   
    56   30   61 1   
    57   30   62 1   
    58   31   34 1   
    59   31   63 1   
    60   31   64 1   
    61   32   36 1   
    62   32   65 1   
    63   32   66 1   
    64   33   37 2   
    65   33   67 1   
    66   34   68 1   
    67   34   69 1   
    68   34   70 1   
    69   35   71 1   
    70   35   72 1   
    71   35   73 1   
    72   36   38 1   
    73   36   74 1   
    74   36   75 1   
    75   38   39 1   
    76   38   76 1   
    77   38   77 1   
    78   39   40 1   
    79   39   78 1   
    80   39   79 1   
    81   40   80 1   
    82   40   81 1   
    83   40   82 1   
@<TRIPOS>SUBSTRUCTURE
     1 ANY         1 TEMP              0 ****  ****    0 ROOT
