@<TRIPOS>MOLECULE
ANY
   83    84     1     0     0
SMALL
bcc


@<TRIPOS>ATOM
      1 C1          0.1550   -0.6550   -1.4930 ca        1 ANY      0.162100
      2 C2          1.4490   -0.9010   -2.0700 ca        1 ANY      0.065600
      3 C3          2.4940   -1.2540   -1.1970 ca        1 ANY     -0.084000
      4 C4          2.2760   -1.3620    0.1800 ca        1 ANY     -0.107000
      5 C5          1.0370   -1.1050    0.7330 ca        1 ANY     -0.118000
      6 C6         -0.0400   -0.7280   -0.0970 ca        1 ANY     -0.247600
      7 C7         -1.3540   -0.4110    0.4470 c         1 ANY      0.589700
      8 N1          1.6130   -0.7880   -3.4520 n         1 ANY     -0.481100
      9 N2         -1.3810   -0.0190    1.9080 n4        1 ANY     -0.672800
     10 O1         -0.8290   -0.2680   -2.3660 oh        1 ANY     -0.499100
     11 O3         -2.4340   -0.3990   -0.1380 o         1 ANY     -0.479100
     12 C9         -2.6910    0.5200    2.4050 c3        1 ANY      0.040500
     13 C10        -3.6030   -0.5390    3.0890 c3        1 ANY      0.163100
     14 O4         -3.3860    1.9110    4.2480 os        1 ANY     -0.406900
     15 O5         -3.5750   -0.4540    4.5130 os        1 ANY     -0.406900
     16 C11        -3.0170    2.4950    5.5330 c3        1 ANY      0.146100
     17 C12        -3.3910    1.4300    6.5940 c3        1 ANY      0.134100
     18 C13        -2.5060    0.1680    6.5780 c3        1 ANY     -0.118700
     19 C14        -2.3850   -0.3920    5.1870 c         1 ANY      0.753600
     20 O6         -1.3640   -0.7490    4.5850 o         1 ANY     -0.691500
     21 C15        -3.0790   -0.8940    7.5110 c3        1 ANY     -0.078400
     22 C16        -2.0760   -1.9910    7.7930 c3        1 ANY     -0.085400
     23 C20        -2.4000    1.6920    3.3520 c         1 ANY      0.707600
     24 O7         -1.3770    2.3780    3.3200 o         1 ANY     -0.589500
     25 O8         -3.1650    2.0690    7.8540 os        1 ANY     -0.448900
     26 C21        -4.1830    2.0810    8.7880 c         1 ANY      0.638100
     27 C22        -3.7950    2.8470   10.0260 c3        1 ANY     -0.101700
     28 C26        -3.3930   -1.9620    2.6200 c3        1 ANY     -0.152100
     29 O9         -5.2260    1.4960    8.5090 o         1 ANY     -0.516000
     30 C27        -3.8370    3.7570    5.6850 c3        1 ANY     -0.111100
     31 C23        -4.4880    4.2060    9.9930 c3        1 ANY     -0.075400
     32 C17        -2.6950   -3.0870    8.6340 c3        1 ANY     -0.079400
     33 C8          2.7920   -0.9460   -4.1740 c         1 ANY      0.674900
     34 C24        -3.8760    5.1710   10.9750 c3        1 ANY     -0.097100
     35 C25        -4.1790    2.0390   11.2490 c3        1 ANY     -0.097100
     36 C18        -1.6900   -4.1780    8.9340 c3        1 ANY     -0.078400
     37 O2          3.8840   -1.2280   -3.6700 o         1 ANY     -0.559100
     38 C19        -2.3090   -5.2780    9.7700 c3        1 ANY     -0.080400
     39 C28        -1.3050   -6.3700   10.0730 c3        1 ANY     -0.079400
     40 C29        -1.9180   -7.4670   10.9050 c3        1 ANY     -0.094100
     41 H3          3.5080   -1.4640   -1.5920 ha        1 ANY      0.207000
     42 H4          3.1170   -1.6610    0.8290 ha        1 ANY      0.170000
     43 H5          0.9140   -1.2270    1.8200 ha        1 ANY      0.137000
     44 HN1         0.7900   -0.5440   -3.9630 hn        1 ANY      0.343500
     45 HN2        -0.6460    0.6980    2.0530 hn        1 ANY      0.489800
     46 HO1        -1.6880   -0.6170   -2.0740 ho        1 ANY      0.458000
     47 H9         -3.2620    0.9310    1.5130 hx        1 ANY      0.155700
     48 H10        -4.6700   -0.2120    2.8730 h1        1 ANY      0.131700
     49 H11        -1.9170    2.7180    5.5620 h1        1 ANY      0.094700
     50 H12        -4.4710    1.1350    6.4610 h1        1 ANY      0.117700
     51 H13        -1.4660    0.4440    6.9180 hc        1 ANY      0.109700
     52 H151       -4.0130   -1.3230    7.0600 hc        1 ANY      0.070700
     53 H152       -3.3770   -0.3930    8.4720 hc        1 ANY      0.070700
     54 H161       -1.1870   -1.5640    8.3270 hc        1 ANY      0.044700
     55 H162       -1.7040   -2.4210    6.8240 hc        1 ANY      0.044700
     56 H22        -2.6790    3.0050   10.0140 hc        1 ANY      0.085700
     57 H261       -2.4580   -2.4040    3.0430 hc        1 ANY      0.074033
     58 H262       -3.3740   -2.0080    1.5040 hc        1 ANY      0.074033
     59 H263       -4.2480   -2.5880    2.9830 hc        1 ANY      0.074033
     60 H271       -4.9240    3.5380    5.5480 hc        1 ANY      0.068033
     61 H272       -3.6740    4.1750    6.7090 hc        1 ANY      0.068033
     62 H273       -3.5240    4.5120    4.9250 hc        1 ANY      0.068033
     63 H231       -5.5790    4.0700   10.2180 hc        1 ANY      0.052700
     64 H232       -4.4070    4.6320    8.9570 hc        1 ANY      0.052700
     65 H171       -3.5770   -3.5250    8.0950 hc        1 ANY      0.046200
     66 H172       -3.0780   -2.6530    9.5950 hc        1 ANY      0.046200
     67 H8          2.6390   -0.7890   -5.2690 h5        1 ANY      0.065200
     68 H241       -4.3880    6.1610   10.9020 hc        1 ANY      0.044367
     69 H242       -2.7890    5.3190   10.7640 hc        1 ANY      0.044367
     70 H243       -3.9840    4.7990   12.0230 hc        1 ANY      0.044367
     71 H251       -5.2730    1.8140   11.2430 hc        1 ANY      0.055700
     72 H252       -3.9340    2.6160   12.1730 hc        1 ANY      0.055700
     73 H253       -3.6170    1.0750   11.2710 hc        1 ANY      0.055700
     74 H181       -0.8110   -3.7420    9.4790 hc        1 ANY      0.040200
     75 H182       -1.3020   -4.6090    7.9740 hc        1 ANY      0.040200
     76 H191       -3.1870   -5.7160    9.2260 hc        1 ANY      0.042200
     77 H192       -2.6970   -4.8480   10.7310 hc        1 ANY      0.042200
     78 H281       -0.4270   -5.9300   10.6170 hc        1 ANY      0.038700
     79 H282       -0.9170   -6.7980    9.1110 hc        1 ANY      0.038700
     80 H291       -2.7790   -7.9340   10.3690 hc        1 ANY      0.036367
     81 H292       -2.2880   -7.0640   11.8790 hc        1 ANY      0.036367
     82 H293       -1.1610   -8.2610   11.1170 hc        1 ANY      0.036367
     83 H221       -1.1300   -0.8410    2.4870 hn        1 ANY      0.489800
@<TRIPOS>BOND
     1    1    2 ar  
     2    1    6 ar  
     3    1   10 1   
     4    2    3 ar  
     5    2    8 1   
     6    3    4 ar  
     7    3   41 1   
     8    4    5 ar  
     9    4   42 1   
    10    5    6 ar  
    11    5   43 1   
    12    6    7 1   
    13    7    9 1   
    14    7   11 2   
    15    8   33 1   
    16    8   44 1   
    17    9   12 1   
    18    9   45 1   
    19    9   83 1   
    20   10   46 1   
    21   12   13 1   
    22   12   23 1   
    23   12   47 1   
    24   13   15 1   
    25   13   28 1   
    26   13   48 1   
    27   14   16 1   
    28   14   23 1   
    29   15   19 1   
    30   16   17 1   
    31   16   30 1   
    32   16   49 1   
    33   17   18 1   
    34   17   25 1   
    35   17   50 1   
    36   18   19 1   
    37   18   21 1   
    38   18   51 1   
    39   19   20 2   
    40   21   22 1   
    41   21   52 1   
    42   21   53 1   
    43   22   32 1   
    44   22   54 1   
    45   22   55 1   
    46   23   24 2   
    47   25   26 1   
    48   26   27 1   
    49   26   29 2   
    50   27   31 1   
    51   27   35 1   
    52   27   56 1   
    53   28   57 1   
    54   28   58 1   
    55   28   59 1   
    56   30   60 1   
    57   30   61 1   
    58   30   62 1   
    59   31   34 1   
    60   31   63 1   
    61   31   64 1   
    62   32   36 1   
    63   32   65 1   
    64   32   66 1   
    65   33   37 2   
    66   33   67 1   
    67   34   68 1   
    68   34   69 1   
    69   34   70 1   
    70   35   71 1   
    71   35   72 1   
    72   35   73 1   
    73   36   38 1   
    74   36   74 1   
    75   36   75 1   
    76   38   39 1   
    77   38   76 1   
    78   38   77 1   
    79   39   40 1   
    80   39   78 1   
    81   39   79 1   
    82   40   80 1   
    83   40   81 1   
    84   40   82 1   
@<TRIPOS>SUBSTRUCTURE
     1 ANY         1 TEMP              0 ****  ****    0 ROOT
