@<TRIPOS>MOLECULE
ANY
   82    80     1     0     0
SMALL
bcc


@<TRIPOS>ATOM
      1 C1          4.0620   -2.6680    4.2340 c1        1 ANY      0.132600
      2 C2          5.4560   -2.7380    4.2860 c1        1 ANY      0.045200
      3 C3          6.2180   -1.8320    3.5800 c1        1 ANY     -0.053500
      4 C4          5.6010   -0.8510    2.8170 c1        1 ANY     -0.064000
      5 C5          4.2020   -0.7790    2.7630 c1        1 ANY     -0.064000
      6 C6          3.4410   -1.6820    3.4670 cg        1 ANY     -0.153200
      7 C7          1.8930   -1.6760    3.3120 c         1 ANY      0.640300
      8 N1          6.1070   -3.8060    5.0430 n         1 ANY     -0.484700
      9 N2          1.2560   -0.6560    2.5210 n         1 ANY     -0.544900
     10 O1          3.2810   -3.5760    4.9860 oh        1 ANY     -0.507600
     11 O3          1.2140   -2.4740    3.9430 o         1 ANY     -0.630100
     12 C9         -0.1290   -0.5760    2.4740 c3        1 ANY      0.049700
     13 C10        -0.5520    0.8720    2.4720 c3        1 ANY      0.154100
     14 O4          0.4450   -1.6310    0.3630 os        1 ANY     -0.448900
     15 O5         -0.4510    1.4260    1.1710 os        1 ANY     -0.463900
     16 C11         0.8190   -0.6670   -0.5900 c3        1 ANY      0.132100
     17 C12        -0.3200   -0.3640   -1.5220 c3        1 ANY      0.137100
     18 C13        -0.9840    0.9920   -1.1630 c3        1 ANY     -0.113700
     19 C14        -1.4280    0.8880    0.3130 c         1 ANY      0.745600
     20 O6         -2.4880    0.4500    0.6770 o         1 ANY     -0.600500
     21 C15        -2.1270    1.3720   -2.1100 c3        1 ANY     -0.078400
     22 C16        -2.5300    2.8420   -1.8650 c3        1 ANY     -0.082400
     23 C20        -0.6340   -1.1680    1.1590 c         1 ANY      0.708600
     24 O7         -1.8320   -1.3360    0.8790 o         1 ANY     -0.608500
     25 O8          0.1710   -0.3080   -2.8590 os        1 ANY     -0.443900
     26 C21        -0.2100   -1.3990   -3.6500 c         1 ANY      0.636100
     27 C22         0.5510   -1.7110   -4.9430 c3        1 ANY     -0.105700
     28 C26         0.3510    1.6620    3.4190 c3        1 ANY     -0.102100
     29 O9         -1.1510   -2.0590   -3.3400 o         1 ANY     -0.529000
     30 C27         2.0050   -1.2000   -1.4000 c3        1 ANY     -0.110100
     31 C23        -0.0150   -3.0050   -5.5750 c3        1 ANY     -0.077400
     32 C17        -4.0430    2.9020   -1.3520 c3        1 ANY     -0.076400
     33 C8          7.5630   -4.0340    4.8990 c         1 ANY      0.667900
     34 C24         0.9930   -3.5490   -6.6540 c3        1 ANY     -0.094100
     35 C25         0.3940   -0.5810   -5.8910 c3        1 ANY     -0.093100
     36 C18        -4.2880    4.2440   -0.6040 c3        1 ANY     -0.078400
     37 O2          8.2260   -3.3230    4.1430 o         1 ANY     -0.592100
     38 C19        -4.7970    3.9560    0.8030 c3        1 ANY     -0.079400
     39 C28        -6.0810    4.8270    1.0880 c3        1 ANY     -0.079400
     40 C29        -7.2760    3.9020    1.3530 c3        1 ANY     -0.093100
     41 H3          7.1660   -1.8800    3.6150 ha        1 ANY      0.123500
     42 H4          6.1250   -0.2300    2.3340 ha        1 ANY      0.083000
     43 H5          3.7690   -0.0900    2.2270 ha        1 ANY      0.083000
     44 HN1         5.6380   -4.2720    5.6550 hn        1 ANY      0.336500
     45 HN2         1.7540   -0.0380    2.1000 hn        1 ANY      0.330500
     46 HO1         3.4790   -3.4940    5.8460 ho        1 ANY      0.466000
     47 H9         -0.3740   -1.0900    3.2930 h1        1 ANY      0.127700
     48 H10        -1.4970    0.9390    2.7860 h1        1 ANY      0.094700
     49 H11         1.0800    0.1320   -0.1410 h1        1 ANY      0.095700
     50 H12        -1.0090   -1.1000   -1.4520 h1        1 ANY      0.105700
     51 H13        -0.3790    1.7240   -1.2960 hc        1 ANY      0.094700
     52 H151       -2.9030    0.7860   -1.9410 hc        1 ANY      0.061200
     53 H152       -1.8290    1.2630   -3.0500 hc        1 ANY      0.061200
     54 H161       -2.4450    3.3570   -2.7180 hc        1 ANY      0.045700
     55 H162       -1.9350    3.2370   -1.1820 hc        1 ANY      0.045700
     56 H22         1.5060   -1.8370   -4.7380 hc        1 ANY      0.084700
     57 H261        0.4720    1.1610    4.2520 hc        1 ANY      0.054367
     58 H262        1.2430    1.8090    2.9860 hc        1 ANY      0.054367
     59 H263       -0.0610    2.5210    3.6150 hc        1 ANY      0.054367
     60 H271        2.7420   -1.4250   -0.7890 hc        1 ANY      0.056367
     61 H272        2.3080   -0.5050   -2.0440 hc        1 ANY      0.056367
     62 H273        1.7250   -2.0200   -1.9010 hc        1 ANY      0.056367
     63 H231       -0.1440   -3.6980   -4.8590 hc        1 ANY      0.055700
     64 H232       -0.8500   -2.8180   -5.9870 hc        1 ANY      0.055700
     65 H171       -4.2120    2.1470   -0.7360 hc        1 ANY      0.040700
     66 H172       -4.6390    2.8410   -2.1050 hc        1 ANY      0.040700
     67 H8          8.0150   -4.7160    5.4600 h5        1 ANY      0.035200
     68 H241        1.7530   -3.9360   -6.2160 hc        1 ANY      0.038700
     69 H242        0.5280   -4.2650   -7.2270 hc        1 ANY      0.038700
     70 H243        1.2890   -2.8110   -7.2280 hc        1 ANY      0.038700
     71 H251        1.0240    0.1750   -5.6250 hc        1 ANY      0.049700
     72 H252        0.6120   -0.8840   -6.8030 hc        1 ANY      0.049700
     73 H253       -0.5560   -0.2510   -5.8640 hc        1 ANY      0.049700
     74 H181       -4.9520    4.7690   -1.0880 hc        1 ANY      0.040200
     75 H182       -3.4540    4.7440   -0.5510 hc        1 ANY      0.040200
     76 H191       -5.0210    3.0140    0.8810 hc        1 ANY      0.041200
     77 H192       -4.1140    4.1750    1.4400 hc        1 ANY      0.041200
     78 H281       -5.9250    5.3910    1.8730 hc        1 ANY      0.038200
     79 H282       -6.2670    5.3800    0.3310 hc        1 ANY      0.038200
     80 H291       -7.3320    3.2250    0.6390 hc        1 ANY      0.032700
     81 H292       -8.0830    4.4190    1.3670 hc        1 ANY      0.032700
     82 H293       -7.1620    3.4670    2.1950 hc        1 ANY      0.032700
@<TRIPOS>BOND
     1    1    6 3   
     2    1   10 1   
     3    2    3 3   
     4    2    8 1   
     5    3   41 1   
     6    4    5 3   
     7    4   42 1   
     8    5   43 1   
     9    6    7 1   
    10    7    9 1   
    11    7   11 2   
    12    8   33 1   
    13    8   44 1   
    14    9   12 1   
    15    9   45 1   
    16   10   46 1   
    17   12   13 1   
    18   12   23 1   
    19   12   47 1   
    20   13   15 1   
    21   13   28 1   
    22   13   48 1   
    23   14   16 1   
    24   14   23 1   
    25   15   19 1   
    26   16   17 1   
    27   16   30 1   
    28   16   49 1   
    29   17   18 1   
    30   17   25 1   
    31   17   50 1   
    32   18   19 1   
    33   18   21 1   
    34   18   51 1   
    35   19   20 2   
    36   21   22 1   
    37   21   52 1   
    38   21   53 1   
    39   22   32 1   
    40   22   54 1   
    41   22   55 1   
    42   23   24 2   
    43   25   26 1   
    44   26   27 1   
    45   26   29 2   
    46   27   31 1   
    47   27   35 1   
    48   27   56 1   
    49   28   57 1   
    50   28   58 1   
    51   28   59 1   
    52   30   60 1   
    53   30   61 1   
    54   30   62 1   
    55   31   34 1   
    56   31   63 1   
    57   31   64 1   
    58   32   36 1   
    59   32   65 1   
    60   32   66 1   
    61   33   37 2   
    62   33   67 1   
    63   34   68 1   
    64   34   69 1   
    65   34   70 1   
    66   35   71 1   
    67   35   72 1   
    68   35   73 1   
    69   36   38 1   
    70   36   74 1   
    71   36   75 1   
    72   38   39 1   
    73   38   76 1   
    74   38   77 1   
    75   39   40 1   
    76   39   78 1   
    77   39   79 1   
    78   40   80 1   
    79   40   81 1   
    80   40   82 1   
@<TRIPOS>SUBSTRUCTURE
     1 ANY         1 TEMP              0 ****  ****    0 ROOT
