@<TRIPOS>MOLECULE
ANY
   83    84     1     0     0
SMALL
bcc


@<TRIPOS>ATOM
      1 C1          0.0520   -0.0860   -1.4440 ca        1 ANY      0.157100
      2 C2          1.3640    0.1400   -1.9870 ca        1 ANY      0.067600
      3 C3          2.4610    0.0030   -1.1170 ca        1 ANY     -0.086000
      4 C4          2.2770   -0.3410    0.2260 ca        1 ANY     -0.107000
      5 C5          1.0130   -0.5350    0.7510 ca        1 ANY     -0.120000
      6 C6         -0.1190   -0.3890   -0.0770 ca        1 ANY     -0.247600
      7 C7         -1.4700   -0.5570    0.4430 c         1 ANY      0.586700
      8 N1          1.4950    0.4720   -3.3370 ns        1 ANY     -0.481100
      9 N2         -1.6350   -0.3000    1.9260 ny        1 ANY     -0.668800
     10 O1         -1.0010    0.0960   -2.3030 oh        1 ANY     -0.500100
     11 O3         -2.4880   -0.8690   -0.1700 o         1 ANY     -0.471100
     12 C9         -3.0340   -0.0020    2.3670 c3        1 ANY      0.027500
     13 C10        -3.6900   -1.1370    3.2090 c3        1 ANY      0.155100
     14 O4         -2.0400    1.4250    4.0260 os        1 ANY     -0.483900
     15 O5         -3.4720   -0.9160    4.6010 os        1 ANY     -0.432900
     16 C11        -2.1130    2.1260    5.2870 c3        1 ANY      0.164100
     17 C12        -2.8190    1.2330    6.3330 c3        1 ANY      0.118100
     18 C13        -2.1760   -0.1630    6.4720 c3        1 ANY     -0.113700
     19 C14        -2.2090   -0.8590    5.1360 c         1 ANY      0.767600
     20 O6         -1.2700   -1.3230    4.4820 o         1 ANY     -0.677500
     21 C15        -2.8970   -0.9950    7.5230 c3        1 ANY     -0.079400
     22 C16        -2.1360   -2.2610    7.8520 c3        1 ANY     -0.083400
     23 C20        -3.1260    1.2750    3.2160 c         1 ANY      0.712600
     24 O7         -4.0580    2.0620    3.1870 o         1 ANY     -0.517500
     25 O8         -2.6360    1.9090    7.5790 os        1 ANY     -0.445900
     26 C21        -3.7420    2.1430    8.3760 c         1 ANY      0.638100
     27 C22        -3.3650    2.8320    9.6630 c3        1 ANY     -0.100700
     28 C26        -3.3510   -2.5350    2.7510 c3        1 ANY     -0.153100
     29 O9         -4.8370    1.7740    7.9630 o         1 ANY     -0.514000
     30 C27        -2.7460    3.4900    5.1820 c3        1 ANY     -0.130100
     31 C23        -4.1790    4.1140    9.7920 c3        1 ANY     -0.076400
     32 C17        -2.9040   -3.1120    8.8410 c3        1 ANY     -0.078400
     33 C8          2.6680    0.8010   -4.0100 c         1 ANY      0.674900
     34 C24        -3.6360    5.0150   10.8710 c3        1 ANY     -0.097100
     35 C25        -3.6140    1.8760   10.8130 c3        1 ANY     -0.097100
     36 C18        -2.1400   -4.3740    9.1830 c3        1 ANY     -0.079400
     37 O2          3.7860    0.8320   -3.4860 o         1 ANY     -0.559100
     38 C19        -2.9090   -5.2280   10.1680 c3        1 ANY     -0.080400
     39 C28        -2.1470   -6.4900   10.5130 c3        1 ANY     -0.079400
     40 C29        -2.9090   -7.3440   11.4930 c3        1 ANY     -0.094100
     41 H3          3.4930    0.1550   -1.4890 ha        1 ANY      0.206000
     42 H4          3.1650   -0.4620    0.8700 ha        1 ANY      0.169000
     43 H5          0.9200   -0.8350    1.8060 ha        1 ANY      0.139000
     44 HN1         0.6410    0.5020   -3.8560 hn        1 ANY      0.343500
     45 HN2        -1.3000   -1.1380    2.4410 hn        1 ANY      0.487800
     46 HO1        -1.7010   -0.5480   -2.1030 ho        1 ANY      0.457000
     47 H9         -3.6760    0.1520    1.4420 hx        1 ANY      0.158700
     48 H10        -4.8120   -0.9690    3.1310 h1        1 ANY      0.133700
     49 H11        -1.0140    2.2130    5.5430 h1        1 ANY      0.102700
     50 H12        -3.9100    1.1240    6.0760 h1        1 ANY      0.111700
     51 H13        -1.0930   -0.0440    6.7620 hc        1 ANY      0.106700
     52 H151       -3.9290   -1.2440    7.1590 hc        1 ANY      0.070200
     53 H152       -3.0120   -0.3690    8.4500 hc        1 ANY      0.070200
     54 H161       -1.1320   -1.9990    8.2810 hc        1 ANY      0.043700
     55 H162       -1.9520   -2.8460    6.9120 hc        1 ANY      0.043700
     56 H22        -2.2680    3.0910    9.6240 hc        1 ANY      0.085700
     57 H261       -4.0980   -3.2490    3.1840 hc        1 ANY      0.077700
     58 H262       -3.4090   -2.5980    1.6360 hc        1 ANY      0.077700
     59 H263       -2.3410   -2.8630    3.0990 hc        1 ANY      0.077700
     60 H271       -2.5160    4.0650    6.1130 hc        1 ANY      0.071700
     61 H272       -3.8560    3.4170    5.0720 hc        1 ANY      0.071700
     62 H273       -2.3370    4.0400    4.3010 hc        1 ANY      0.071700
     63 H231       -5.2480    3.8510   10.0100 hc        1 ANY      0.056200
     64 H232       -4.1620    4.6590    8.8110 hc        1 ANY      0.056200
     65 H171       -3.0950   -2.5230    9.7760 hc        1 ANY      0.045700
     66 H172       -3.9040   -3.3820    8.4100 hc        1 ANY      0.045700
     67 H8          2.4830    1.0330   -5.0870 h5        1 ANY      0.065200
     68 H241       -4.2310    5.9600   10.9080 hc        1 ANY      0.044033
     69 H242       -3.6970    4.5240   11.8720 hc        1 ANY      0.044033
     70 H243       -2.5690    5.2790   10.6710 hc        1 ANY      0.044033
     71 H251       -4.6950    1.5990   10.8680 hc        1 ANY      0.054700
     72 H252       -3.0110    0.9450   10.6830 hc        1 ANY      0.054700
     73 H253       -3.3180    2.3610   11.7740 hc        1 ANY      0.054700
     74 H181       -1.9450   -4.9620    8.2480 hc        1 ANY      0.040700
     75 H182       -1.1420   -4.1040    9.6190 hc        1 ANY      0.040700
     76 H191       -3.9070   -5.4990    9.7340 hc        1 ANY      0.042700
     77 H192       -3.1040   -4.6410   11.1040 hc        1 ANY      0.042700
     78 H281       -1.1490   -6.2180   10.9470 hc        1 ANY      0.038700
     79 H282       -1.9510   -7.0760    9.5760 hc        1 ANY      0.038700
     80 H291       -3.0920   -6.7860   12.4440 hc        1 ANY      0.036367
     81 H292       -2.3300   -8.2690   11.7330 hc        1 ANY      0.036367
     82 H293       -3.8970   -7.6470   11.0700 hc        1 ANY      0.036367
     83 H221       -1.0180    0.4810    2.1930 hn        1 ANY      0.487800
@<TRIPOS>BOND
     1    1    2 ar  
     2    1    6 ar  
     3    1   10 1   
     4    2    3 ar  
     5    2    8 1   
     6    3    4 ar  
     7    3   41 1   
     8    4    5 ar  
     9    4   42 1   
    10    5    6 ar  
    11    5   43 1   
    12    6    7 1   
    13    7    9 1   
    14    7   11 2   
    15    8   33 1   
    16    8   44 1   
    17    9   12 1   
    18    9   45 1   
    19    9   83 1   
    20   10   46 1   
    21   12   13 1   
    22   12   23 1   
    23   12   47 1   
    24   13   15 1   
    25   13   28 1   
    26   13   48 1   
    27   14   16 1   
    28   14   23 1   
    29   15   19 1   
    30   16   17 1   
    31   16   30 1   
    32   16   49 1   
    33   17   18 1   
    34   17   25 1   
    35   17   50 1   
    36   18   19 1   
    37   18   21 1   
    38   18   51 1   
    39   19   20 2   
    40   21   22 1   
    41   21   52 1   
    42   21   53 1   
    43   22   32 1   
    44   22   54 1   
    45   22   55 1   
    46   23   24 2   
    47   25   26 1   
    48   26   27 1   
    49   26   29 2   
    50   27   31 1   
    51   27   35 1   
    52   27   56 1   
    53   28   57 1   
    54   28   58 1   
    55   28   59 1   
    56   30   60 1   
    57   30   61 1   
    58   30   62 1   
    59   31   34 1   
    60   31   63 1   
    61   31   64 1   
    62   32   36 1   
    63   32   65 1   
    64   32   66 1   
    65   33   37 2   
    66   33   67 1   
    67   34   68 1   
    68   34   69 1   
    69   34   70 1   
    70   35   71 1   
    71   35   72 1   
    72   35   73 1   
    73   36   38 1   
    74   36   74 1   
    75   36   75 1   
    76   38   39 1   
    77   38   76 1   
    78   38   77 1   
    79   39   40 1   
    80   39   78 1   
    81   39   79 1   
    82   40   80 1   
    83   40   81 1   
    84   40   82 1   
@<TRIPOS>SUBSTRUCTURE
     1 ANY         1 TEMP              0 ****  ****    0 ROOT
