@<TRIPOS>MOLECULE
ANY
   84    85     1     0     0
SMALL
bcc


@<TRIPOS>ATOM
      1 C1          0.4280    0.5800   -0.9770 ca        1 ANY      0.272100
      2 C2          1.8230    0.5440   -1.2920 ca        1 ANY     -0.101400
      3 C3          2.7200   -0.0960   -0.4250 ca        1 ANY      0.008000
      4 C4          2.2470   -0.6990    0.7400 ca        1 ANY     -0.136000
      5 C5          0.8940   -0.6790    1.0510 ca        1 ANY     -0.008000
      6 C6         -0.0380   -0.0420    0.2090 ca        1 ANY     -0.259600
      7 C7         -1.4750   -0.0230    0.5130 c         1 ANY      0.575700
      8 N1          2.3090    1.1640   -2.5240 n4        1 ANY     -0.561200
      9 N2         -1.9170   -0.6150    1.8140 n4        1 ANY     -0.657800
     10 O1         -0.3280    1.2430   -1.8890 oh        1 ANY     -0.504100
     11 O3         -2.3560    0.4260   -0.2190 o         1 ANY     -0.452100
     12 C9         -3.3110   -0.2570    2.2470 c3        1 ANY      0.021500
     13 C10        -3.9520   -1.3300    3.1810 c3        1 ANY      0.152100
     14 O4         -2.2700    1.2380    3.8170 os        1 ANY     -0.499900
     15 O5         -3.6570   -1.0450    4.5430 os        1 ANY     -0.421900
     16 C11        -2.3190    1.9950    5.0520 c3        1 ANY      0.165100
     17 C12        -2.9450    1.1280    6.1680 c3        1 ANY      0.119100
     18 C13        -2.2680   -0.2510    6.3220 c3        1 ANY     -0.112700
     19 C14        -2.3700   -0.9930    5.0160 c         1 ANY      0.780600
     20 O6         -1.4720   -1.4810    4.3190 o         1 ANY     -0.709500
     21 C15        -2.9170   -1.0540    7.4430 c3        1 ANY     -0.081400
     22 C16        -2.1260   -2.3030    7.7660 c3        1 ANY     -0.083400
     23 C20        -3.3590    1.0770    3.0150 c         1 ANY      0.713600
     24 O7         -4.2590    1.8930    2.9160 o         1 ANY     -0.496500
     25 O8         -2.7080    1.8490    7.3760 os        1 ANY     -0.449900
     26 C21        -3.7850    2.1330    8.2040 c         1 ANY      0.639100
     27 C22        -3.3500    2.8430    9.4590 c3        1 ANY     -0.098700
     28 C26        -3.6800   -2.7630    2.7920 c3        1 ANY     -0.160100
     29 O9         -4.8970    1.7820    7.8250 o         1 ANY     -0.509000
     30 C27        -3.0090    3.3280    4.9170 c3        1 ANY     -0.131100
     31 C23        -4.1480    4.1350    9.5970 c3        1 ANY     -0.076400
     32 C17        -2.8280   -3.1280    8.8250 c3        1 ANY     -0.079400
     33 C8          2.3870    0.2270   -3.7260 c         1 ANY      0.553900
     34 C24        -3.5530    5.0520   10.6340 c3        1 ANY     -0.098100
     35 C25        -3.5610    1.9110   10.6370 c3        1 ANY     -0.098100
     36 C18        -2.0350   -4.3730    9.1610 c3        1 ANY     -0.078400
     37 O2          2.0290   -0.9210   -3.6010 o         1 ANY     -0.345100
     38 C19        -2.7400   -5.2010   10.2140 c3        1 ANY     -0.080400
     39 C28        -1.9490   -6.4470   10.5530 c3        1 ANY     -0.078400
     40 C29        -2.6480   -7.2740   11.6010 c3        1 ANY     -0.095100
     41 H3          3.8040   -0.1350   -0.6470 ha        1 ANY      0.185000
     42 H4          2.9620   -1.2030    1.4190 ha        1 ANY      0.203000
     43 H5          0.5860   -1.1890    1.9830 ha        1 ANY      0.174000
     44 HN1         3.2460    1.5550   -2.3490 hn        1 ANY      0.479800
     45 HN2        -1.2690   -0.3210    2.5760 hn        1 ANY      0.493800
     46 HO1        -1.2740    1.2820   -1.6510 ho        1 ANY      0.504000
     47 H9         -3.9580   -0.1580    1.3210 hx        1 ANY      0.160700
     48 H10        -5.0730   -1.1290    3.1450 h1        1 ANY      0.146700
     49 H11        -1.2140    2.1330    5.2540 h1        1 ANY      0.098700
     50 H12        -4.0470    0.9880    5.9770 h1        1 ANY      0.114700
     51 H13        -1.1730   -0.1070    6.5470 hc        1 ANY      0.106700
     52 H151       -2.9770   -0.3970    8.3540 hc        1 ANY      0.075200
     53 H152       -3.9680   -1.3200    7.1530 hc        1 ANY      0.075200
     54 H161       -1.9930   -2.9170    6.8360 hc        1 ANY      0.041200
     55 H162       -1.1020   -2.0220    8.1280 hc        1 ANY      0.041200
     56 H22        -2.2540    3.0910    9.3720 hc        1 ANY      0.084700
     57 H261       -3.8650   -2.9170    1.7010 hc        1 ANY      0.081033
     58 H262       -4.3860   -3.4260    3.3580 hc        1 ANY      0.081033
     59 H263       -2.6460   -3.0890    3.0630 hc        1 ANY      0.081033
     60 H271       -2.6530    3.8610    4.0030 hc        1 ANY      0.075033
     61 H272       -4.1190    3.2090    4.8510 hc        1 ANY      0.075033
     62 H273       -2.7710    3.9470    5.8190 hc        1 ANY      0.075033
     63 H231       -4.1700    4.6600    8.6050 hc        1 ANY      0.056700
     64 H232       -5.2090    3.8860    9.8660 hc        1 ANY      0.056700
     65 H171       -2.9680   -2.5100    9.7510 hc        1 ANY      0.049200
     66 H172       -3.8500   -3.4180    8.4630 hc        1 ANY      0.049200
     67 H8          2.7860    0.7610   -4.6220 hx        1 ANY      0.154200
     68 H241       -3.5760    4.5810   11.6460 hc        1 ANY      0.046367
     69 H242       -4.1390    6.0030   10.6780 hc        1 ANY      0.046367
     70 H243       -2.4930    5.3030   10.3850 hc        1 ANY      0.046367
     71 H251       -2.9710    0.9730   10.5020 hc        1 ANY      0.057033
     72 H252       -4.6410    1.6470   10.7420 hc        1 ANY      0.057033
     73 H253       -3.2230    2.4140   11.5760 hc        1 ANY      0.057033
     74 H181       -1.0160   -4.0840    9.5300 hc        1 ANY      0.039200
     75 H182       -1.8900   -4.9890    8.2340 hc        1 ANY      0.039200
     76 H191       -3.7590   -5.4920    9.8470 hc        1 ANY      0.044700
     77 H192       -2.8850   -4.5860   11.1410 hc        1 ANY      0.044700
     78 H281       -0.9300   -6.1550   10.9210 hc        1 ANY      0.038200
     79 H282       -1.8020   -7.0610    9.6250 hc        1 ANY      0.038200
     80 H291       -2.7800   -6.6890   12.5430 hc        1 ANY      0.039033
     81 H292       -3.6560   -7.5960   11.2440 hc        1 ANY      0.039033
     82 H293       -2.0490   -8.1870   11.8360 hc        1 ANY      0.039033
     83 H121        1.6740    1.9420   -2.7700 hn        1 ANY      0.479800
     84 H221       -1.8550   -1.6450    1.7480 hn        1 ANY      0.493800
@<TRIPOS>BOND
     1    1    2 ar  
     2    1    6 ar  
     3    1   10 1   
     4    2    3 ar  
     5    2    8 1   
     6    3    4 ar  
     7    3   41 1   
     8    4    5 ar  
     9    4   42 1   
    10    5    6 ar  
    11    5   43 1   
    12    6    7 1   
    13    7    9 1   
    14    7   11 2   
    15    8   33 1   
    16    8   44 1   
    17    8   83 1   
    18    9   12 1   
    19    9   45 1   
    20    9   84 1   
    21   10   46 1   
    22   12   13 1   
    23   12   23 1   
    24   12   47 1   
    25   13   15 1   
    26   13   28 1   
    27   13   48 1   
    28   14   16 1   
    29   14   23 1   
    30   15   19 1   
    31   16   17 1   
    32   16   30 1   
    33   16   49 1   
    34   17   18 1   
    35   17   25 1   
    36   17   50 1   
    37   18   19 1   
    38   18   21 1   
    39   18   51 1   
    40   19   20 2   
    41   21   22 1   
    42   21   52 1   
    43   21   53 1   
    44   22   32 1   
    45   22   54 1   
    46   22   55 1   
    47   23   24 2   
    48   25   26 1   
    49   26   27 1   
    50   26   29 2   
    51   27   31 1   
    52   27   35 1   
    53   27   56 1   
    54   28   57 1   
    55   28   58 1   
    56   28   59 1   
    57   30   60 1   
    58   30   61 1   
    59   30   62 1   
    60   31   34 1   
    61   31   63 1   
    62   31   64 1   
    63   32   36 1   
    64   32   65 1   
    65   32   66 1   
    66   33   37 2   
    67   33   67 1   
    68   34   68 1   
    69   34   69 1   
    70   34   70 1   
    71   35   71 1   
    72   35   72 1   
    73   35   73 1   
    74   36   38 1   
    75   36   74 1   
    76   36   75 1   
    77   38   39 1   
    78   38   76 1   
    79   38   77 1   
    80   39   40 1   
    81   39   78 1   
    82   39   79 1   
    83   40   80 1   
    84   40   81 1   
    85   40   82 1   
@<TRIPOS>SUBSTRUCTURE
     1 ANY         1 TEMP              0 ****  ****    0 ROOT
