@<TRIPOS>MOLECULE
AO1
   52    53     1     0     0
SMALL
bcc


@<TRIPOS>ATOM
      1 C1          1.0450    0.5980    0.3430 c3        1 AO1     -0.111100
      2 C2          2.3890    1.2050    0.0920 c3        1 AO1      0.019700
      3 S3          3.6890   -0.0170   -0.0510 ss        1 AO1     -0.293200
      4 C4          3.7790   -0.7790    1.5550 c3        1 AO1     -0.050300
      5 C5          5.1560   -1.3480    1.7780 c3        1 AO1     -0.094400
      6 C6          6.2370   -0.2680    1.9700 c3        1 AO1      0.100500
      7 C8          7.5640   -0.9470    2.4240 c3        1 AO1      0.069100
      8 C9          8.6120    0.1090    2.8000 c         1 AO1      0.543100
      9 N10         9.5820   -0.2080    3.8750 n4        1 AO1     -0.673800
     10 C11        11.0010   -0.4720    3.3270 c3        1 AO1      0.217800
     11 C12        11.0400   -1.8140    2.6740 ca        1 AO1     -0.215300
     12 O13         8.7070    1.1950    2.2340 o         1 AO1     -0.454100
     13 C14        12.0120   -0.3240    4.4550 c3        1 AO1     -0.138100
     14 C15        11.1600   -2.9440    3.4690 ca        1 AO1     -0.065000
     15 C16        11.3060   -4.2240    2.8990 ca        1 AO1     -0.148000
     16 C17        11.3510   -4.3640    1.5310 ca        1 AO1     -0.040000
     17 C18        11.2200   -3.2310    0.6850 ca        1 AO1     -0.058000
     18 C19        11.0430   -1.9360    1.2500 ca        1 AO1     -0.016000
     19 C20        11.2890   -3.3830   -0.7290 ca        1 AO1     -0.082000
     20 C21        11.1800   -2.2930   -1.5570 ca        1 AO1     -0.122000
     21 C22        10.9860   -1.0060   -1.0020 ca        1 AO1     -0.075000
     22 C23        10.9050   -0.8350    0.3600 ca        1 AO1     -0.202000
     23 O24         7.3050   -1.7120    3.5800 oh        1 AO1     -0.583800
     24 N7          6.4000    0.5610    0.7420 n4        1 AO1     -0.909600
     25 H11A        0.7740   -0.1330   -0.4590 hc        1 AO1      0.070700
     26 H12         1.0160    0.0730    1.3290 hc        1 AO1      0.070700
     27 H13         0.2660    1.4040    0.3540 hc        1 AO1      0.070700
     28 H21A        2.6490    1.9440    0.8870 h1        1 AO1      0.092700
     29 H22A        2.4120    1.7180   -0.9060 h1        1 AO1      0.092700
     30 H41         3.0270   -1.6130    1.5970 h1        1 AO1      0.112200
     31 H42         3.5020   -0.0470    2.3540 h1        1 AO1      0.112200
     32 H51         5.4350   -2.0330    0.9320 hc        1 AO1      0.098700
     33 H52         5.1250   -1.9640    2.7210 hc        1 AO1      0.098700
     34 H6          5.8960    0.4260    2.8000 hx        1 AO1      0.126700
     35 H8          8.0070   -1.5720    1.5920 h1        1 AO1      0.123700
     36 H10         9.2640   -1.0430    4.3890 hn        1 AO1      0.476300
     37 H11        11.1910    0.3610    2.5830 hx        1 AO1      0.120700
     38 H141       13.0210   -0.5890    4.0410 hc        1 AO1      0.090700
     39 H142       11.8050   -1.0020    5.3180 hc        1 AO1      0.090700
     40 H143       12.0550    0.7320    4.8230 hc        1 AO1      0.090700
     41 H15        11.1730   -2.8620    4.5680 ha        1 AO1      0.142000
     42 H16        11.4140   -5.1000    3.5600 ha        1 AO1      0.173000
     43 H17        11.5000   -5.3580    1.0720 ha        1 AO1      0.172000
     44 H20        11.4480   -4.3930   -1.1440 ha        1 AO1      0.167000
     45 H21        11.2580   -2.4040   -2.6510 ha        1 AO1      0.171000
     46 H22        10.9190   -0.1390   -1.6790 ha        1 AO1      0.155000
     47 H23        10.7720    0.1840    0.7540 ha        1 AO1      0.116000
     48 H24         7.1630   -2.6350    3.3150 ho        1 AO1      0.470000
     49 HN71        6.9680    0.0740    0.0480 hn        1 AO1      0.466467
     50 HN72        5.3880    0.7240    0.3050 hn        1 AO1      0.466467
     51 H102        9.6380    0.5870    4.5270 hn        1 AO1      0.476300
     52 H73         6.8500    1.4520    0.9660 hn        1 AO1      0.466467
@<TRIPOS>BOND
     1    1    2 1   
     2    1   25 1   
     3    1   26 1   
     4    1   27 1   
     5    2    3 1   
     6    2   28 1   
     7    2   29 1   
     8    3    4 1   
     9    4    5 1   
    10    4   30 1   
    11    4   31 1   
    12    5    6 1   
    13    5   32 1   
    14    5   33 1   
    15    6    7 1   
    16    6   24 1   
    17    6   34 1   
    18    7    8 1   
    19    7   23 1   
    20    7   35 1   
    21    8    9 1   
    22    8   12 2   
    23    9   10 1   
    24    9   36 1   
    25    9   51 1   
    26   10   11 1   
    27   10   13 1   
    28   10   37 1   
    29   11   14 ar  
    30   11   18 ar  
    31   13   38 1   
    32   13   39 1   
    33   13   40 1   
    34   14   15 ar  
    35   14   41 1   
    36   15   16 ar  
    37   15   42 1   
    38   16   17 ar  
    39   16   43 1   
    40   17   18 ar  
    41   17   19 ar  
    42   18   22 ar  
    43   19   20 ar  
    44   19   44 1   
    45   20   21 ar  
    46   20   45 1   
    47   21   22 ar  
    48   21   46 1   
    49   22   47 1   
    50   23   48 1   
    51   24   49 1   
    52   24   50 1   
    53   24   52 1   
@<TRIPOS>SUBSTRUCTURE
     1 AO1         1 TEMP              0 ****  ****    0 ROOT
