@<TRIPOS>MOLECULE
AO1
   52    53     1     0     0
SMALL
bcc


@<TRIPOS>ATOM
      1 C1          0.9190    2.2430    2.2290 c3        1 AO1     -0.111100
      2 C2          1.9150    1.8950    1.1670 c3        1 AO1      0.018700
      3 S3          2.4580    0.1920    1.2530 ss        1 AO1     -0.288200
      4 C4          3.3230    0.0650    2.8030 c3        1 AO1     -0.052300
      5 C5          4.3140   -1.0690    2.7470 c3        1 AO1     -0.095400
      6 C6          5.5180   -0.7840    1.8320 c3        1 AO1      0.100500
      7 C8          6.5800   -1.9110    2.0070 c3        1 AO1      0.064100
      8 C9          7.8840   -1.5380    1.2850 c         1 AO1      0.529100
      9 N10         9.1760   -1.9050    1.9030 ny        1 AO1     -0.676800
     10 C11        10.2390   -0.7780    1.8460 c3        1 AO1      0.227800
     11 C12        11.5670   -1.4280    2.0350 ca        1 AO1     -0.219300
     12 O13         7.8850   -0.9790    0.1910 o         1 AO1     -0.452100
     13 C14         9.9070    0.3140    2.8450 c3        1 AO1     -0.133100
     14 C15        12.2540   -1.3060    3.2320 ca        1 AO1     -0.040000
     15 C16        13.5250   -1.8890    3.3990 ca        1 AO1     -0.151000
     16 C17        14.0980   -2.6020    2.3710 ca        1 AO1     -0.028000
     17 C18        13.4190   -2.7560    1.1330 ca        1 AO1     -0.053000
     18 C19        12.1410   -2.1600    0.9470 ca        1 AO1     -0.012000
     19 C20        14.0140   -3.4950    0.0720 ca        1 AO1     -0.074000
     20 C21        13.3680   -3.6350   -1.1320 ca        1 AO1     -0.121000
     21 C22        12.1030   -3.0330   -1.3260 ca        1 AO1     -0.059000
     22 C23        11.5030   -2.3200   -0.3140 ca        1 AO1     -0.210000
     23 O24         6.8790   -2.0600    3.3760 oh        1 AO1     -0.585800
     24 N7          5.0930   -0.6110    0.4130 nz        1 AO1     -0.909600
     25 H11A        0.5660    3.2960    2.0810 hc        1 AO1      0.070700
     26 H12         0.0270    1.5700    2.1840 hc        1 AO1      0.070700
     27 H13         1.3730    2.1680    3.2480 hc        1 AO1      0.070700
     28 H21A        2.7970    2.5780    1.2070 h1        1 AO1      0.092700
     29 H22A        1.4460    1.9620    0.1490 h1        1 AO1      0.092700
     30 H41         2.5750   -0.1430    3.6150 h1        1 AO1      0.111200
     31 H42         3.8210    1.0340    3.0570 h1        1 AO1      0.111200
     32 H51         3.8000   -2.0170    2.4320 hc        1 AO1      0.099700
     33 H52         4.7130   -1.2260    3.7900 hc        1 AO1      0.099700
     34 H6          5.9860    0.1940    2.1620 hx        1 AO1      0.123700
     35 H8          6.2120   -2.8780    1.5540 h1        1 AO1      0.111700
     36 H10         9.5790   -2.7120    1.3950 hn        1 AO1      0.483300
     37 H11        10.1640   -0.3470    0.7980 hx        1 AO1      0.123700
     38 H141        9.8120   -0.0680    3.8910 hc        1 AO1      0.079033
     39 H142        8.9590    0.8340    2.5640 hc        1 AO1      0.079033
     40 H143       10.7380    1.0670    2.8210 hc        1 AO1      0.079033
     41 H15        11.8330   -0.7380    4.0780 ha        1 AO1      0.144000
     42 H16        14.0540   -1.7610    4.3580 ha        1 AO1      0.171000
     43 H17        15.0950   -3.0620    2.4920 ha        1 AO1      0.170000
     44 H20        15.0080   -3.9460    0.2350 ha        1 AO1      0.165000
     45 H21        13.8280   -4.2020   -1.9580 ha        1 AO1      0.169000
     46 H22        11.6090   -3.1350   -2.3060 ha        1 AO1      0.153000
     47 H23        10.5410   -1.8290   -0.5180 ha        1 AO1      0.104000
     48 H24         6.2930   -2.7390    3.7510 ho        1 AO1      0.473000
     49 HN71        4.9330   -1.5160   -0.0310 hn        1 AO1      0.466467
     50 HN72        5.8070   -0.1090   -0.1190 hn        1 AO1      0.466467
     51 H102        9.0300   -2.1690    2.8870 hn        1 AO1      0.483300
     52 H73         4.1250   -0.0550    0.4110 hn        1 AO1      0.466467
@<TRIPOS>BOND
     1    1    2 1   
     2    1   25 1   
     3    1   26 1   
     4    1   27 1   
     5    2    3 1   
     6    2   28 1   
     7    2   29 1   
     8    3    4 1   
     9    4    5 1   
    10    4   30 1   
    11    4   31 1   
    12    5    6 1   
    13    5   32 1   
    14    5   33 1   
    15    6    7 1   
    16    6   24 1   
    17    6   34 1   
    18    7    8 1   
    19    7   23 1   
    20    7   35 1   
    21    8    9 1   
    22    8   12 2   
    23    9   10 1   
    24    9   36 1   
    25    9   51 1   
    26   10   11 1   
    27   10   13 1   
    28   10   37 1   
    29   11   14 ar  
    30   11   18 ar  
    31   13   38 1   
    32   13   39 1   
    33   13   40 1   
    34   14   15 ar  
    35   14   41 1   
    36   15   16 ar  
    37   15   42 1   
    38   16   17 ar  
    39   16   43 1   
    40   17   18 ar  
    41   17   19 ar  
    42   18   22 ar  
    43   19   20 ar  
    44   19   44 1   
    45   20   21 ar  
    46   20   45 1   
    47   21   22 ar  
    48   21   46 1   
    49   22   47 1   
    50   23   48 1   
    51   24   49 1   
    52   24   50 1   
    53   24   52 1   
@<TRIPOS>SUBSTRUCTURE
     1 AO1         1 TEMP              0 ****  ****    0 ROOT
