@<TRIPOS>MOLECULE
AO1
   52    53     1     0     0
SMALL
bcc


@<TRIPOS>ATOM
      1 C1          1.1860    0.6080    0.0720 c3        1 AO1     -0.111100
      2 C2          2.5050    1.3110    0.0000 c3        1 AO1      0.019700
      3 S3          3.8810    0.1870   -0.2220 ss        1 AO1     -0.295200
      4 C4          3.9180   -0.7900    1.2660 c3        1 AO1     -0.050300
      5 C5          5.3110   -1.3130    1.5010 c3        1 AO1     -0.093400
      6 C6          6.3100   -0.2170    1.9150 c3        1 AO1      0.102500
      7 C8          7.6420   -0.8870    2.3670 c3        1 AO1      0.067100
      8 C9          8.6140    0.1550    2.9340 c         1 AO1      0.541100
      9 N10         9.5520   -0.2640    4.0030 n4        1 AO1     -0.674800
     10 C11        10.9710   -0.5450    3.4630 c3        1 AO1      0.218800
     11 C12        10.9960   -1.8830    2.8000 ca        1 AO1     -0.215300
     12 O13         8.6820    1.3120    2.5270 o         1 AO1     -0.455100
     13 C14        11.9760   -0.4110    4.5990 c3        1 AO1     -0.139100
     14 C15        11.2100   -3.0160    3.5690 ca        1 AO1     -0.055000
     15 C16        11.3510   -4.2850    2.9730 ca        1 AO1     -0.145000
     16 C17        11.2950   -4.4120    1.6050 ca        1 AO1     -0.040000
     17 C18        11.0650   -3.2740    0.7850 ca        1 AO1     -0.058000
     18 C19        10.8920   -1.9930    1.3780 ca        1 AO1     -0.018000
     19 C20        11.0320   -3.4090   -0.6320 ca        1 AO1     -0.076000
     20 C21        10.8260   -2.3140   -1.4350 ca        1 AO1     -0.125000
     21 C22        10.6350   -1.0400   -0.8510 ca        1 AO1     -0.077000
     22 C23        10.6480   -0.8870    0.5170 ca        1 AO1     -0.214000
     23 O24         7.3490   -1.7980    3.4030 oh        1 AO1     -0.582800
     24 N7          6.5010    0.7820    0.8260 n4        1 AO1     -0.908600
     25 H11A        0.3620    1.3650    0.1420 hc        1 AO1      0.070700
     26 H12         1.0070   -0.0130   -0.8410 hc        1 AO1      0.070700
     27 H13         1.1290   -0.0530    0.9710 hc        1 AO1      0.070700
     28 H21A        2.5580    1.9620   -0.9120 h1        1 AO1      0.092700
     29 H22A        2.6730    1.9400    0.9060 h1        1 AO1      0.092700
     30 H41         3.2170   -1.6590    1.1400 h1        1 AO1      0.111700
     31 H42         3.5490   -0.1940    2.1360 h1        1 AO1      0.111700
     32 H51         5.2620   -2.0580    2.3450 hc        1 AO1      0.098700
     33 H52         5.6820   -1.8550    0.5900 hc        1 AO1      0.098700
     34 H6          5.8770    0.3360    2.8050 hx        1 AO1      0.126700
     35 H8          8.1720   -1.3820    1.4980 h1        1 AO1      0.128700
     36 H10         9.6240    0.4860    4.7060 hn        1 AO1      0.477300
     37 H11        11.1810    0.2870    2.7230 hx        1 AO1      0.119700
     38 H141       11.7380   -1.0650    5.4730 hc        1 AO1      0.091033
     39 H142       12.9810   -0.7150    4.2010 hc        1 AO1      0.091033
     40 H143       12.0490    0.6490    4.9470 hc        1 AO1      0.091033
     41 H15        11.3020   -2.9470    4.6660 ha        1 AO1      0.147000
     42 H16        11.5330   -5.1640    3.6150 ha        1 AO1      0.176000
     43 H17        11.4390   -5.3960    1.1240 ha        1 AO1      0.173000
     44 H20        11.1920   -4.4080   -1.0710 ha        1 AO1      0.169000
     45 H21        10.8270   -2.4100   -2.5340 ha        1 AO1      0.172000
     46 H22        10.4960   -0.1680   -1.5100 ha        1 AO1      0.152000
     47 H23        10.5220    0.1220    0.9360 ha        1 AO1      0.110000
     48 H24         7.3140   -2.6930    3.0270 ho        1 AO1      0.470000
     49 HN71        5.5100    0.9540    0.3460 hn        1 AO1      0.466467
     50 HN72        6.8830    1.6550    1.2000 hn        1 AO1      0.466467
     51 H102        9.1950   -1.1190    4.4560 hn        1 AO1      0.477300
     52 H73         7.1380    0.4250    0.1140 hn        1 AO1      0.466467
@<TRIPOS>BOND
     1    1    2 1   
     2    1   25 1   
     3    1   26 1   
     4    1   27 1   
     5    2    3 1   
     6    2   28 1   
     7    2   29 1   
     8    3    4 1   
     9    4    5 1   
    10    4   30 1   
    11    4   31 1   
    12    5    6 1   
    13    5   32 1   
    14    5   33 1   
    15    6    7 1   
    16    6   24 1   
    17    6   34 1   
    18    7    8 1   
    19    7   23 1   
    20    7   35 1   
    21    8    9 1   
    22    8   12 2   
    23    9   10 1   
    24    9   36 1   
    25    9   51 1   
    26   10   11 1   
    27   10   13 1   
    28   10   37 1   
    29   11   14 ar  
    30   11   18 ar  
    31   13   38 1   
    32   13   39 1   
    33   13   40 1   
    34   14   15 ar  
    35   14   41 1   
    36   15   16 ar  
    37   15   42 1   
    38   16   17 ar  
    39   16   43 1   
    40   17   18 ar  
    41   17   19 ar  
    42   18   22 ar  
    43   19   20 ar  
    44   19   44 1   
    45   20   21 ar  
    46   20   45 1   
    47   21   22 ar  
    48   21   46 1   
    49   22   47 1   
    50   23   48 1   
    51   24   49 1   
    52   24   50 1   
    53   24   52 1   
@<TRIPOS>SUBSTRUCTURE
     1 AO1         1 TEMP              0 ****  ****    0 ROOT
