@<TRIPOS>MOLECULE
AO1
   50    47     1     0     0
SMALL
bcc


@<TRIPOS>ATOM
      1 C1         -4.4650    4.9750    3.9530 c3        1 AO1     -0.204000
      2 C2         -3.8170    5.0020    2.6070 c3        1 AO1     -0.269000
      3 S3         -4.2820    3.5330    1.6850 ss        1 AO1      0.055000
      4 C4         -3.2200    3.3730    0.2200 c3        1 AO1     -0.272000
      5 C5         -3.4550    2.0130   -0.4270 c3        1 AO1     -0.192000
      6 C6         -2.3720    1.7540   -1.4680 c3        1 AO1     -0.019000
      7 C8         -1.8220    0.2940   -1.3080 c3        1 AO1      0.012000
      8 C9         -0.3350    0.3450   -1.0130 c2        1 AO1      0.272000
      9 N10         0.4630   -0.8550   -1.1250 n         1 AO1     -0.367000
     10 C11         1.5630   -1.0530   -0.2660 c3        1 AO1      0.058000
     11 C12         2.1960   -2.4320   -0.5520 c2        1 AO1     -0.082000
     12 O13         0.2040    1.4140   -0.7850 o         1 AO1     -0.382000
     13 C14         1.1010   -1.0020    1.1840 c3        1 AO1     -0.228000
     14 C15         1.2900   -3.4650   -0.8530 c2        1 AO1     -0.121000
     15 C16         1.7570   -4.7790   -1.0430 c1        1 AO1     -0.134000
     16 C17         3.1440   -5.0630   -0.9300 c1        1 AO1     -0.117000
     17 C18         4.0710   -4.0050   -0.6210 c1        1 AO1     -0.041000
     18 C19         3.6080   -2.7170   -0.4360 c1        1 AO1     -0.021000
     19 C20         5.4630   -4.2670   -0.5720 c1        1 AO1     -0.117000
     20 C21         6.3750   -3.2080   -0.3340 c1        1 AO1     -0.126000
     21 C22         5.9000   -1.9100   -0.1480 c1        1 AO1     -0.126000
     22 C23         4.5300   -1.6510   -0.1960 c1        1 AO1     -0.125000
     23 O24        -2.4730   -0.3380   -0.2750 oh        1 AO1     -0.327000
     24 N7         -2.8970    1.9020   -2.7090 n3        1 AO1     -0.336000
     25 H11A       -4.2030    5.7680    4.4540 hc        1 AO1      0.086333
     26 H12        -4.1850    4.1870    4.4300 hc        1 AO1      0.086333
     27 H13        -5.4650    4.9610    3.8410 hc        1 AO1      0.086333
     28 H21A       -4.1000    5.7740    2.1340 h1        1 AO1      0.097000
     29 H22A       -2.8500    5.0250    2.7140 h1        1 AO1      0.097000
     30 H41        -3.4490    4.1130   -0.4490 h1        1 AO1      0.097000
     31 H42        -2.2620    3.4520    0.4880 h1        1 AO1      0.097000
     32 H51        -4.3230    2.0070   -0.8580 hc        1 AO1      0.109000
     33 H52        -3.4270    1.3470    0.2280 hc        1 AO1      0.109000
     34 H6         -1.6830    2.3590   -1.3520 h1        1 AO1      0.125000
     35 H8         -1.9740   -0.2110   -2.1550 h1        1 AO1      0.126000
     36 H10         0.3160   -1.4360   -1.8170 hn        1 AO1      0.236000
     37 H11         2.2100   -0.3700   -0.4170 h1        1 AO1      0.135000
     38 H141        1.6230   -0.3210    1.6730 hc        1 AO1      0.085667
     39 H142        1.2370   -1.8680    1.5940 hc        1 AO1      0.085667
     40 H143        0.1460   -0.7700    1.2170 hc        1 AO1      0.085667
     41 H15         0.3190   -3.2660   -0.9320 ha        1 AO1      0.133000
     42 H16         1.1040   -5.5200   -1.2600 ha        1 AO1      0.133000
     43 H17         3.4670   -5.9680   -1.0600 ha        1 AO1      0.132000
     44 H20         5.7940   -5.1720   -0.7020 ha        1 AO1      0.132000
     45 H21         7.3060   -3.3810   -0.3010 ha        1 AO1      0.134000
     46 H22         6.5410   -1.1660    0.0210 ha        1 AO1      0.134000
     47 H23         4.1890   -0.7100   -0.0590 ha        1 AO1      0.160000
     48 H24        -2.3360   -1.2160   -0.3320 ho        1 AO1      0.211000
     49 HN71       -2.7290    2.7590   -3.0140 hn        1 AO1      0.149500
     50 HN72       -3.7930    1.7630   -2.6760 hn        1 AO1      0.149500
@<TRIPOS>BOND
     1    1    2 1   
     2    1   25 1   
     3    1   26 1   
     4    1   27 1   
     5    2    3 1   
     6    2   28 1   
     7    2   29 1   
     8    3    4 1   
     9    4    5 1   
    10    4   30 1   
    11    4   31 1   
    12    5    6 1   
    13    5   32 1   
    14    5   33 1   
    15    6    7 1   
    16    6   24 1   
    17    6   34 1   
    18    7    8 1   
    19    7   23 1   
    20    7   35 1   
    21    8    9 1   
    22    8   12 1   
    23    9   10 1   
    24    9   36 1   
    25   10   11 1   
    26   10   13 1   
    27   10   37 1   
    28   11   14 1   
    29   11   18 1   
    30   13   38 1   
    31   13   39 1   
    32   13   40 1   
    33   14   15 1   
    34   14   41 1   
    35   15   42 1   
    36   16   17 1   
    37   16   43 1   
    38   17   19 1   
    39   18   22 1   
    40   19   44 1   
    41   20   21 1   
    42   20   45 1   
    43   21   46 1   
    44   22   47 1   
    45   23   48 1   
    46   24   49 1   
    47   24   50 1   
@<TRIPOS>SUBSTRUCTURE
     1 AO1         1 TEMP              0 ****  ****    0 ROOT
