@<TRIPOS>MOLECULE
AO1
   50    51     1     0     0
SMALL
bcc


@<TRIPOS>ATOM
      1 C1          8.0960   -2.1330    0.6380 c3        1 AO1     -0.086100
      2 C2          6.6000   -2.1880    0.5410 c3        1 AO1     -0.009300
      3 S3          6.0250   -0.5460    0.2130 ss        1 AO1     -0.300200
      4 C4          4.2740   -0.7870    0.1450 c3        1 AO1     -0.015300
      5 C5          3.6430    0.5640   -0.0630 c3        1 AO1     -0.107400
      6 C6          2.1090    0.4720   -0.0870 c3        1 AO1      0.134500
      7 C8          1.5260    1.9130   -0.0530 c3        1 AO1      0.084100
      8 C9          0.0200    1.8440    0.2480 c         1 AO1      0.638100
      9 N10        -0.8450    1.6190   -0.7960 n         1 AO1     -0.535900
     10 C11        -2.2710    1.4580   -0.5920 c3        1 AO1      0.135000
     11 C12        -2.7550    0.0210   -0.5500 ca        1 AO1     -0.085300
     12 O13        -0.3650    2.0540    1.4180 o         1 AO1     -0.623100
     13 C14        -3.0730    2.2010   -1.6690 c3        1 AO1     -0.101100
     14 C15        -2.0940   -0.9800   -1.2290 ca        1 AO1     -0.122000
     15 C16        -2.5490   -2.3180   -1.1880 ca        1 AO1     -0.130000
     16 C17        -3.6670   -2.6470   -0.4680 ca        1 AO1     -0.117000
     17 C18        -4.3840   -1.6420    0.2370 ca        1 AO1     -0.038000
     18 C19        -3.9360   -0.2940    0.1960 ca        1 AO1     -0.021000
     19 C20        -5.5500   -1.9760    0.9800 ca        1 AO1     -0.118000
     20 C21        -6.2530   -1.0090    1.6530 ca        1 AO1     -0.127000
     21 C22        -5.8200    0.3360    1.6080 ca        1 AO1     -0.125000
     22 C23        -4.6960    0.6840    0.8990 ca        1 AO1     -0.121000
     23 O24         2.1660    2.6860    0.9370 oh        1 AO1     -0.587800
     24 N7          1.5570   -0.2680   -1.2060 n3        1 AO1     -0.918800
     25 H11A        8.4160   -1.4520    1.4650 hc        1 AO1      0.047700
     26 H12         8.5030   -3.1540    0.8460 hc        1 AO1      0.047700
     27 H13         8.5430   -1.7640   -0.3170 hc        1 AO1      0.047700
     28 H21A        6.2820   -2.8780   -0.2780 h1        1 AO1      0.057200
     29 H22A        6.1550   -2.5670    1.4940 h1        1 AO1      0.057200
     30 H41         4.0210   -1.4860   -0.6890 h1        1 AO1      0.053700
     31 H42         3.9090   -1.2500    1.0950 h1        1 AO1      0.053700
     32 H51         3.9430    1.2560    0.7710 hc        1 AO1      0.074700
     33 H52         4.0120    1.0210   -1.0190 hc        1 AO1      0.074700
     34 H6          1.7760   -0.0420    0.8650 h1        1 AO1      0.070700
     35 H8          1.7360    2.4540   -1.0170 h1        1 AO1      0.089700
     36 H10        -0.4740    1.2870   -1.6560 hn        1 AO1      0.317500
     37 H11        -2.4900    1.9330    0.4160 h1        1 AO1      0.096700
     38 H141       -4.1610    2.0790   -1.4500 hc        1 AO1      0.045700
     39 H142       -2.8220    3.2880   -1.6650 hc        1 AO1      0.045700
     40 H143       -2.8650    1.7860   -2.6830 hc        1 AO1      0.045700
     41 H15        -1.1870   -0.7730   -1.8200 ha        1 AO1      0.136000
     42 H16        -1.9890   -3.0870   -1.7410 ha        1 AO1      0.130000
     43 H17        -4.0290   -3.6850   -0.4230 ha        1 AO1      0.132000
     44 H20        -5.8750   -3.0280    1.0010 ha        1 AO1      0.132000
     45 H21        -7.1540   -1.2650    2.2300 ha        1 AO1      0.133000
     46 H22        -6.3950    1.1010    2.1500 ha        1 AO1      0.133000
     47 H23        -4.3830    1.7390    0.8730 ha        1 AO1      0.136000
     48 H24         1.7710    2.4660    1.7960 ho        1 AO1      0.430000
     49 HN71        2.0120   -0.0080   -2.0590 hn        1 AO1      0.353800
     50 HN72        1.6780   -1.2510   -1.0620 hn        1 AO1      0.353800
@<TRIPOS>BOND
     1    1    2 1   
     2    1   25 1   
     3    1   26 1   
     4    1   27 1   
     5    2    3 1   
     6    2   28 1   
     7    2   29 1   
     8    3    4 1   
     9    4    5 1   
    10    4   30 1   
    11    4   31 1   
    12    5    6 1   
    13    5   32 1   
    14    5   33 1   
    15    6    7 1   
    16    6   24 1   
    17    6   34 1   
    18    7    8 1   
    19    7   23 1   
    20    7   35 1   
    21    8    9 1   
    22    8   12 2   
    23    9   10 1   
    24    9   36 1   
    25   10   11 1   
    26   10   13 1   
    27   10   37 1   
    28   11   14 ar  
    29   11   18 ar  
    30   13   38 1   
    31   13   39 1   
    32   13   40 1   
    33   14   15 ar  
    34   14   41 1   
    35   15   16 ar  
    36   15   42 1   
    37   16   17 ar  
    38   16   43 1   
    39   17   18 ar  
    40   17   19 ar  
    41   18   22 ar  
    42   19   20 ar  
    43   19   44 1   
    44   20   21 ar  
    45   20   45 1   
    46   21   22 ar  
    47   21   46 1   
    48   22   47 1   
    49   23   48 1   
    50   24   49 1   
    51   24   50 1   
@<TRIPOS>SUBSTRUCTURE
     1 AO1         1 TEMP              0 ****  ****    0 ROOT
