@<TRIPOS>MOLECULE
AO2
   51    52     1     0     0
SMALL
bcc


@<TRIPOS>ATOM
      1 C1          0.8430   -2.1240    0.4500 c3        1 AO2     -0.075400
      2 C2          1.7530   -2.7020    1.5170 c3        1 AO2     -0.080400
      3 C3          2.3630   -1.6130    2.3730 c3        1 AO2     -0.085400
      4 C4          1.2960   -0.7240    2.9760 c3        1 AO2     -0.080400
      5 C5          0.3920   -0.1440    1.9070 c3        1 AO2     -0.075400
      6 C6         -0.2420   -1.2560    1.0700 c3        1 AO2     -0.082700
      7 C7         -1.1450   -0.6160    0.0240 c3        1 AO2     -0.112400
      8 C8         -1.7680   -1.6010   -0.9740 c3        1 AO2      0.098500
      9 N9         -2.4790   -2.7240   -0.2830 nz        1 AO2     -0.839600
     10 C10        -2.7090   -0.8120   -1.9230 c3        1 AO2      0.067100
     11 O11        -3.9000   -0.4440   -1.2620 oh        1 AO2     -0.602800
     12 C12        -3.1460   -1.6870   -3.1000 c         1 AO2      0.543100
     13 O13        -2.8720   -2.8690   -3.2470 o         1 AO2     -0.424100
     14 N14        -4.0000   -1.0250   -4.1480 ny        1 AO2     -0.472600
     15 N15        -3.2760   -0.0000   -4.8680 nu        1 AO2     -0.406400
     16 C16        -4.1210    0.7400   -5.7570 ca        1 AO2     -0.109400
     17 C17        -4.9200    1.7820   -5.2340 ca        1 AO2     -0.073500
     18 C18        -5.6500    2.5900   -6.0940 ca        1 AO2     -0.128000
     19 C19        -5.6150    2.3840   -7.4830 ca        1 AO2      0.035700
     20 C20        -4.8300    1.3380   -7.9980 ca        1 AO2     -0.128000
     21 C21        -4.0970    0.5170   -7.1540 ca        1 AO2     -0.073500
     22 C22        -6.3800    3.2610   -8.3930 c3        1 AO2     -0.091800
     23 H11A        1.4510   -1.5090   -0.2640 hc        1 AO2      0.041950
     24 H12         0.3830   -2.9660   -0.1320 hc        1 AO2      0.041950
     25 H21A        1.1700   -3.4080    2.1660 hc        1 AO2      0.061200
     26 H22         2.5690   -3.2940    1.0230 hc        1 AO2      0.061200
     27 H31         2.9680   -2.0800    3.1950 hc        1 AO2      0.067200
     28 H32         3.0630   -0.9940    1.7530 hc        1 AO2      0.067200
     29 H41         0.6840   -1.3110    3.7110 hc        1 AO2      0.061200
     30 H42         1.7800    0.1160    3.5410 hc        1 AO2      0.061200
     31 H51         0.9890    0.5310    1.2390 hc        1 AO2      0.041950
     32 H52        -0.4140    0.4700    2.3860 hc        1 AO2      0.041950
     33 H6         -0.8600   -1.8850    1.7720 hc        1 AO2      0.040700
     34 H71        -1.9590   -0.0410    0.5410 hc        1 AO2      0.087700
     35 H72        -0.5340    0.1140   -0.5760 hc        1 AO2      0.087700
     36 H8         -0.9410   -2.0710   -1.5950 hx        1 AO2      0.140700
     37 HN91       -2.7730   -3.4330   -0.9650 hn        1 AO2      0.476467
     38 HN92       -3.3030   -2.3620    0.2130 hn        1 AO2      0.476467
     39 H10        -2.1340    0.0780   -2.3190 h1        1 AO2      0.150700
     40 H11        -3.8080    0.4670   -0.9380 ho        1 AO2      0.477000
     41 H14        -4.4100   -1.7540   -4.7620 hn        1 AO2      0.470800
     42 H15        -2.5560   -0.4690   -5.4190 hn        1 AO2      0.406800
     43 H17        -4.9500    1.9810   -4.1510 ha        1 AO2      0.144500
     44 H18        -6.2630    3.4110   -5.6830 ha        1 AO2      0.176000
     45 H20        -4.7970    1.1700   -9.0890 ha        1 AO2      0.176000
     46 H21        -3.4840   -0.2900   -7.5890 ha        1 AO2      0.144500
     47 H221       -6.7420    2.6970   -9.2890 hc        1 AO2      0.082033
     48 H222       -7.2620    3.7150   -7.8770 hc        1 AO2      0.082033
     49 H223       -5.7200    4.0950   -8.7530 hc        1 AO2      0.082033
     50 H93        -1.8370   -3.1540    0.4000 hn        1 AO2      0.476467
     51 H142       -4.7770   -0.5400   -3.6590 hn        1 AO2      0.470800
@<TRIPOS>BOND
     1    1    2 1   
     2    1    6 1   
     3    1   23 1   
     4    1   24 1   
     5    2    3 1   
     6    2   25 1   
     7    2   26 1   
     8    3    4 1   
     9    3   27 1   
    10    3   28 1   
    11    4    5 1   
    12    4   29 1   
    13    4   30 1   
    14    5    6 1   
    15    5   31 1   
    16    5   32 1   
    17    6    7 1   
    18    6   33 1   
    19    7    8 1   
    20    7   34 1   
    21    7   35 1   
    22    8    9 1   
    23    8   10 1   
    24    8   36 1   
    25    9   37 1   
    26    9   38 1   
    27    9   50 1   
    28   10   11 1   
    29   10   12 1   
    30   10   39 1   
    31   11   40 1   
    32   12   13 2   
    33   12   14 1   
    34   14   15 1   
    35   14   41 1   
    36   14   51 1   
    37   15   16 1   
    38   15   42 1   
    39   16   17 ar  
    40   16   21 ar  
    41   17   18 ar  
    42   17   43 1   
    43   18   19 ar  
    44   18   44 1   
    45   19   20 ar  
    46   19   22 1   
    47   20   21 ar  
    48   20   45 1   
    49   21   46 1   
    50   22   47 1   
    51   22   48 1   
    52   22   49 1   
@<TRIPOS>SUBSTRUCTURE
     1 AO2         1 TEMP              0 ****  ****    0 ROOT
