@<TRIPOS>MOLECULE
AO2
   52    52     1     0     0
SMALL
bcc


@<TRIPOS>ATOM
      1 C1          0.7880   -1.1610    0.7180 c3        1 AO2     -0.076400
      2 C2          2.1350   -1.4340    1.3610 c3        1 AO2     -0.080400
      3 C3          2.2130   -0.8330    2.7480 c3        1 AO2     -0.085400
      4 C4          1.0730   -1.3120    3.6220 c3        1 AO2     -0.080400
      5 C5         -0.2720   -1.0450    2.9770 c3        1 AO2     -0.076400
      6 C6         -0.3470   -1.6800    1.5910 c3        1 AO2     -0.076700
      7 C7         -1.7070   -1.3840    0.9720 c3        1 AO2     -0.126400
      8 C8         -2.0300   -2.3070   -0.2110 c3        1 AO2      0.125500
      9 N9         -2.5050   -3.6450    0.2900 n4        1 AO2     -0.830600
     10 C10        -3.0730   -1.6300   -1.1420 c3        1 AO2      0.065100
     11 O11        -3.7950   -2.6600   -1.7910 oh        1 AO2     -0.611800
     12 C12        -2.4730   -0.7070   -2.2210 c         1 AO2      0.669100
     13 O13        -3.1720   -0.4970   -3.2530 o         1 AO2     -0.748100
     14 N14        -1.2650   -0.1220   -2.0670 n         1 AO2     -0.616000
     15 N15        -4.0960    0.4360   -5.7630 nh        1 AO2     -0.555200
     16 C16        -4.6210    1.0590   -6.7860 ca        1 AO2      0.262600
     17 C17        -5.3300    2.3590   -6.6370 ca        1 AO2     -0.056000
     18 C18        -5.8380    3.0000   -7.7120 ca        1 AO2     -0.134000
     19 C19        -5.7150    2.4690   -9.0570 ca        1 AO2      0.310700
     20 C20        -5.0670    1.1790   -9.2130 ca        1 AO2     -0.134000
     21 C21        -4.5460    0.5050   -8.1660 ca        1 AO2     -0.056000
     22 C22        -6.2130    3.1910  -10.1900 c3        1 AO2     -0.185800
     23 H11A        0.7550   -1.6520   -0.2900 hc        1 AO2      0.039200
     24 H12         0.6690   -0.0550    0.5700 hc        1 AO2      0.039200
     25 H21A        2.9460   -1.0040    0.7170 hc        1 AO2      0.062450
     26 H22         2.3040   -2.5420    1.4200 hc        1 AO2      0.062450
     27 H31         2.1880    0.2870    2.6760 hc        1 AO2      0.066700
     28 H32         3.1910   -1.1150    3.2210 hc        1 AO2      0.066700
     29 H41         1.1850   -2.4110    3.8200 hc        1 AO2      0.062450
     30 H42         1.1140   -0.7880    4.6140 hc        1 AO2      0.062450
     31 H51        -1.0870   -1.4590    3.6270 hc        1 AO2      0.039200
     32 H52        -0.4340    0.0610    2.8880 hc        1 AO2      0.039200
     33 H6         -0.2200   -2.7920    1.7130 hc        1 AO2      0.040700
     34 H71        -2.5060   -1.4660    1.7610 hc        1 AO2      0.085700
     35 H72        -1.7300   -0.3170    0.6250 hc        1 AO2      0.085700
     36 H8         -1.0890   -2.5310   -0.8020 hx        1 AO2      0.120700
     37 HN91       -2.7130   -4.2600   -0.5070 hn        1 AO2      0.475133
     38 HN92       -1.7750   -4.0640    0.8790 hn        1 AO2      0.475133
     39 H10        -3.7780   -0.9990   -0.5230 h1        1 AO2      0.103700
     40 H11        -4.3950   -2.2510   -2.4340 ho        1 AO2      0.463000
     41 H14        -0.9120    0.4880   -2.7690 hn        1 AO2      0.344500
     42 H15        -3.6120   -0.4520   -5.8530 hn        1 AO2      0.528300
     43 H17        -5.4320    2.7900   -5.6180 ha        1 AO2      0.224000
     44 H18        -6.3660    3.9730   -7.5860 ha        1 AO2      0.239000
     45 H20        -5.0030    0.7530  -10.2420 ha        1 AO2      0.239000
     46 H21        -4.0490   -0.4780   -8.3150 ha        1 AO2      0.224000
     47 H221       -5.6250    3.0000  -11.1370 hc        1 AO2      0.186033
     48 H222       -6.3220    4.3000  -10.0120 hc        1 AO2      0.186033
     49 H223       -7.2720    2.8220  -10.4450 hc        1 AO2      0.186033
     50 H93        -3.3600   -3.5310    0.8450 hn        1 AO2      0.475133
     51 H142       -0.7020   -0.2690   -1.2600 hn        1 AO2      0.344500
     52 H152       -4.1340    0.7920   -4.8080 hn        1 AO2      0.528300
@<TRIPOS>BOND
     1    1    2 1   
     2    1    6 1   
     3    1   23 1   
     4    1   24 1   
     5    2    3 1   
     6    2   25 1   
     7    2   26 1   
     8    3    4 1   
     9    3   27 1   
    10    3   28 1   
    11    4    5 1   
    12    4   29 1   
    13    4   30 1   
    14    5    6 1   
    15    5   31 1   
    16    5   32 1   
    17    6    7 1   
    18    6   33 1   
    19    7    8 1   
    20    7   34 1   
    21    7   35 1   
    22    8    9 1   
    23    8   10 1   
    24    8   36 1   
    25    9   37 1   
    26    9   38 1   
    27    9   50 1   
    28   10   11 1   
    29   10   12 1   
    30   10   39 1   
    31   11   40 1   
    32   12   13 2   
    33   12   14 1   
    34   14   41 1   
    35   14   51 1   
    36   15   16 1   
    37   15   42 1   
    38   15   52 1   
    39   16   17 ar  
    40   16   21 ar  
    41   17   18 ar  
    42   17   43 1   
    43   18   19 ar  
    44   18   44 1   
    45   19   20 ar  
    46   19   22 1   
    47   20   21 ar  
    48   20   45 1   
    49   21   46 1   
    50   22   47 1   
    51   22   48 1   
    52   22   49 1   
@<TRIPOS>SUBSTRUCTURE
     1 AO2         1 TEMP              0 ****  ****    0 ROOT
