@<TRIPOS>MOLECULE
AO2
   51    52     1     0     0
SMALL
bcc


@<TRIPOS>ATOM
      1 C1          0.7990   -2.1110    0.5080 c3        1 AO2     -0.075400
      2 C2          1.6910   -2.6860    1.5920 c3        1 AO2     -0.080400
      3 C3          2.2790   -1.5940    2.4610 c3        1 AO2     -0.085400
      4 C4          1.1950   -0.7120    3.0430 c3        1 AO2     -0.080400
      5 C5          0.3100   -0.1350    1.9570 c3        1 AO2     -0.075400
      6 C6         -0.3020   -1.2490    1.1070 c3        1 AO2     -0.082700
      7 C7         -1.1870   -0.6130    0.0440 c3        1 AO2     -0.112400
      8 C8         -1.7850   -1.6000   -0.9670 c3        1 AO2      0.098500
      9 N9         -2.5050   -2.7270   -0.2920 n4        1 AO2     -0.839600
     10 C10        -2.7110   -0.8150   -1.9350 c3        1 AO2      0.067100
     11 O11        -3.9170   -0.4540   -1.2970 oh        1 AO2     -0.602800
     12 C12        -3.1210   -1.6900   -3.1200 c         1 AO2      0.543100
     13 O13        -2.8380   -2.8710   -3.2630 o         1 AO2     -0.424100
     14 N14        -3.9560   -1.0320   -4.1840 n4        1 AO2     -0.472600
     15 N15        -3.2240   -0.0030   -4.8890 nh        1 AO2     -0.406400
     16 C16        -4.0540    0.7330   -5.7950 ca        1 AO2     -0.109400
     17 C17        -4.8710    1.7700   -5.2870 ca        1 AO2     -0.073500
     18 C18        -5.5880    2.5740   -6.1620 ca        1 AO2     -0.128000
     19 C19        -5.5220    2.3700   -7.5500 ca        1 AO2      0.035700
     20 C20        -4.7200    1.3300   -8.0490 ca        1 AO2     -0.128000
     21 C21        -4.0000    0.5130   -7.1910 ca        1 AO2     -0.073500
     22 C22        -6.2730    3.2450   -8.4740 c3        1 AO2     -0.091800
     23 H11A        1.4190   -1.4930   -0.1940 hc        1 AO2      0.041950
     24 H12         0.3550   -2.9550   -0.0840 hc        1 AO2      0.041950
     25 H21A        2.5190   -3.2730    1.1130 hc        1 AO2      0.061200
     26 H22         1.0990   -3.3950    2.2280 hc        1 AO2      0.061200
     27 H31         2.8700   -2.0590    3.2930 hc        1 AO2      0.067200
     28 H32         2.9880   -0.9710    1.8540 hc        1 AO2      0.067200
     29 H41         1.6650    0.1310    3.6170 hc        1 AO2      0.061200
     30 H42         0.5720   -1.3020    3.7650 hc        1 AO2      0.061200
     31 H51        -0.5080    0.4740    2.4200 hc        1 AO2      0.041950
     32 H52         0.9160    0.5430    1.3010 hc        1 AO2      0.041950
     33 H6         -0.9300   -1.8830    1.7950 hc        1 AO2      0.040700
     34 H71        -0.5680    0.1210   -0.5440 hc        1 AO2      0.087700
     35 H72        -2.0140   -0.0420    0.5450 hc        1 AO2      0.087700
     36 H8         -0.9440   -2.0650   -1.5720 hx        1 AO2      0.140700
     37 HN91       -2.7810   -3.4370   -0.9800 hn        1 AO2      0.476467
     38 HN92       -3.3400   -2.3700    0.1890 hn        1 AO2      0.476467
     39 H10        -2.1330    0.0790   -2.3180 h1        1 AO2      0.150700
     40 H11        -3.8360    0.4580   -0.9700 ho        1 AO2      0.477000
     41 H14        -4.3500   -1.7620   -4.8080 hn        1 AO2      0.470800
     42 H15        -2.4890   -0.4670   -5.4260 hn        1 AO2      0.406800
     43 H17        -4.9250    1.9670   -4.2050 ha        1 AO2      0.144500
     44 H18        -6.2140    3.3910   -5.7630 ha        1 AO2      0.176000
     45 H20        -4.6630    1.1640   -9.1390 ha        1 AO2      0.176000
     46 H21        -3.3730   -0.2900   -7.6140 ha        1 AO2      0.144500
     47 H221       -5.6130    4.0860   -8.8140 hc        1 AO2      0.082033
     48 H222       -7.1720    3.6880   -7.9780 hc        1 AO2      0.082033
     49 H223       -6.6070    2.6810   -9.3820 hc        1 AO2      0.082033
     50 H93        -1.8740   -3.1550    0.4030 hn        1 AO2      0.476467
     51 H142       -4.7470   -0.5520   -3.7110 hn        1 AO2      0.470800
@<TRIPOS>BOND
     1    1    2 1   
     2    1    6 1   
     3    1   23 1   
     4    1   24 1   
     5    2    3 1   
     6    2   25 1   
     7    2   26 1   
     8    3    4 1   
     9    3   27 1   
    10    3   28 1   
    11    4    5 1   
    12    4   29 1   
    13    4   30 1   
    14    5    6 1   
    15    5   31 1   
    16    5   32 1   
    17    6    7 1   
    18    6   33 1   
    19    7    8 1   
    20    7   34 1   
    21    7   35 1   
    22    8    9 1   
    23    8   10 1   
    24    8   36 1   
    25    9   37 1   
    26    9   38 1   
    27    9   50 1   
    28   10   11 1   
    29   10   12 1   
    30   10   39 1   
    31   11   40 1   
    32   12   13 2   
    33   12   14 1   
    34   14   15 1   
    35   14   41 1   
    36   14   51 1   
    37   15   16 1   
    38   15   42 1   
    39   16   17 ar  
    40   16   21 ar  
    41   17   18 ar  
    42   17   43 1   
    43   18   19 ar  
    44   18   44 1   
    45   19   20 ar  
    46   19   22 1   
    47   20   21 ar  
    48   20   45 1   
    49   21   46 1   
    50   22   47 1   
    51   22   48 1   
    52   22   49 1   
@<TRIPOS>SUBSTRUCTURE
     1 AO2         1 TEMP              0 ****  ****    0 ROOT
