@<TRIPOS>MOLECULE
AO2
   49    48     1     0     0
SMALL
bcc


@<TRIPOS>ATOM
      1 C1          4.2740    1.5190    0.0410 c3        1 AO2     -0.152000
      2 C2          5.1520    1.6790    1.2660 c3        1 AO2     -0.156000
      3 C3          4.4640    2.4240    2.3710 c3        1 AO2     -0.156000
      4 C4          3.1000    1.8350    2.7080 c3        1 AO2     -0.156000
      5 C5          2.2240    1.6750    1.4860 c3        1 AO2     -0.152000
      6 C6          2.9190    0.9300    0.3740 c3        1 AO2     -0.106000
      7 C7          2.0330    0.9680   -0.8830 c3        1 AO2     -0.194000
      8 C8          1.1670   -0.3120   -0.9370 c3        1 AO2     -0.026000
      9 N9         -0.0380   -0.1080   -0.1980 n3        1 AO2     -0.347000
     10 C10         0.8290   -0.6300   -2.3670 c3        1 AO2      0.015000
     11 O11         0.3130    0.5160   -2.9920 oh        1 AO2     -0.321000
     12 C12        -0.2250   -1.7650   -2.4070 c2        1 AO2      0.233000
     13 O13         0.1230   -2.9180   -2.2740 o         1 AO2     -0.349000
     14 N14        -1.5880   -1.4590   -2.6370 n         1 AO2     -0.266000
     15 N15        -2.5600   -2.3620   -2.2870 n3        1 AO2     -0.112000
     16 C16        -3.4480   -2.0660   -1.2350 c2        1 AO2     -0.032000
     17 C17        -3.0110   -2.1460    0.0860 c2        1 AO2     -0.145000
     18 C18        -3.8520   -1.7450    1.1260 c1        1 AO2     -0.113000
     19 C19        -5.1040   -1.2730    0.8500 c1        1 AO2     -0.085000
     20 C20        -5.5450   -1.1910   -0.4790 c1        1 AO2     -0.115000
     21 C21        -4.7100   -1.5900   -1.5150 c1        1 AO2     -0.137000
     22 C22        -6.0030   -0.6780    2.0230 c3        1 AO2     -0.176000
     23 H11A        4.7250    0.9360   -0.5970 hc        1 AO2      0.079500
     24 H12         4.1410    2.4070   -0.3740 hc        1 AO2      0.079500
     25 H21A        5.4050    0.7780    1.5980 hc        1 AO2      0.079750
     26 H22         5.9600    2.1610    1.0140 hc        1 AO2      0.079750
     27 H31         5.0220    2.3990    3.1620 hc        1 AO2      0.080000
     28 H32         4.3460    3.3620    2.0940 hc        1 AO2      0.080000
     29 H41         3.2280    0.9570    3.1250 hc        1 AO2      0.079750
     30 H42         2.6620    2.4090    3.3280 hc        1 AO2      0.079750
     31 H51         1.4160    1.1860    1.7370 hc        1 AO2      0.079500
     32 H52         1.9670    2.5770    1.1570 hc        1 AO2      0.079500
     33 H6          3.0360    0.0170    0.6400 hc        1 AO2      0.087000
     34 H71         1.4530    1.7570   -0.8510 hc        1 AO2      0.095500
     35 H72         2.6070    1.0130   -1.6890 hc        1 AO2      0.095500
     36 H8          1.6790   -1.0770   -0.5360 h1        1 AO2      0.116000
     37 HN91        0.0470   -0.4790    0.6350 hn        1 AO2      0.153500
     38 HN92       -0.2050    0.8120   -0.1170 hn        1 AO2      0.153500
     39 H10         1.6150   -0.9130   -2.8240 h1        1 AO2      0.112000
     40 H11         0.5790    0.5370   -3.8370 ho        1 AO2      0.216000
     41 H14        -1.8180   -0.6790   -3.0350 hn        1 AO2      0.246000
     42 H15        -2.6870   -3.1190   -2.7950 hn        1 AO2      0.187000
     43 H17        -2.1410   -2.4740    0.2800 ha        1 AO2      0.135000
     44 H18        -3.5440   -1.8010    2.0580 ha        1 AO2      0.132000
     45 H20        -6.4360   -0.8560   -0.6760 ha        1 AO2      0.131000
     46 H21        -5.0200   -1.5320   -2.4460 ha        1 AO2      0.144000
     47 H221       -5.4120   -0.1920    2.6880 hc        1 AO2      0.082333
     48 H222       -6.6510   -0.0570    1.6510 hc        1 AO2      0.082333
     49 H223       -6.4880   -1.4320    2.4920 hc        1 AO2      0.082333
@<TRIPOS>BOND
     1    1    2 1   
     2    1    6 1   
     3    1   23 1   
     4    1   24 1   
     5    2    3 1   
     6    2   25 1   
     7    2   26 1   
     8    3    4 1   
     9    3   27 1   
    10    3   28 1   
    11    4    5 1   
    12    4   29 1   
    13    4   30 1   
    14    5    6 1   
    15    5   31 1   
    16    5   32 1   
    17    6    7 1   
    18    6   33 1   
    19    7    8 1   
    20    7   34 1   
    21    7   35 1   
    22    8    9 1   
    23    8   10 1   
    24    8   36 1   
    25    9   37 1   
    26    9   38 1   
    27   10   11 1   
    28   10   12 1   
    29   10   39 1   
    30   11   40 1   
    31   12   13 1   
    32   12   14 1   
    33   14   15 1   
    34   14   41 1   
    35   15   16 1   
    36   15   42 1   
    37   16   17 1   
    38   16   21 1   
    39   17   18 1   
    40   17   43 1   
    41   18   44 1   
    42   19   20 1   
    43   19   22 1   
    44   20   45 1   
    45   21   46 1   
    46   22   47 1   
    47   22   48 1   
    48   22   49 1   
@<TRIPOS>SUBSTRUCTURE
     1 AO2         1 TEMP              0 ****  ****    0 ROOT
