@<TRIPOS>MOLECULE
AO2
   49    50     1     0     0
SMALL
bcc


@<TRIPOS>ATOM
      1 C1         -3.9920   -1.7330   -0.3540 c3        1 AO2     -0.074900
      2 C2         -5.2270   -2.3550   -0.9740 c3        1 AO2     -0.076900
      3 C3         -6.4460   -2.1650   -0.0950 c3        1 AO2     -0.077400
      4 C4         -6.6660   -0.7010    0.2220 c3        1 AO2     -0.076900
      5 C5         -5.4330   -0.0840    0.8490 c3        1 AO2     -0.074900
      6 C6         -4.2080   -0.2590   -0.0420 c3        1 AO2     -0.064700
      7 C7         -3.0020    0.3590    0.6430 c3        1 AO2     -0.113400
      8 C8         -1.7080    0.3020   -0.1820 c3        1 AO2      0.140500
      9 N9         -1.7670    0.8600   -1.5160 n3        1 AO2     -0.911800
     10 C10        -0.5920    0.9880    0.6530 c3        1 AO2      0.083100
     11 O11        -0.9650    2.2980    1.0220 oh        1 AO2     -0.588800
     12 C12         0.7260    1.0150   -0.1260 c         1 AO2      0.617100
     13 O13         1.2150    2.1000   -0.4910 o         1 AO2     -0.593100
     14 N14         1.3730   -0.2130   -0.3330 n         1 AO2     -0.411300
     15 N15         2.4460   -0.3610   -1.1760 nh        1 AO2     -0.442600
     16 C16         3.7350   -0.4810   -0.5350 ca        1 AO2      0.074600
     17 C17         3.9220   -1.3060    0.5900 ca        1 AO2     -0.136000
     18 C18         5.2000   -1.5160    1.0990 ca        1 AO2     -0.116500
     19 C19         6.3180   -0.9180    0.5090 ca        1 AO2     -0.089300
     20 C20         6.1320   -0.0930   -0.6060 ca        1 AO2     -0.116500
     21 C21         4.8620    0.1350   -1.1200 ca        1 AO2     -0.136000
     22 C22         7.6720   -1.1370    1.0650 c3        1 AO2     -0.051800
     23 H11A       -3.1300   -1.8460   -1.0630 hc        1 AO2      0.040950
     24 H12        -3.7290   -2.2780    0.5900 hc        1 AO2      0.040950
     25 H21A       -5.4150   -1.8900   -1.9770 hc        1 AO2      0.040450
     26 H22        -5.0490   -3.4500   -1.1380 hc        1 AO2      0.040450
     27 H31        -7.3500   -2.5780   -0.6130 hc        1 AO2      0.040700
     28 H32        -6.3120   -2.7390    0.8590 hc        1 AO2      0.040700
     29 H41        -6.9230   -0.1480   -0.7200 hc        1 AO2      0.040450
     30 H42        -7.5340   -0.5940    0.9230 hc        1 AO2      0.040450
     31 H51        -5.2390   -0.5620    1.8450 hc        1 AO2      0.040950
     32 H52        -5.6090    1.0090    1.0280 hc        1 AO2      0.040950
     33 H6         -4.4080    0.2820   -1.0090 hc        1 AO2      0.041700
     34 H71        -2.8160   -0.1720    1.6140 hc        1 AO2      0.058700
     35 H72        -3.2270    1.4310    0.8890 hc        1 AO2      0.058700
     36 H8         -1.4200   -0.7860   -0.2970 h1        1 AO2      0.056700
     37 HN91       -2.4530    0.3780   -2.0640 hn        1 AO2      0.356800
     38 HN92       -2.0010    1.8340   -1.4820 hn        1 AO2      0.356800
     39 H10        -0.4680    0.4350    1.6260 h1        1 AO2      0.096700
     40 H11        -0.6730    2.9090    0.3280 ho        1 AO2      0.430000
     41 H14         0.7730   -1.0160   -0.3970 hn        1 AO2      0.321500
     42 H15         2.4860    0.4280   -1.8190 hn        1 AO2      0.383800
     43 H17         3.0640   -1.7930    1.0770 ha        1 AO2      0.136000
     44 H18         5.3310   -2.1650    1.9790 ha        1 AO2      0.132000
     45 H20         7.0030    0.3880   -1.0780 ha        1 AO2      0.132000
     46 H21         4.7460    0.7990   -1.9910 ha        1 AO2      0.136000
     47 H221        7.9110   -0.3420    1.8150 hc        1 AO2      0.043700
     48 H222        7.7410   -2.1300    1.5750 hc        1 AO2      0.043700
     49 H223        8.4460   -1.1000    0.2590 hc        1 AO2      0.043700
@<TRIPOS>BOND
     1    1    2 1   
     2    1    6 1   
     3    1   23 1   
     4    1   24 1   
     5    2    3 1   
     6    2   25 1   
     7    2   26 1   
     8    3    4 1   
     9    3   27 1   
    10    3   28 1   
    11    4    5 1   
    12    4   29 1   
    13    4   30 1   
    14    5    6 1   
    15    5   31 1   
    16    5   32 1   
    17    6    7 1   
    18    6   33 1   
    19    7    8 1   
    20    7   34 1   
    21    7   35 1   
    22    8    9 1   
    23    8   10 1   
    24    8   36 1   
    25    9   37 1   
    26    9   38 1   
    27   10   11 1   
    28   10   12 1   
    29   10   39 1   
    30   11   40 1   
    31   12   13 2   
    32   12   14 1   
    33   14   15 1   
    34   14   41 1   
    35   15   16 1   
    36   15   42 1   
    37   16   17 ar  
    38   16   21 ar  
    39   17   18 ar  
    40   17   43 1   
    41   18   19 ar  
    42   18   44 1   
    43   19   20 ar  
    44   19   22 1   
    45   20   21 ar  
    46   20   45 1   
    47   21   46 1   
    48   22   47 1   
    49   22   48 1   
    50   22   49 1   
@<TRIPOS>SUBSTRUCTURE
     1 AO2         1 TEMP              0 ****  ****    0 ROOT
