@<TRIPOS>MOLECULE
AO5
   45    45     1     0     0
SMALL
bcc


@<TRIPOS>ATOM
      1 C1         -0.2540    0.1980    0.2050 c3        1 AO5      0.016400
      2 C2          1.0630   -0.5290    0.2750 c3        1 AO5     -0.089100
      3 C3         -0.7000    0.6710    1.5660 c3        1 AO5     -0.089100
      4 S4         -0.1650    1.6680   -0.8040 ss        1 AO5     -0.313200
      5 C5         -0.0600    1.0180   -2.4460 c3        1 AO5     -0.013300
      6 C6         -0.1220    2.1920   -3.3870 c3        1 AO5     -0.105400
      7 C7          0.3350    1.8080   -4.8050 c3        1 AO5      0.170500
      8 N8         -0.4500    0.7870   -5.4690 n3        1 AO5     -0.918800
      9 C9          0.3960    3.1040   -5.6480 c3        1 AO5      0.092100
     10 O10        -0.8810    3.7110   -5.5740 oh        1 AO5     -0.597800
     11 C11         0.7650    2.8960   -7.1210 c         1 AO5      0.620100
     12 O12         0.3050    3.6810   -7.9760 o         1 AO5     -0.618100
     13 N13         1.6850    1.9010   -7.4500 n         1 AO5     -0.422500
     14 N14         2.0170    1.5930   -8.7360 n         1 AO5     -0.367500
     15 C15         3.3350    1.9260   -9.2020 c         1 AO5      0.637700
     16 O16         4.2840    2.1660   -8.4410 o         1 AO5     -0.540100
     17 C17         3.5160    1.8560  -10.6800 ca        1 AO5     -0.143600
     18 C18         4.3810    2.7820  -11.2770 ca        1 AO5     -0.079000
     19 C19         4.5870    2.7510  -12.6550 ca        1 AO5     -0.130000
     20 C20         3.9440    1.7970  -13.4430 ca        1 AO5     -0.101000
     21 C21         3.0920    0.8680  -12.8390 ca        1 AO5      0.005400
     22 C22         2.8710    0.8900  -11.4580 ca        1 AO5     -0.090000
     23 CL23        2.3130   -0.3050  -13.7910 cl        1 AO5     -0.085400
     24 H1         -1.0290   -0.4850   -0.2310 h1        1 AO5      0.062700
     25 H21         1.3830   -0.8630   -0.7420 hc        1 AO5      0.045200
     26 H22A        0.9720   -1.4310    0.9290 hc        1 AO5      0.045200
     27 H23         1.8590    0.1330    0.6970 hc        1 AO5      0.045200
     28 H31         0.0410    1.3870    1.9970 hc        1 AO5      0.045200
     29 H32        -1.6920    1.1810    1.4990 hc        1 AO5      0.045200
     30 H33        -0.7930   -0.2000    2.2610 hc        1 AO5      0.045200
     31 H51        -0.9010    0.3060   -2.6300 h1        1 AO5      0.055700
     32 H52         0.8960    0.4530   -2.5770 h1        1 AO5      0.055700
     33 H61        -1.1650    2.6050   -3.4290 hc        1 AO5      0.074700
     34 H62         0.5450    3.0140   -3.0130 hc        1 AO5      0.074700
     35 H7          1.3920    1.4080   -4.7200 h1        1 AO5      0.063700
     36 HN81       -0.5700   -0.0030   -4.8650 hn        1 AO5      0.361300
     37 HN82       -1.3520    1.1480   -5.7200 hn        1 AO5      0.361300
     38 H9          1.1700    3.7940   -5.2040 h1        1 AO5      0.074700
     39 H10        -0.9310    4.3850   -6.2690 ho        1 AO5      0.436000
     40 H13         1.7610    1.1000   -6.8500 hn        1 AO5      0.351500
     41 H14         1.3090    1.9080   -9.3890 hn        1 AO5      0.301500
     42 H18         4.9010    3.5230  -10.6480 ha        1 AO5      0.157000
     43 H19         5.2640    3.4810  -13.1250 ha        1 AO5      0.145000
     44 H20         4.1100    1.7740  -14.5310 ha        1 AO5      0.152000
     45 H22         2.2080    0.1420  -10.9950 ha        1 AO5      0.160000
@<TRIPOS>BOND
     1    1    2 1   
     2    1    3 1   
     3    1    4 1   
     4    1   24 1   
     5    2   25 1   
     6    2   26 1   
     7    2   27 1   
     8    3   28 1   
     9    3   29 1   
    10    3   30 1   
    11    4    5 1   
    12    5    6 1   
    13    5   31 1   
    14    5   32 1   
    15    6    7 1   
    16    6   33 1   
    17    6   34 1   
    18    7    8 1   
    19    7    9 1   
    20    7   35 1   
    21    8   36 1   
    22    8   37 1   
    23    9   10 1   
    24    9   11 1   
    25    9   38 1   
    26   10   39 1   
    27   11   12 2   
    28   11   13 1   
    29   13   14 1   
    30   13   40 1   
    31   14   15 1   
    32   14   41 1   
    33   15   16 2   
    34   15   17 1   
    35   17   18 ar  
    36   17   22 ar  
    37   18   19 ar  
    38   18   42 1   
    39   19   20 ar  
    40   19   43 1   
    41   20   21 ar  
    42   20   44 1   
    43   21   22 ar  
    44   21   23 1   
    45   22   45 1   
@<TRIPOS>SUBSTRUCTURE
     1 AO5         1 TEMP              0 ****  ****    0 ROOT
