@<TRIPOS>MOLECULE
AO5
   45    45     1     0     0
SMALL
bcc


@<TRIPOS>ATOM
      1 C1         -7.0080    1.3450    0.8200 c3        1 AO5      0.017400
      2 C2         -6.6420    2.7630    0.4720 c3        1 AO5     -0.089100
      3 C3         -8.4710    1.0730    0.5800 c3        1 AO5     -0.089100
      4 S4         -6.1320    0.1530   -0.1820 ss        1 AO5     -0.314200
      5 C5         -4.4840    0.2340    0.4540 c3        1 AO5     -0.013300
      6 C6         -3.6910   -0.8420   -0.2400 c3        1 AO5     -0.107400
      7 C7         -2.1780   -0.6450   -0.0500 c3        1 AO5      0.141500
      8 N8         -1.7130   -0.5940    1.3190 n3        1 AO5     -0.908800
      9 C9         -1.4560   -1.7700   -0.8390 c3        1 AO5      0.084100
     10 O10        -1.7980   -3.0470   -0.3510 oh        1 AO5     -0.584800
     11 C11         0.0580   -1.5620   -0.7640 c         1 AO5      0.594100
     12 O12         0.7660   -2.3170   -0.0760 o         1 AO5     -0.578100
     13 N13         0.6130   -0.5710   -1.6200 n         1 AO5     -0.372500
     14 N14         1.9020   -0.1600   -1.4840 n         1 AO5     -0.380500
     15 C15         2.2580    0.9020   -0.6010 c         1 AO5      0.626700
     16 O16         1.4210    1.7520   -0.2510 o         1 AO5     -0.566100
     17 C17         3.7020    1.0180   -0.2660 ca        1 AO5     -0.135600
     18 C18         4.3160    2.2710   -0.3730 ca        1 AO5     -0.076000
     19 C19         5.6660    2.4110   -0.0520 ca        1 AO5     -0.129000
     20 C20         6.4040    1.3120    0.3840 ca        1 AO5     -0.100000
     21 C21         5.7800    0.0650    0.5010 ca        1 AO5      0.009400
     22 C22         4.4290   -0.0910    0.1780 ca        1 AO5     -0.096000
     23 CL23        6.6720   -1.2750    1.0440 cl        1 AO5     -0.081400
     24 H1         -6.7590    1.1530    1.8970 h1        1 AO5      0.063700
     25 H21        -5.5530    2.9440    0.6460 hc        1 AO5      0.045200
     26 H22A       -6.8710    2.9790   -0.6000 hc        1 AO5      0.045200
     27 H23        -7.2230    3.4780    1.1070 hc        1 AO5      0.045200
     28 H31        -8.7280    1.2170   -0.4980 hc        1 AO5      0.045200
     29 H32        -8.7300    0.0260    0.8710 hc        1 AO5      0.045200
     30 H33        -9.0950    1.7750    1.1860 hc        1 AO5      0.045200
     31 H51        -4.0420    1.2420    0.2570 h1        1 AO5      0.056700
     32 H52        -4.4910    0.0790    1.5600 h1        1 AO5      0.056700
     33 H61        -3.9840   -1.8550    0.1440 hc        1 AO5      0.072200
     34 H62        -3.9140   -0.8260   -1.3410 hc        1 AO5      0.072200
     35 H7         -1.8960    0.3420   -0.5290 h1        1 AO5      0.063700
     36 HN81       -2.1100    0.1930    1.7930 hn        1 AO5      0.358300
     37 HN82       -1.9590   -1.4330    1.8090 hn        1 AO5      0.358300
     38 H9         -1.8140   -1.7630   -1.9080 h1        1 AO5      0.101700
     39 H10        -1.2200   -3.2530    0.4000 ho        1 AO5      0.429000
     40 H13         0.0020    0.2190   -1.7710 hn        1 AO5      0.316500
     41 H14         2.5290   -0.9510   -1.4520 hn        1 AO5      0.318500
     42 H18         3.7240    3.1390   -0.7040 ha        1 AO5      0.156000
     43 H19         6.1510    3.3950   -0.1400 ha        1 AO5      0.145000
     44 H20         7.4690    1.4260    0.6380 ha        1 AO5      0.152000
     45 H22         3.9460   -1.0750    0.2950 ha        1 AO5      0.158000
@<TRIPOS>BOND
     1    1    2 1   
     2    1    3 1   
     3    1    4 1   
     4    1   24 1   
     5    2   25 1   
     6    2   26 1   
     7    2   27 1   
     8    3   28 1   
     9    3   29 1   
    10    3   30 1   
    11    4    5 1   
    12    5    6 1   
    13    5   31 1   
    14    5   32 1   
    15    6    7 1   
    16    6   33 1   
    17    6   34 1   
    18    7    8 1   
    19    7    9 1   
    20    7   35 1   
    21    8   36 1   
    22    8   37 1   
    23    9   10 1   
    24    9   11 1   
    25    9   38 1   
    26   10   39 1   
    27   11   12 2   
    28   11   13 1   
    29   13   14 1   
    30   13   40 1   
    31   14   15 1   
    32   14   41 1   
    33   15   16 2   
    34   15   17 1   
    35   17   18 ar  
    36   17   22 ar  
    37   18   19 ar  
    38   18   42 1   
    39   19   20 ar  
    40   19   43 1   
    41   20   21 ar  
    42   20   44 1   
    43   21   22 ar  
    44   21   23 1   
    45   22   45 1   
@<TRIPOS>SUBSTRUCTURE
     1 AO5         1 TEMP              0 ****  ****    0 ROOT
