@<TRIPOS>MOLECULE
AO5
   45    43     1     0     0
SMALL
bcc


@<TRIPOS>ATOM
      1 C1          2.3780   -2.5130    5.1530 c3        1 AO5     -0.204000
      2 C2          3.6420   -2.4320    5.9810 c3        1 AO5     -0.206000
      3 C3          1.2160   -2.8930    6.0430 c3        1 AO5     -0.206000
      4 S4          2.0590   -0.9360    4.4050 ss        1 AO5      0.047000
      5 C5          2.1100   -1.0980    2.6400 c3        1 AO5     -0.273000
      6 C6          1.3550    0.0510    2.0060 c3        1 AO5     -0.151000
      7 C7          1.3820   -0.0970    0.5010 c3        1 AO5     -0.047000
      8 N8          0.4680   -1.1130    0.1080 n3        1 AO5     -0.363000
      9 C9          0.9860    1.2120   -0.1410 c3        1 AO5      0.024000
     10 O10        -0.2480    1.6390    0.3840 oh        1 AO5     -0.319000
     11 C11         0.8590    1.0230   -1.6370 c2        1 AO5      0.227000
     12 O12         1.1230   -0.0520   -2.1370 o         1 AO5     -0.353000
     13 N13         0.4610    2.1100   -2.4590 n         1 AO5     -0.228000
     14 N14        -0.2660    1.8750   -3.6100 n         1 AO5     -0.225000
     15 C15        -1.4600    2.6040   -3.8560 c2        1 AO5      0.296000
     16 O16        -1.5300    3.7760   -3.5450 o         1 AO5     -0.323000
     17 C17        -2.6540    1.9120   -4.4780 c2        1 AO5     -0.119000
     18 C18        -2.9650    2.1320   -5.8120 c2        1 AO5     -0.093000
     19 C19        -4.0950    1.5510   -6.3650 c1        1 AO5     -0.132000
     20 C20        -4.9150    0.7490   -5.5850 c1        1 AO5     -0.100000
     21 C21        -4.6040    0.5290   -4.2520 c1        1 AO5     -0.072000
     22 C22        -3.4730    1.1110   -3.6990 c1        1 AO5     -0.073000
     23 CL23       -5.6610   -0.4380   -3.2600 cl        1 AO5     -0.003000
     24 H1          2.4880   -3.1870    4.4560 h1        1 AO5      0.103000
     25 H21         3.7560   -3.2640    6.4850 hc        1 AO5      0.084333
     26 H22A        4.4120   -2.3000    5.3900 hc        1 AO5      0.084333
     27 H23         3.5770   -1.6790    6.6040 hc        1 AO5      0.084333
     28 H31         1.0910   -2.2060    6.7300 hc        1 AO5      0.084333
     29 H32         1.4020   -3.7550    6.4730 hc        1 AO5      0.084333
     30 H33         0.4010   -2.9670    5.5030 hc        1 AO5      0.084333
     31 H51         3.0410   -1.0820    2.3370 h1        1 AO5      0.097500
     32 H52         1.6960   -1.9430    2.3780 h1        1 AO5      0.097500
     33 H61         0.4270    0.0430    2.3180 hc        1 AO5      0.110000
     34 H62         1.7760    0.8960    2.2580 hc        1 AO5      0.110000
     35 H7          2.2830   -0.3420    0.2140 h1        1 AO5      0.084000
     36 HN81        0.9320   -1.8260   -0.2320 hn        1 AO5      0.162500
     37 HN82       -0.0180   -1.3840    0.8350 hn        1 AO5      0.162500
     38 H9          1.6700    1.8860    0.0440 h1        1 AO5      0.141000
     39 H10        -0.1690    2.4710    0.6860 ho        1 AO5      0.232000
     40 H13         0.6980    2.9610   -2.2350 hn        1 AO5      0.246000
     41 H14         0.0370    1.2760   -4.2270 hn        1 AO5      0.227000
     42 H18        -2.3880    2.6970   -6.3610 ha        1 AO5      0.150000
     43 H19        -4.3140    1.7060   -7.3030 ha        1 AO5      0.144000
     44 H20        -5.7110    0.3400   -5.9750 ha        1 AO5      0.152000
     45 H22        -3.2550    0.9560   -2.7600 ha        1 AO5      0.169000
@<TRIPOS>BOND
     1    1    2 1   
     2    1    3 1   
     3    1    4 1   
     4    1   24 1   
     5    2   25 1   
     6    2   26 1   
     7    2   27 1   
     8    3   28 1   
     9    3   29 1   
    10    3   30 1   
    11    4    5 1   
    12    5    6 1   
    13    5   31 1   
    14    5   32 1   
    15    6    7 1   
    16    6   33 1   
    17    6   34 1   
    18    7    8 1   
    19    7    9 1   
    20    7   35 1   
    21    8   36 1   
    22    8   37 1   
    23    9   10 1   
    24    9   11 1   
    25    9   38 1   
    26   10   39 1   
    27   11   12 1   
    28   11   13 1   
    29   13   14 1   
    30   13   40 1   
    31   14   15 1   
    32   14   41 1   
    33   15   16 1   
    34   15   17 1   
    35   17   18 1   
    36   17   22 1   
    37   18   19 1   
    38   18   42 1   
    39   19   43 1   
    40   20   21 1   
    41   20   44 1   
    42   21   23 1   
    43   22   45 1   
@<TRIPOS>SUBSTRUCTURE
     1 AO5         1 TEMP              0 ****  ****    0 ROOT
