@<TRIPOS>MOLECULE
AO5
   48    48     1     0     0
SMALL
bcc


@<TRIPOS>ATOM
      1 C1          0.0000    0.0000    0.0000 c3        1 AO5      0.073400
      2 C2          1.5300    0.0000    0.0000 c3        1 AO5      0.008400
      3 C3         -0.5100    0.0000    1.4420 c3        1 AO5      0.008400
      4 S4         -0.6050    1.4820   -0.8540 ss        1 AO5     -0.180200
      5 C5          0.0010    1.1480   -2.5310 c3        1 AO5      0.003700
      6 C6         -0.4010    2.2980   -3.4580 c3        1 AO5     -0.009400
      7 C7          0.1100    2.0150   -4.8720 c3        1 AO5     -0.082500
      8 N8         -0.5660    0.8270   -5.4100 nz        1 AO5      0.041400
      9 C9         -0.1830    3.2200   -5.7700 c3        1 AO5      0.132100
     10 O10        -1.5790    3.5230   -5.7180 oh        1 AO5     -0.513800
     11 C11         0.2090    2.8960   -7.1880 c         1 AO5      0.257100
     12 O12        -0.6400    2.8330   -8.0530 o         1 AO5     -0.325100
     13 N13         1.5020    2.6760   -7.4970 ny        1 AO5      0.049400
     14 N14         1.8670    2.3750   -8.8150 ny        1 AO5      0.081400
     15 C15         3.1590    2.1540   -9.1230 c         1 AO5      0.368700
     16 O16         4.0110    2.2170   -8.2570 o         1 AO5     -0.459100
     17 C17         3.5440    1.8360  -10.5150 ca        1 AO5     -0.224600
     18 C18         4.8830    1.6080  -10.8380 ca        1 AO5      0.062000
     19 C19         5.2360    1.3120  -12.1380 ca        1 AO5     -0.072000
     20 C20         4.2660    1.2400  -13.1220 ca        1 AO5      0.069000
     21 C21         2.9370    1.4660  -12.8090 ca        1 AO5     -0.050600
     22 C22         2.5700    1.7580  -11.5110 ca        1 AO5     -0.112000
     23 Cl23        1.7270    1.3740  -14.0520 cl        1 AO5      0.136600
     24 H1         -0.3610   -0.8840   -0.5110 h1        1 AO5      0.052700
     25 H21         1.8910    1.0210    0.0070 hc        1 AO5      0.031200
     26 H22A        1.8910   -0.5170    0.8810 hc        1 AO5      0.031200
     27 H23         1.8910   -0.5040   -0.8880 hc        1 AO5      0.031200
     28 H31        -0.0830    0.8400    1.9770 hc        1 AO5      0.031200
     29 H32        -1.5900    0.0840    1.4430 hc        1 AO5      0.031200
     30 H33        -0.2190   -0.9230    1.9280 hc        1 AO5      0.031200
     31 H51         1.0810    1.0600   -2.5140 h1        1 AO5      0.039200
     32 H52        -0.4300    0.2230   -2.8940 h1        1 AO5      0.039200
     33 H61         0.0310    3.2220   -3.0950 hc        1 AO5      0.088200
     34 H62        -1.4810    2.3860   -3.4750 hc        1 AO5      0.088200
     35 H7          1.1790    1.8400   -4.8410 hx        1 AO5      0.078700
     36 HN81       -1.0490    1.0710   -6.2520 hn        1 AO5      0.246467
     37 HN82       -1.2220    0.4830   -4.7360 hn        1 AO5      0.246467
     38 H9          0.3860    4.0750   -5.4240 h1        1 AO5      0.095700
     39 H10        -1.7020    4.4530   -5.8120 ho        1 AO5      0.476000
     40 H13         2.0080    3.4980   -7.2350 hn        1 AO5      0.324300
     41 H14         1.5580    3.1390   -9.3840 hn        1 AO5      0.331800
     42 H18         5.6440    1.6640  -10.0680 ha        1 AO5      0.143000
     43 H19         6.2750    1.1350  -12.3890 ha        1 AO5      0.162000
     44 H20         4.5480    1.0090  -14.1420 ha        1 AO5      0.157000
     45 H22         1.5290    1.9350  -11.2670 ha        1 AO5      0.081000
     46 H83         0.1120    0.1180   -5.6070 hn        1 AO5      0.246467
     47 H132        1.8110    1.9120   -6.9280 hn        1 AO5      0.324300
     48 H142        1.3610    1.5520   -9.0770 hn        1 AO5      0.331800
@<TRIPOS>BOND
     1    1    2 1   
     2    1    3 1   
     3    1    4 1   
     4    1   24 1   
     5    2   25 1   
     6    2   26 1   
     7    2   27 1   
     8    3   28 1   
     9    3   29 1   
    10    3   30 1   
    11    4    5 1   
    12    5    6 1   
    13    5   31 1   
    14    5   32 1   
    15    6    7 1   
    16    6   33 1   
    17    6   34 1   
    18    7    8 1   
    19    7    9 1   
    20    7   35 1   
    21    8   36 1   
    22    8   37 1   
    23    8   46 1   
    24    9   10 1   
    25    9   11 1   
    26    9   38 1   
    27   10   39 1   
    28   11   12 2   
    29   11   13 1   
    30   13   14 1   
    31   13   40 1   
    32   13   47 1   
    33   14   15 1   
    34   14   41 1   
    35   14   48 1   
    36   15   16 2   
    37   15   17 1   
    38   17   18 ar  
    39   17   22 ar  
    40   18   19 ar  
    41   18   42 1   
    42   19   20 ar  
    43   19   43 1   
    44   20   21 ar  
    45   20   44 1   
    46   21   22 ar  
    47   21   23 1   
    48   22   45 1   
@<TRIPOS>SUBSTRUCTURE
     1 AO5         1 TEMP              0 ****  ****    0 ROOT
