@<TRIPOS>MOLECULE
AO9
   45    48     1     0     0
SMALL
bcc


@<TRIPOS>ATOM
      1 N1         -0.1050    0.0630   -0.1460 n         1 AO9     -0.358000
      2 C2          0.9250   -0.9360   -0.1810 c         1 AO9      0.856900
      3 O2          1.0790   -1.6460   -1.1890 o         1 AO9     -0.596500
      4 N3          1.7770   -1.0950    0.9480 nc        1 AO9     -0.616100
      5 C4          1.6030   -0.2880    1.9790 cd        1 AO9      0.617500
      6 N4          2.5030   -0.4610    3.1490 n4        1 AO9     -0.802600
      7 C5          0.6080    0.7450    2.0540 cd        1 AO9     -0.410600
      8 C6         -0.2280    0.8690    0.9550 cc        1 AO9      0.120600
      9 C1'        -1.0820    0.2440   -1.2370 c3        1 AO9      0.260500
     10 C2'        -0.8330    1.5400   -2.0820 c3        1 AO9      0.088100
     11 O2'        -1.8340    2.4750   -1.7990 oh        1 AO9     -0.568800
     12 C3'        -0.8100    1.0620   -3.5510 c3        1 AO9      0.101100
     13 O3'        -1.9760    1.4960   -4.2170 oh        1 AO9     -0.582800
     14 C30         1.6820   -3.2200   -4.4530 c         1 AO9      0.611700
     15 O31         2.6110   -2.4370   -4.6360 o         1 AO9     -0.468100
     16 C32         1.6450   -4.6110   -4.7100 cc        1 AO9     -0.410200
     17 N33         0.6410   -5.5710   -4.4950 na        1 AO9     -0.103900
     18 C34         1.1680   -6.8120   -4.9790 cc        1 AO9      0.395900
     19 N35         2.4490   -6.6580   -5.4770 nd        1 AO9     -0.604000
     20 C36         2.7460   -5.3470   -5.3210 cd        1 AO9      0.504200
     21 S37         0.0760   -8.0640   -4.7950 ss        1 AO9      0.255700
     22 C38        -1.0560   -7.0440   -4.0960 cc        1 AO9     -0.179100
     23 C39        -0.6370   -5.7300   -3.9850 cd        1 AO9     -0.128300
     24 C4'        -0.8840   -0.4770   -3.4840 c3        1 AO9      0.106100
     25 O4'        -1.0950   -0.8750   -2.1210 os        1 AO9     -0.403600
     26 C5'         0.4060   -1.1110   -4.0140 c3        1 AO9      0.098800
     27 N5'         0.4090   -2.5930   -3.8790 n4        1 AO9     -0.669800
     28 HN4         3.1840   -1.2220    2.9950 hn        1 AO9      0.488467
     29 HN4A        1.9310   -0.6810    3.9750 hn        1 AO9      0.488467
     30 H5          0.4930    1.4090    2.9210 ha        1 AO9      0.201000
     31 H6         -1.0290    1.6440    0.9320 h4        1 AO9      0.221000
     32 H1'        -2.1100    0.2680   -0.7560 h2        1 AO9      0.121700
     33 H2'         0.1310    2.0520   -1.8100 h1        1 AO9      0.109700
     34 HO2'       -2.6350    2.2500   -2.3040 ho        1 AO9      0.446000
     35 H3'         0.1190    1.4150   -4.0730 h1        1 AO9      0.091700
     36 HO3'       -1.7980    2.3720   -4.5900 ho        1 AO9      0.450000
     37 H36         3.7050   -4.9080   -5.6260 h4        1 AO9      0.087100
     38 H38        -2.0380   -7.3950   -3.7610 h4        1 AO9      0.220000
     39 H39        -1.1980   -4.8990   -3.5500 h4        1 AO9      0.179000
     40 H4'        -1.7900   -0.8490   -4.0470 h1        1 AO9      0.121700
     41 H5'         1.2990   -0.7240   -3.4410 hx        1 AO9      0.125700
     42 H5'A        0.5310   -0.8500   -5.1040 hx        1 AO9      0.125700
     43 HN5'        0.3500   -2.8250   -2.8760 hn        1 AO9      0.460300
     44 H43         3.0100    0.4200    3.3070 hn        1 AO9      0.488467
     45 H5'2       -0.4100   -2.9800   -4.3540 hn        1 AO9      0.460300
@<TRIPOS>BOND
     1    1    2 1   
     2    1    8 1   
     3    1    9 1   
     4    2    3 2   
     5    2    4 1   
     6    4    5 2   
     7    5    6 1   
     8    5    7 1   
     9    6   28 1   
    10    6   29 1   
    11    6   44 1   
    12    7    8 2   
    13    7   30 1   
    14    8   31 1   
    15    9   10 1   
    16    9   25 1   
    17    9   32 1   
    18   10   11 1   
    19   10   12 1   
    20   10   33 1   
    21   11   34 1   
    22   12   13 1   
    23   12   24 1   
    24   12   35 1   
    25   13   36 1   
    26   14   15 2   
    27   14   16 1   
    28   14   27 1   
    29   16   17 1   
    30   16   20 2   
    31   17   18 1   
    32   17   23 1   
    33   18   19 2   
    34   18   21 1   
    35   19   20 1   
    36   20   37 1   
    37   21   22 1   
    38   22   23 2   
    39   22   38 1   
    40   23   39 1   
    41   24   25 1   
    42   24   26 1   
    43   24   40 1   
    44   26   27 1   
    45   26   41 1   
    46   26   42 1   
    47   27   43 1   
    48   27   45 1   
@<TRIPOS>SUBSTRUCTURE
     1 AO9         1 TEMP              0 ****  ****    0 ROOT
