@<TRIPOS>MOLECULE
AO9
   45    48     1     0     0
SMALL
bcc


@<TRIPOS>ATOM
      1 N1         -0.0990    0.0600   -0.1380 n         1 AO9     -0.358000
      2 C2          0.9460   -0.9250   -0.1810 c         1 AO9      0.856900
      3 O2          1.0980   -1.6370   -1.1880 o         1 AO9     -0.596500
      4 N3          1.8140   -1.0660    0.9380 nc        1 AO9     -0.616100
      5 C4          1.6400   -0.2560    1.9680 cd        1 AO9      0.617500
      6 N4          2.5560   -0.4100    3.1270 nz        1 AO9     -0.802600
      7 C5          0.6310    0.7620    2.0500 cd        1 AO9     -0.410600
      8 C6         -0.2190    0.8700    0.9600 cc        1 AO9      0.120600
      9 C1'        -1.0900    0.2210   -1.2190 c3        1 AO9      0.260500
     10 C2'        -0.8710    1.5160   -2.0720 c3        1 AO9      0.088100
     11 O2'        -1.8820    2.4380   -1.7820 oh        1 AO9     -0.568800
     12 C3'        -0.8580    1.0320   -3.5390 c3        1 AO9      0.101100
     13 O3'        -2.0380    1.4460   -4.1930 oh        1 AO9     -0.582800
     14 C30         1.6870   -3.2160   -4.4510 c         1 AO9      0.611700
     15 O31         2.6020   -2.4200   -4.6470 o         1 AO9     -0.468100
     16 C32         1.6670   -4.6080   -4.7030 cc        1 AO9     -0.410200
     17 N33         0.6800   -5.5820   -4.4740 na        1 AO9     -0.103900
     18 C34         1.2180   -6.8180   -4.9600 cc        1 AO9      0.395900
     19 N35         2.4920   -6.6470   -5.4720 nd        1 AO9     -0.604000
     20 C36         2.7720   -5.3310   -5.3230 cd        1 AO9      0.504200
     21 S37         0.1460   -8.0840   -4.7610 ss        1 AO9      0.255700
     22 C38        -0.9920   -7.0780   -4.0520 cc        1 AO9     -0.179100
     23 C39        -0.5910   -5.7580   -3.9500 cd        1 AO9     -0.128300
     24 C4'        -0.9080   -0.5070   -3.4650 c3        1 AO9      0.106100
     25 O4'        -1.0970   -0.9020   -2.0970 os        1 AO9     -0.403600
     26 C5'         0.3850   -1.1250   -4.0060 c3        1 AO9      0.098800
     27 N5'         0.4110   -2.6050   -3.8650 ny        1 AO9     -0.669800
     28 HN4         3.2470   -1.1620    2.9690 hn        1 AO9      0.488467
     29 HN4A        1.9970   -0.6350    3.9610 hn        1 AO9      0.488467
     30 H5          0.5160    1.4290    2.9140 ha        1 AO9      0.201000
     31 H6         -1.0320    1.6330    0.9430 h4        1 AO9      0.221000
     32 H1'        -2.1130    0.2320   -0.7250 h2        1 AO9      0.121700
     33 H2'         0.0890    2.0440   -1.8140 h1        1 AO9      0.109700
     34 HO2'       -2.6850    2.1990   -2.2760 ho        1 AO9      0.446000
     35 H3'         0.0590    1.3970   -4.0740 h1        1 AO9      0.091700
     36 HO3'       -1.8780    2.3230   -4.5720 ho        1 AO9      0.450000
     37 H36         3.7210   -4.8790   -5.6410 h4        1 AO9      0.087100
     38 H38        -1.9650   -7.4420   -3.7050 h4        1 AO9      0.220000
     39 H39        -1.1590   -4.9330   -3.5110 h4        1 AO9      0.179000
     40 H4'        -1.8150   -0.8940   -4.0150 h1        1 AO9      0.121700
     41 H5'         1.2790   -0.7210   -3.4460 hx        1 AO9      0.125700
     42 H5'A        0.4940   -0.8670   -5.0990 hx        1 AO9      0.125700
     43 HN5'       -0.4070   -3.0070   -4.3300 hn        1 AO9      0.460300
     44 H43         3.0520    0.4790    3.2760 hn        1 AO9      0.488467
     45 H5'2        0.3670   -2.8340   -2.8600 hn        1 AO9      0.460300
@<TRIPOS>BOND
     1    1    2 1   
     2    1    8 1   
     3    1    9 1   
     4    2    3 2   
     5    2    4 1   
     6    4    5 2   
     7    5    6 1   
     8    5    7 1   
     9    6   28 1   
    10    6   29 1   
    11    6   44 1   
    12    7    8 2   
    13    7   30 1   
    14    8   31 1   
    15    9   10 1   
    16    9   25 1   
    17    9   32 1   
    18   10   11 1   
    19   10   12 1   
    20   10   33 1   
    21   11   34 1   
    22   12   13 1   
    23   12   24 1   
    24   12   35 1   
    25   13   36 1   
    26   14   15 2   
    27   14   16 1   
    28   14   27 1   
    29   16   17 1   
    30   16   20 2   
    31   17   18 1   
    32   17   23 1   
    33   18   19 2   
    34   18   21 1   
    35   19   20 1   
    36   20   37 1   
    37   21   22 1   
    38   22   23 2   
    39   22   38 1   
    40   23   39 1   
    41   24   25 1   
    42   24   26 1   
    43   24   40 1   
    44   26   27 1   
    45   26   41 1   
    46   26   42 1   
    47   27   43 1   
    48   27   45 1   
@<TRIPOS>SUBSTRUCTURE
     1 AO9         1 TEMP              0 ****  ****    0 ROOT
