@<TRIPOS>MOLECULE
AO9
   45    48     1     0     0
SMALL
bcc


@<TRIPOS>ATOM
      1 N1         -0.1010    0.0560   -0.1440 n         1 AO9     -0.358000
      2 C2          0.9290   -0.9430   -0.1820 c         1 AO9      0.856900
      3 O2          1.0810   -1.6530   -1.1900 o         1 AO9     -0.596500
      4 N3          1.7850   -1.1010    0.9450 nc        1 AO9     -0.616100
      5 C4          1.6130   -0.2930    1.9770 cd        1 AO9      0.617500
      6 N4          2.5160   -0.4660    3.1440 n4        1 AO9     -0.802600
      7 C5          0.6180    0.7390    2.0540 cd        1 AO9     -0.410600
      8 C6         -0.2200    0.8630    0.9570 cc        1 AO9      0.120600
      9 C1'        -1.0800    0.2360   -1.2330 c3        1 AO9      0.260500
     10 C2'        -0.8340    1.5320   -2.0780 c3        1 AO9      0.088100
     11 O2'        -1.8350    2.4670   -1.7930 oh        1 AO9     -0.568800
     12 C3'        -0.8140    1.0540   -3.5470 c3        1 AO9      0.101100
     13 O3'        -1.9820    1.4870   -4.2100 oh        1 AO9     -0.582800
     14 C30         1.6770   -3.2260   -4.4540 c         1 AO9      0.611700
     15 O31         2.6060   -2.4430   -4.6380 o         1 AO9     -0.468100
     16 C32         1.6400   -4.6170   -4.7130 cc        1 AO9     -0.410200
     17 N33         0.6370   -5.5770   -4.4980 na        1 AO9     -0.103900
     18 C34         1.1620   -6.8190   -4.9850 cc        1 AO9      0.395900
     19 N35         2.4430   -6.6640   -5.4840 nd        1 AO9     -0.604000
     20 C36         2.7400   -5.3520   -5.3260 cd        1 AO9      0.504200
     21 S37         0.0700   -8.0700   -4.8010 ss        1 AO9      0.255700
     22 C38        -1.0600   -7.0510   -4.0990 cc        1 AO9     -0.179100
     23 C39        -0.6410   -5.7380   -3.9860 cd        1 AO9     -0.128300
     24 C4'        -0.8870   -0.4850   -3.4800 c3        1 AO9      0.106100
     25 O4'        -1.0950   -0.8830   -2.1160 os        1 AO9     -0.403600
     26 C5'         0.4010   -1.1190   -4.0130 c3        1 AO9      0.098800
     27 N5'         0.4050   -2.6000   -3.8770 n4        1 AO9     -0.669800
     28 HN4         1.9460   -0.6860    3.9720 hn        1 AO9      0.488467
     29 HN4A        3.1970   -1.2270    2.9890 hn        1 AO9      0.488467
     30 H5          0.5050    1.4030    2.9210 ha        1 AO9      0.201000
     31 H6         -1.0220    1.6380    0.9360 h4        1 AO9      0.221000
     32 H1'        -2.1070    0.2600   -0.7490 h2        1 AO9      0.121700
     33 H2'         0.1310    2.0450   -1.8090 h1        1 AO9      0.109700
     34 HO2'       -2.6370    2.2410   -2.2960 ho        1 AO9      0.446000
     35 H3'         0.1130    1.4070   -4.0720 h1        1 AO9      0.091700
     36 HO3'       -1.8060    2.3640   -4.5840 ho        1 AO9      0.450000
     37 H36         3.6990   -4.9130   -5.6320 h4        1 AO9      0.087100
     38 H38        -2.0420   -7.4020   -3.7630 h4        1 AO9      0.220000
     39 H39        -1.2010   -4.9070   -3.5490 h4        1 AO9      0.179000
     40 H4'        -1.7950   -0.8570   -4.0400 h1        1 AO9      0.121700
     41 H5'         1.2960   -0.7310   -3.4420 hx        1 AO9      0.125700
     42 H5'A        0.5240   -0.8570   -5.1030 hx        1 AO9      0.125700
     43 HN5'       -0.4140   -2.9880   -4.3520 hn        1 AO9      0.460300
     44 H43         3.0230    0.4150    3.3010 hn        1 AO9      0.488467
     45 H5'2        0.3480   -2.8330   -2.8740 hn        1 AO9      0.460300
@<TRIPOS>BOND
     1    1    2 1   
     2    1    8 1   
     3    1    9 1   
     4    2    3 2   
     5    2    4 1   
     6    4    5 2   
     7    5    6 1   
     8    5    7 1   
     9    6   28 1   
    10    6   29 1   
    11    6   44 1   
    12    7    8 2   
    13    7   30 1   
    14    8   31 1   
    15    9   10 1   
    16    9   25 1   
    17    9   32 1   
    18   10   11 1   
    19   10   12 1   
    20   10   33 1   
    21   11   34 1   
    22   12   13 1   
    23   12   24 1   
    24   12   35 1   
    25   13   36 1   
    26   14   15 2   
    27   14   16 1   
    28   14   27 1   
    29   16   17 1   
    30   16   20 2   
    31   17   18 1   
    32   17   23 1   
    33   18   19 2   
    34   18   21 1   
    35   19   20 1   
    36   20   37 1   
    37   21   22 1   
    38   22   23 2   
    39   22   38 1   
    40   23   39 1   
    41   24   25 1   
    42   24   26 1   
    43   24   40 1   
    44   26   27 1   
    45   26   41 1   
    46   26   42 1   
    47   27   43 1   
    48   27   45 1   
@<TRIPOS>SUBSTRUCTURE
     1 AO9         1 TEMP              0 ****  ****    0 ROOT
