@<TRIPOS>MOLECULE
AO9
   43    41     1     0     0
SMALL
bcc


@<TRIPOS>ATOM
      1 N1         -0.8660    0.7960    3.2510 n         1 AO9     -0.282000
      2 C2          0.3220    0.0380    3.6080 c2        1 AO9      0.360000
      3 O2          0.8390   -0.6930    2.7950 o         1 AO9     -0.365000
      4 N3          0.8950    0.1650    4.9400 n2        1 AO9     -0.301000
      5 C4          0.3560    1.1000    5.8580 c1        1 AO9      0.234000
      6 N4          0.9640    1.2930    7.0960 n3        1 AO9     -0.362000
      7 C5         -0.8360    1.8620    5.5040 c1        1 AO9     -0.342000
      8 C6         -1.4090    1.7340    4.1660 c2        1 AO9      0.073000
      9 C1'        -1.4770    0.5430    2.1690 c3        1 AO9      0.116000
     10 C2'        -1.4690    1.7750    1.2510 c3        1 AO9      0.022000
     11 O2'        -2.8130    2.0070    0.6990 oh        1 AO9     -0.314000
     12 C3'        -0.6150    1.4710    0.2750 c3        1 AO9     -0.010000
     13 O3'        -1.0470    2.0600   -0.9550 oh        1 AO9     -0.342000
     14 C30         1.3680   -1.7510   -2.5810 c1        1 AO9      0.394000
     15 O31         2.5110   -1.4460   -2.3510 o         1 AO9     -0.415000
     16 C32         1.0160   -2.4200   -3.8850 c1        1 AO9     -0.176000
     17 N33         1.0810   -1.8620   -5.0920 n3        1 AO9     -0.060000
     18 C34         0.7900   -2.8540   -6.0450 c2        1 AO9     -0.271000
     19 N35         0.5510   -4.0060   -5.3870 n2        1 AO9     -0.112000
     20 C36         0.6840   -3.7650   -4.0510 c1        1 AO9     -0.097000
     21 S37         0.8670   -2.2020   -7.4530 ss        1 AO9      0.584000
     22 C38         1.2280   -0.7430   -7.2600 c1        1 AO9     -0.447000
     23 C39         1.3640   -0.5060   -5.8520 c1        1 AO9     -0.037000
     24 C4'        -0.6250   -0.1480    0.1540 c3        1 AO9     -0.017000
     25 O4'        -0.7240   -0.6030    1.3610 os        1 AO9     -0.282000
     26 C5'         0.6570   -0.6330   -0.4790 c3        1 AO9     -0.038000
     27 N5'         0.3450   -1.4260   -1.6520 n3        1 AO9     -0.366000
     28 HN4         1.7640    0.9050    7.2730 hn        1 AO9      0.235500
     29 HN4A        0.5540    1.8100    7.7320 hn        1 AO9      0.235500
     30 H5         -1.2100    2.5070    6.1360 ha        1 AO9      0.155000
     31 H6         -2.2060    2.2420    3.9270 h4        1 AO9      0.158000
     32 H1'        -2.3970    0.2700    2.3580 h2        1 AO9      0.126000
     33 H2'        -1.1570    2.5700    1.7460 h1        1 AO9      0.154000
     34 HO2'       -3.1060    2.8100    0.9580 ho        1 AO9      0.224000
     35 H3'         0.2860    1.7870    0.5040 h1        1 AO9      0.144000
     36 HO3'       -0.4450    2.6520   -1.2270 ho        1 AO9      0.239000
     37 H36         0.6190   -4.4310   -3.3400 DU        1 AO9      0.195667
     38 H38         1.2930   -0.0730   -7.9610 DU        1 AO9      0.195667
     39 H39         1.5910    0.3440   -5.4360 DU        1 AO9      0.195667
     40 H4'        -1.3880   -0.4360   -0.3740 h1        1 AO9      0.117000
     41 H5'         1.1490   -1.1800    0.1630 h1        1 AO9      0.121500
     42 H5'A        1.2060    0.1390   -0.7410 h1        1 AO9      0.121500
     43 HN5'       -0.5110   -1.6990   -1.8020 hn        1 AO9      0.231000
@<TRIPOS>BOND
     1    1    2 1   
     2    1    8 1   
     3    1    9 1   
     4    2    3 1   
     5    2    4 1   
     6    4    5 1   
     7    5    6 1   
     8    6   28 1   
     9    6   29 1   
    10    7    8 1   
    11    7   30 1   
    12    8   31 1   
    13    9   10 1   
    14    9   25 1   
    15    9   32 1   
    16   10   11 1   
    17   10   12 1   
    18   10   33 1   
    19   11   34 1   
    20   12   13 1   
    21   12   24 1   
    22   12   35 1   
    23   13   36 1   
    24   14   15 1   
    25   14   27 1   
    26   16   17 1   
    27   16   20 1   
    28   17   18 1   
    29   17   23 1   
    30   18   19 1   
    31   18   21 1   
    32   19   20 1   
    33   21   22 1   
    34   22   23 1   
    35   24   25 1   
    36   24   26 1   
    37   24   40 1   
    38   26   27 1   
    39   26   41 1   
    40   26   42 1   
    41   27   43 1   
@<TRIPOS>SUBSTRUCTURE
     1 AO9         1 TEMP              0 ****  ****    0 ROOT
