@<TRIPOS>MOLECULE
AO9
   43    46     1     0     0
SMALL
bcc


@<TRIPOS>ATOM
      1 N1          3.0840   -0.2930    0.5070 n         1 AO9     -0.396000
      2 C2          3.2770   -0.4310   -0.9220 c         1 AO9      0.841900
      3 O2          3.0880    0.5780   -1.6340 o         1 AO9     -0.638500
      4 N3          3.6750   -1.6530   -1.4730 nc        1 AO9     -0.726100
      5 C4          3.8580   -2.7100   -0.6580 cd        1 AO9      0.764500
      6 N4          4.2750   -3.9080   -1.1810 nh        1 AO9     -0.925800
      7 C5          3.6360   -2.6160    0.7860 cd        1 AO9     -0.424600
      8 C6          3.2440   -1.4090    1.2970 cc        1 AO9      0.071600
      9 C1'         2.6030    0.9340    1.1270 c3        1 AO9      0.303500
     10 C2'         3.2340    2.2430    0.5730 c3        1 AO9      0.088100
     11 O2'         3.7370    2.9360    1.7040 oh        1 AO9     -0.607800
     12 C3'         2.0680    3.0190   -0.0790 c3        1 AO9      0.097100
     13 O3'         1.9790    4.3260    0.4410 oh        1 AO9     -0.585800
     14 C30        -2.2900    1.3090   -1.0790 c         1 AO9      0.708700
     15 O31        -2.5450    2.4170   -1.5930 o         1 AO9     -0.594100
     16 C32        -3.3810    0.4000   -0.6880 cc        1 AO9     -0.280200
     17 N33        -3.3620   -0.5860    0.3000 na        1 AO9     -0.124900
     18 C34        -4.6700   -1.1880    0.2970 cc        1 AO9      0.396900
     19 N35        -5.4680   -0.6260   -0.6470 nd        1 AO9     -0.640000
     20 C36        -4.6870    0.3480   -1.2490 cd        1 AO9      0.398200
     21 S37        -4.7870   -2.3820    1.4920 ss        1 AO9     -0.000300
     22 C38        -3.1940   -2.0960    2.0080 cc        1 AO9     -0.172100
     23 C39        -2.5500   -1.1110    1.2980 cd        1 AO9     -0.088300
     24 C4'         0.8050    2.1840    0.1980 c3        1 AO9      0.083100
     25 O4'         1.1780    1.0490    0.9940 os        1 AO9     -0.438600
     26 C5'         0.1440    1.7190   -1.1120 c3        1 AO9      0.070000
     27 N5'        -0.9910    0.8660   -0.9150 n         1 AO9     -0.559900
     28 HN4         4.3980   -4.0220   -2.1580 hn        1 AO9      0.445800
     29 HN4A        4.3350   -4.6950   -0.5880 hn        1 AO9      0.445800
     30 H5          3.7800   -3.4850    1.4360 ha        1 AO9      0.156000
     31 H6          3.0520   -1.2880    2.3820 h4        1 AO9      0.158000
     32 H1'         2.7890    0.8640    2.2440 h2        1 AO9      0.096700
     33 H2'         4.0590    2.0560   -0.1640 h1        1 AO9      0.097700
     34 HO2'        4.0790    3.7800    1.3790 ho        1 AO9      0.427000
     35 H3'         2.2440    3.1530   -1.1820 h1        1 AO9      0.120700
     36 HO3'        1.7940    4.2550    1.3880 ho        1 AO9      0.411000
     37 H36        -5.0680    0.9840   -2.0520 h4        1 AO9      0.064100
     38 H38        -2.7500   -2.6530    2.8320 h4        1 AO9      0.187000
     39 H39        -1.5340   -0.7270    1.4500 h4        1 AO9      0.194000
     40 H4'         0.0720    2.7580    0.8310 h1        1 AO9      0.079700
     41 H5'        -0.1720    2.6390   -1.6840 h1        1 AO9      0.091700
     42 H5'A        0.9120    1.1540   -1.7200 h1        1 AO9      0.091700
     43 HN5'       -0.8140   -0.0010   -0.4690 hn        1 AO9      0.311500
@<TRIPOS>BOND
     1    1    2 1   
     2    1    8 1   
     3    1    9 1   
     4    2    3 2   
     5    2    4 1   
     6    4    5 2   
     7    5    6 1   
     8    5    7 1   
     9    6   28 1   
    10    6   29 1   
    11    7    8 2   
    12    7   30 1   
    13    8   31 1   
    14    9   10 1   
    15    9   25 1   
    16    9   32 1   
    17   10   11 1   
    18   10   12 1   
    19   10   33 1   
    20   11   34 1   
    21   12   13 1   
    22   12   24 1   
    23   12   35 1   
    24   13   36 1   
    25   14   15 2   
    26   14   16 1   
    27   14   27 1   
    28   16   17 1   
    29   16   20 2   
    30   17   18 1   
    31   17   23 1   
    32   18   19 2   
    33   18   21 1   
    34   19   20 1   
    35   20   37 1   
    36   21   22 1   
    37   22   23 2   
    38   22   38 1   
    39   23   39 1   
    40   24   25 1   
    41   24   26 1   
    42   24   40 1   
    43   26   27 1   
    44   26   41 1   
    45   26   42 1   
    46   27   43 1   
@<TRIPOS>SUBSTRUCTURE
     1 AO9         1 TEMP              0 ****  ****    0 ROOT
