@<TRIPOS>MOLECULE
AOA
   10     9     1     0     0
SMALL
bcc


@<TRIPOS>ATOM
      1 C1         -0.6610   -0.2450    0.3020 c3        1 AOA      0.017400
      2 N1         -0.3460    0.2950    2.5600 n3        1 AOA     -0.666300
      3 O1          0.1330    0.4280    1.3050 os        1 AOA     -0.254100
      4 C2          0.0420    0.0230   -1.0560 c         1 AOA      0.917600
      5 O2         -0.3300    1.0320   -1.7140 o         1 AOA     -0.834300
      6 O3          0.8970   -0.8190   -1.4430 o         1 AOA     -0.834300
      7 H1C1       -0.6910   -1.3420    0.5160 h1        1 AOA      0.013700
      8 H1C2       -1.6970    0.1750    0.2940 h1        1 AOA      0.013700
      9 H1N1        0.4100   -0.1030    3.1140 hn        1 AOA      0.311800
     10 H1N2       -0.4790    1.2380    2.9170 hn        1 AOA      0.311800
@<TRIPOS>BOND
     1    1    3 1   
     2    1    4 1   
     3    1    7 1   
     4    1    8 1   
     5    2    3 1   
     6    2    9 1   
     7    2   10 1   
     8    4    5 1   
     9    4    6 1   
@<TRIPOS>SUBSTRUCTURE
     1 AOA         1 TEMP              0 ****  ****    0 ROOT
