@<TRIPOS>MOLECULE
AOA
   10     9     1     0     0
SMALL
bcc


@<TRIPOS>ATOM
      1 C1         -0.5460   -0.0010   -0.0400 c3        1 AOA      0.017400
      2 N1          1.3270    0.0020   -1.3280 n3        1 AOA     -0.666300
      3 O1          0.8630   -0.0010   -0.0400 os        1 AOA     -0.254100
      4 C2         -1.0500   -0.0010    1.3860 c         1 AOA      0.917600
      5 O2         -1.2450   -1.0910    1.9850 o         1 AOA     -0.834300
      6 O3         -1.2760    1.0890    1.9740 o         1 AOA     -0.834300
      7 H1C1       -0.8710   -0.7980   -0.5000 h1        1 AOA      0.013700
      8 H1C2       -0.8710    0.7960   -0.5000 h1        1 AOA      0.013700
      9 H1N1        1.8350    0.7470   -1.4670 hn        1 AOA      0.311800
     10 H1N2        1.8350   -0.7430   -1.4700 hn        1 AOA      0.311800
@<TRIPOS>BOND
     1    1    3 1   
     2    1    4 1   
     3    1    7 1   
     4    1    8 1   
     5    2    3 1   
     6    2    9 1   
     7    2   10 1   
     8    4    5 1   
     9    4    6 1   
@<TRIPOS>SUBSTRUCTURE
     1 AOA         1 TEMP              0 ****  ****    0 ROOT
