@<TRIPOS>MOLECULE
AOB
   33    36     1     0     0
SMALL
bcc


@<TRIPOS>ATOM
      1 NAA        -1.4110   -0.4510    2.7360 n1        1 AOB     -0.288800
      2 CAD        -0.9200   -0.3200    1.6890 cg        1 AOB      0.229800
      3 CAR        -0.3250   -0.1620    0.4280 cc        1 AOB     -0.002000
      4 CAU         1.0590   -0.2090    0.1130 cc        1 AOB     -0.142600
      5 CAS         2.2520   -0.4190    0.9090 c         1 AOB      0.747100
      6 OAC         2.3570   -0.6170    2.1200 o         1 AOB     -0.522500
      7 NAM         3.4770   -0.3880    0.1600 ns        1 AOB     -0.501400
      8 CAO         3.4550   -0.1690   -1.2200 cc        1 AOB      0.488800
      9 NAB         4.7740   -0.1520   -1.9330 nz        1 AOB     -0.793600
     10 NAL         2.3860    0.0290   -1.9920 nd        1 AOB     -0.530100
     11 CAT         1.1790    0.0070   -1.3080 cd        1 AOB      0.092100
     12 NAN        -0.1020    0.1830   -1.8350 na        1 AOB     -0.116100
     13 CAQ        -1.0230    0.0820   -0.7940 cd        1 AOB      0.052900
     14 CAF        -2.4520    0.2020   -0.9780 cf        1 AOB     -0.078200
     15 CAE        -3.0080    0.6110   -2.1030 cu        1 AOB     -0.121400
     16 CAP        -2.8480    1.1110   -3.4780 cx        1 AOB     -0.043300
     17 CAJ        -2.4610    0.1930   -4.5530 c2        1 AOB     -0.153700
     18 CAH        -3.2670   -0.8170   -4.9370 ce        1 AOB     -0.112000
     19 CAG        -4.5680   -1.0230   -4.3380 ce        1 AOB     -0.112000
     20 CAI        -5.0420   -0.2070   -3.3760 c2        1 AOB     -0.153700
     21 CAK        -4.2410    0.9010   -2.8470 cx        1 AOB     -0.043300
     22 HAM         4.3280   -0.5290    0.6610 hn        1 AOB      0.349500
     23 HAB1        5.3600    0.5990   -1.5500 hn        1 AOB      0.480467
     24 HAB2        4.6240    0.0170   -2.9390 hn        1 AOB      0.480467
     25 HAN        -0.3330    0.3350   -2.7900 hn        1 AOB      0.340700
     26 HAF        -3.0590   -0.0760   -0.0960 ha        1 AOB      0.182000
     27 HAE        -2.4770    2.1490   -3.6120 hc        1 AOB      0.109200
     28 HAJ        -1.5120    0.4050   -5.0670 ha        1 AOB      0.140000
     29 HAK        -4.8350    1.7890   -2.5450 hc        1 AOB      0.109200
     30 HAH        -2.9780   -1.4980   -5.7550 ha        1 AOB      0.146000
     31 HAG        -5.1770   -1.8520   -4.7340 ha        1 AOB      0.146000
     32 HAI        -6.0590   -0.3160   -2.9680 ha        1 AOB      0.140000
     33 HAB3        5.2410   -1.0590   -1.8100 hn        1 AOB      0.480467
@<TRIPOS>BOND
     1    1    2 3   
     2    2    3 1   
     3    3    4 1   
     4    3   13 2   
     5    4    5 1   
     6    4   11 2   
     7    5    6 2   
     8    5    7 1   
     9    7    8 1   
    10    7   22 1   
    11    8    9 1   
    12    8   10 2   
    13    9   23 1   
    14    9   24 1   
    15    9   33 1   
    16   10   11 1   
    17   11   12 1   
    18   12   13 1   
    19   12   25 1   
    20   13   14 1   
    21   14   15 2   
    22   14   26 1   
    23   15   16 1   
    24   15   21 1   
    25   16   17 1   
    26   16   21 1   
    27   16   27 1   
    28   17   18 2   
    29   17   28 1   
    30   18   19 1   
    31   18   30 1   
    32   19   20 2   
    33   19   31 1   
    34   20   21 1   
    35   20   32 1   
    36   21   29 1   
@<TRIPOS>SUBSTRUCTURE
     1 AOB         1 TEMP              0 ****  ****    0 ROOT
