@<TRIPOS>MOLECULE
AOB
   33    36     1     0     0
SMALL
bcc


@<TRIPOS>ATOM
      1 NAA        -1.4420    0.2260    2.6740 n1        1 AOB     -0.288800
      2 CAD        -0.9410    0.1090    1.6300 cg        1 AOB      0.229800
      3 CAR        -0.3320   -0.0310    0.3730 cc        1 AOB     -0.002000
      4 CAU         1.0570   -0.0080    0.0770 cc        1 AOB     -0.142600
      5 CAS         2.2440    0.1550    0.8930 c         1 AOB      0.747100
      6 OAC         2.3370    0.3200    2.1110 o         1 AOB     -0.522500
      7 NAM         3.4770    0.1140    0.1600 n         1 AOB     -0.501400
      8 CAO         3.4690   -0.0700   -1.2250 cc        1 AOB      0.488800
      9 NAB         4.7970   -0.1000   -1.9210 n4        1 AOB     -0.793600
     10 NAL         2.4060   -0.2240   -2.0150 nd        1 AOB     -0.530100
     11 CAT         1.1910   -0.1910   -1.3470 cd        1 AOB      0.092100
     12 NAN        -0.0860   -0.3250   -1.8940 na        1 AOB     -0.116100
     13 CAQ        -1.0190   -0.2290   -0.8640 cd        1 AOB      0.052900
     14 CAF        -2.4480   -0.3110   -1.0680 cf        1 AOB     -0.078200
     15 CAE        -2.9970   -0.6780   -2.2100 cu        1 AOB     -0.121400
     16 CAP        -2.8300   -1.1480   -3.5950 cx        1 AOB     -0.043300
     17 CAJ        -2.4080   -0.2130   -4.6410 c2        1 AOB     -0.153700
     18 CAH        -3.1850    0.8250   -5.0110 ce        1 AOB     -0.112000
     19 CAG        -4.4900    1.0460   -4.4230 ce        1 AOB     -0.112000
     20 CAI        -4.9950    0.2180   -3.4880 c2        1 AOB     -0.153700
     21 CAK        -4.2260   -0.9220   -2.9770 cx        1 AOB     -0.043300
     22 HAM         4.3250    0.2230    0.6750 hn        1 AOB      0.349500
     23 HAB1        4.6560   -0.2410   -2.9330 hn        1 AOB      0.480467
     24 HAB2        5.2820    0.7930   -1.7710 hn        1 AOB      0.480467
     25 HAN        -0.3080   -0.4480   -2.8560 hn        1 AOB      0.340700
     26 HAF        -3.0600   -0.0410   -0.1870 ha        1 AOB      0.182000
     27 HAE        -2.4820   -2.1910   -3.7500 hc        1 AOB      0.109200
     28 HAJ        -1.4580   -0.4340   -5.1490 ha        1 AOB      0.140000
     29 HAK        -4.8460   -1.8030   -2.7050 hc        1 AOB      0.109200
     30 HAH        -2.8700    1.5190   -5.8070 ha        1 AOB      0.146000
     31 HAG        -5.0740    1.8990   -4.8060 ha        1 AOB      0.146000
     32 HAI        -6.0150    0.3400   -3.0910 ha        1 AOB      0.140000
     33 HAB3        5.3610   -0.8720   -1.5490 hn        1 AOB      0.480467
@<TRIPOS>BOND
     1    1    2 3   
     2    2    3 1   
     3    3    4 1   
     4    3   13 2   
     5    4    5 1   
     6    4   11 2   
     7    5    6 2   
     8    5    7 1   
     9    7    8 1   
    10    7   22 1   
    11    8    9 1   
    12    8   10 2   
    13    9   23 1   
    14    9   24 1   
    15    9   33 1   
    16   10   11 1   
    17   11   12 1   
    18   12   13 1   
    19   12   25 1   
    20   13   14 1   
    21   14   15 2   
    22   14   26 1   
    23   15   16 1   
    24   15   21 1   
    25   16   17 1   
    26   16   21 1   
    27   16   27 1   
    28   17   18 2   
    29   17   28 1   
    30   18   19 1   
    31   18   30 1   
    32   19   20 2   
    33   19   31 1   
    34   20   21 1   
    35   20   32 1   
    36   21   29 1   
@<TRIPOS>SUBSTRUCTURE
     1 AOB         1 TEMP              0 ****  ****    0 ROOT
