@<TRIPOS>MOLECULE
AOC
   37    32     1     0     0
SMALL
bcc


@<TRIPOS>ATOM
      1 CAA        -5.0470   -5.1550   -1.9420 c1        1 AOC     -0.198000
      2 CAE        -4.7360   -4.1320   -1.3340 c1        1 AOC     -0.198000
      3 CAH        -4.3470   -2.8520   -0.5720 c2        1 AOC      0.082000
      4 O5'        -2.9740   -2.6430   -0.6810 os        1 AOC     -0.274000
      5 C5'        -2.4720   -1.5530    0.1540 c3        1 AOC     -0.044000
      6 C4'        -0.9150   -1.5010    0.0570 c3        1 AOC     -0.046000
      7 O4'        -0.5360   -0.3860   -0.4470 os        1 AOC     -0.259000
      8 C3'        -0.2750   -1.5410    1.4920 c3        1 AOC     -0.027000
      9 O3'         0.3290   -2.7020    1.6930 oh        1 AOC     -0.319000
     10 C2'         0.7510   -0.3950    1.5170 c3        1 AOC      0.016000
     11 O2'         2.0730   -0.8900    2.0380 oh        1 AOC     -0.293000
     12 C1'         0.8680   -0.0210    0.2720 c3        1 AOC      0.116000
     13 N9          1.1020    1.3580    0.2000 n3        1 AOC     -0.198000
     14 C8          0.2380    2.3500    0.4930 c1        1 AOC     -0.061000
     15 N7          0.8080    3.5260    0.1230 n2        1 AOC     -0.109000
     16 C5          2.0340    3.2550   -0.4020 c1        1 AOC     -0.248000
     17 C4          2.2200    1.9220   -0.3580 c1        1 AOC      0.085000
     18 N3          3.3790    1.3760   -0.8540 n1        1 AOC     -0.205000
     19 C2          4.3440    2.1870   -1.3940 c1        1 AOC      0.027000
     20 N1          4.1550    3.5420   -1.4390 n1        1 AOC     -0.269000
     21 C6          3.0220    4.0810   -0.9550 c1        1 AOC      0.243000
     22 N6          3.1060    5.5060   -1.0990 n2        1 AOC     -0.358000
     23 HAA        -5.3030   -5.9960   -2.4430 DU        1 AOC      0.213000
     24 HAH1       -4.5810   -2.9460    0.3420 h4        1 AOC      0.111500
     25 HAH2       -4.8420   -2.0590   -0.9690 h4        1 AOC      0.111500
     26 H5'        -2.8440   -0.7100   -0.1560 h1        1 AOC      0.103500
     27 H5''       -2.7450   -1.7110    1.1160 h1        1 AOC      0.103500
     28 H4'        -0.5780   -2.2570   -0.4920 h1        1 AOC      0.132000
     29 H3'        -0.9970   -1.3880    2.2080 h1        1 AOC      0.110000
     30 HO3'       -0.1400   -3.1830    2.2570 ho        1 AOC      0.222000
     31 H2'         0.4170    0.3550    2.0750 h1        1 AOC      0.139000
     32 HO2'        2.0720   -0.8590    2.9460 ho        1 AOC      0.226000
     33 H1'         1.6240   -0.5250   -0.1720 h2        1 AOC      0.174000
     34 H8         -0.6590    2.2390    0.8340 DU        1 AOC      0.213000
     35 H2          5.1820    1.7910   -1.7530 ha        1 AOC      0.190000
     36 H61         3.8800    5.8950   -1.4390 hn        1 AOC      0.244000
     37 H62         2.3860    6.0200   -0.9190 hn        1 AOC      0.244000
@<TRIPOS>BOND
     1    1    2 1   
     2    3    4 1   
     3    3   24 1   
     4    3   25 1   
     5    4    5 1   
     6    5    6 1   
     7    5   26 1   
     8    5   27 1   
     9    6    7 1   
    10    6    8 1   
    11    6   28 1   
    12    7   12 1   
    13    8    9 1   
    14    8   10 1   
    15    8   29 1   
    16    9   30 1   
    17   10   11 1   
    18   10   12 1   
    19   10   31 1   
    20   11   32 1   
    21   12   13 1   
    22   12   33 1   
    23   13   14 1   
    24   13   17 1   
    25   14   15 1   
    26   15   16 1   
    27   16   21 1   
    28   17   18 1   
    29   19   20 1   
    30   19   35 1   
    31   22   36 1   
    32   22   37 1   
@<TRIPOS>SUBSTRUCTURE
     1 AOC         1 TEMP              0 ****  ****    0 ROOT
