@<TRIPOS>MOLECULE
AOC
   37    39     1     0     0
SMALL
bcc


@<TRIPOS>ATOM
      1 CAA        -0.2780    1.2690   -2.3040 c1        1 AOC     -0.116500
      2 CAE         0.1460    1.2840   -1.1870 c1        1 AOC     -0.150100
      3 CAH         0.6370    1.3140    0.1640 c3        1 AOC      0.209500
      4 O5'         1.8800    0.5980    0.2080 os        1 AOC     -0.405600
      5 C5'         2.4310    0.5840    1.5200 c3        1 AOC      0.104400
      6 C4'         3.6510   -0.3330    1.4800 c3        1 AOC      0.093100
      7 O4'         4.5980    0.1170    0.5020 os        1 AOC     -0.385600
      8 C3'         4.3630   -0.3530    2.8520 c3        1 AOC      0.129100
      9 O3'         4.5740   -1.6650    3.3070 oh        1 AOC     -0.573800
     10 C2'         5.6650    0.4540    2.6380 c3        1 AOC      0.081100
     11 O2'         6.7620   -0.4000    2.8790 oh        1 AOC     -0.591800
     12 C1'         5.6530    0.8530    1.1230 c3        1 AOC      0.219800
     13 N9          5.4790    2.2700    0.8960 na        1 AOC     -0.296000
     14 C8          4.4940    2.9150    0.1060 cc        1 AOC      0.423700
     15 N7          4.6670    4.2420    0.0220 nd        1 AOC     -0.551100
     16 C5          5.8200    4.5120    0.7760 ca        1 AOC     -0.227200
     17 C4          6.3530    3.2750    1.3330 ca        1 AOC      0.448800
     18 N3          7.4760    3.2090    2.1120 nb        1 AOC     -0.758000
     19 C2          8.0430    4.4240    2.3020 ca        1 AOC      0.688900
     20 N1          7.6680    5.6490    1.8500 nb        1 AOC     -0.795000
     21 C6          6.5320    5.7230    1.0750 ca        1 AOC      0.761200
     22 N6          6.0660    6.9280    0.6190 nh        1 AOC     -0.955500
     23 HAA        -0.6580    1.2590   -3.2940 ha        1 AOC      0.167500
     24 HAH1       -0.0990    0.8240    0.8620 h1        1 AOC      0.048200
     25 HAH2        0.8120    2.3770    0.4960 h1        1 AOC      0.048200
     26 H5'         1.6830    0.1810    2.2540 h1        1 AOC      0.040700
     27 H5''        2.7220    1.6290    1.8120 h1        1 AOC      0.040700
     28 H4'         3.3570   -1.3630    1.1380 h1        1 AOC      0.109700
     29 H3'         3.7280    0.1240    3.6480 h1        1 AOC      0.091700
     30 HO3'        5.3020   -2.0490    2.7980 ho        1 AOC      0.427000
     31 H2'         5.6980    1.3460    3.3170 h1        1 AOC      0.083700
     32 HO2'        7.5410    0.1650    2.9720 ho        1 AOC      0.433000
     33 H1'         6.6030    0.5140    0.6100 h2        1 AOC      0.106700
     34 H8          3.6910    2.3260   -0.3650 h5        1 AOC      0.101800
     35 H2          8.9650    4.4260    2.9250 h5        1 AOC      0.051100
     36 H61         5.3090    6.9310   -0.0180 hn        1 AOC      0.448300
     37 H62         6.5960    7.7530    0.7520 hn        1 AOC      0.448300
@<TRIPOS>BOND
     1    1    2 3   
     2    1   23 1   
     3    2    3 1   
     4    3    4 1   
     5    3   24 1   
     6    3   25 1   
     7    4    5 1   
     8    5    6 1   
     9    5   26 1   
    10    5   27 1   
    11    6    7 1   
    12    6    8 1   
    13    6   28 1   
    14    7   12 1   
    15    8    9 1   
    16    8   10 1   
    17    8   29 1   
    18    9   30 1   
    19   10   11 1   
    20   10   12 1   
    21   10   31 1   
    22   11   32 1   
    23   12   13 1   
    24   12   33 1   
    25   13   14 1   
    26   13   17 1   
    27   14   15 2   
    28   14   34 1   
    29   15   16 1   
    30   16   17 ar  
    31   16   21 ar  
    32   17   18 ar  
    33   18   19 ar  
    34   19   20 ar  
    35   19   35 1   
    36   20   21 ar  
    37   21   22 1   
    38   22   36 1   
    39   22   37 1   
@<TRIPOS>SUBSTRUCTURE
     1 AOC         1 TEMP              0 ****  ****    0 ROOT
