@<TRIPOS>MOLECULE
AOC
   37    39     1     0     0
SMALL
bcc


@<TRIPOS>ATOM
      1 CAA        -5.0630   -3.4330    0.6520 c1        1 AOC     -0.116500
      2 CAE        -4.5390   -2.6010   -0.0280 c1        1 AOC     -0.150100
      3 CAH        -3.9160   -1.6120   -0.8640 c3        1 AOC      0.209500
      4 O5'        -3.3610   -0.5930   -0.0200 os        1 AOC     -0.405600
      5 C5'        -2.7230    0.4270   -0.7800 c3        1 AOC      0.104400
      6 C4'        -2.3200    1.5260    0.2020 c3        1 AOC      0.093100
      7 O4'        -1.4680    1.0060    1.2300 os        1 AOC     -0.385600
      8 C3'        -1.5480    2.6500   -0.5270 c3        1 AOC      0.129100
      9 O3'        -2.0910    3.9150   -0.2490 oh        1 AOC     -0.573800
     10 C2'        -0.0790    2.4840   -0.0720 c3        1 AOC      0.081100
     11 O2'         0.3120    3.6590    0.6050 oh        1 AOC     -0.591800
     12 C1'        -0.0990    1.2930    0.9440 c3        1 AOC      0.219800
     13 N9          0.5740    0.1070    0.4640 na        1 AOC     -0.296000
     14 C8          0.0570   -1.2080    0.3540 cc        1 AOC      0.423700
     15 N7          0.9710   -2.1070   -0.0370 nd        1 AOC     -0.551100
     16 C5          2.1620   -1.3800   -0.1910 ca        1 AOC     -0.227200
     17 C4          1.9320    0.0240    0.1280 ca        1 AOC      0.448800
     18 N3          2.9020    0.9870    0.0770 nb        1 AOC     -0.758000
     19 C2          4.1050    0.4890   -0.2960 ca        1 AOC      0.688900
     20 N1          4.4670   -0.7800   -0.6180 nb        1 AOC     -0.795000
     21 C6          3.4920   -1.7520   -0.5800 ca        1 AOC      0.761200
     22 N6          3.7720   -3.0460   -0.9320 nh        1 AOC     -0.955500
     23 HAA        -5.5280   -4.1750    1.2500 ha        1 AOC      0.167500
     24 HAH1       -3.0910   -2.0750   -1.4750 h1        1 AOC      0.048200
     25 HAH2       -4.6750   -1.1480   -1.5570 h1        1 AOC      0.048200
     26 H5'        -1.8220   -0.0020   -1.2960 h1        1 AOC      0.040700
     27 H5''       -3.4310    0.8480   -1.5430 h1        1 AOC      0.040700
     28 H4'        -3.2220    1.9150    0.7480 h1        1 AOC      0.109700
     29 H3'        -1.6310    2.5450   -1.6430 h1        1 AOC      0.091700
     30 HO3'       -1.8330    4.1660    0.6490 ho        1 AOC      0.427000
     31 H2'         0.5910    2.2880   -0.9500 h1        1 AOC      0.083700
     32 HO2'        1.2760    3.6360    0.6710 ho        1 AOC      0.433000
     33 H1'         0.3610    1.5990    1.9330 h2        1 AOC      0.106700
     34 H8         -1.0040   -1.4060    0.5820 h5        1 AOC      0.101800
     35 H2          4.9310    1.2320   -0.3480 h5        1 AOC      0.051100
     36 H61         3.0750   -3.7340   -0.7940 hn        1 AOC      0.448300
     37 H62         4.7030   -3.3240   -1.1210 hn        1 AOC      0.448300
@<TRIPOS>BOND
     1    1    2 3   
     2    1   23 1   
     3    2    3 1   
     4    3    4 1   
     5    3   24 1   
     6    3   25 1   
     7    4    5 1   
     8    5    6 1   
     9    5   26 1   
    10    5   27 1   
    11    6    7 1   
    12    6    8 1   
    13    6   28 1   
    14    7   12 1   
    15    8    9 1   
    16    8   10 1   
    17    8   29 1   
    18    9   30 1   
    19   10   11 1   
    20   10   12 1   
    21   10   31 1   
    22   11   32 1   
    23   12   13 1   
    24   12   33 1   
    25   13   14 1   
    26   13   17 1   
    27   14   15 2   
    28   14   34 1   
    29   15   16 1   
    30   16   17 ar  
    31   16   21 ar  
    32   17   18 ar  
    33   18   19 ar  
    34   19   20 ar  
    35   19   35 1   
    36   20   21 ar  
    37   21   22 1   
    38   22   36 1   
    39   22   37 1   
@<TRIPOS>SUBSTRUCTURE
     1 AOC         1 TEMP              0 ****  ****    0 ROOT
