@<TRIPOS>MOLECULE
AOC
   38    40     1     0     0
SMALL
bcc


@<TRIPOS>ATOM
      1 CAA         0.2820    1.7740   -2.3660 c1        1 AOC     -0.094500
      2 CAE         0.6780    1.2290   -1.3780 c1        1 AOC     -0.171100
      3 CAH         1.1320    0.5400   -0.2020 c3        1 AOC      0.210500
      4 O5'         1.7670    1.5010    0.6620 os        1 AOC     -0.427600
      5 C5'         2.1260    0.9710    1.9250 c3        1 AOC      0.111400
      6 C4'         3.2960   -0.0090    1.8310 c3        1 AOC      0.088100
      7 O4'         4.1940    0.3700    0.7720 os        1 AOC     -0.390600
      8 C3'         4.1070   -0.0540    3.1380 c3        1 AOC      0.087100
      9 O3'         4.2610   -1.4170    3.4840 oh        1 AOC     -0.583800
     10 C2'         5.4840    0.5690    2.8010 c3        1 AOC      0.089100
     11 O2'         6.5380   -0.3320    3.0090 oh        1 AOC     -0.564800
     12 C1'         5.3880    0.9460    1.2860 c3        1 AOC      0.212800
     13 N9          5.3830    2.3830    1.0240 na        1 AOC     -0.274000
     14 C8          4.4050    3.1250    0.3270 cc        1 AOC      0.524700
     15 N7          4.7470    4.4130    0.1080 nd        1 AOC     -0.599100
     16 C5          6.0190    4.5460    0.6660 ca        1 AOC     -0.129200
     17 C4          6.4560    3.2560    1.2560 ca        1 AOC      0.448800
     18 N3          7.6550    3.0930    1.8630 nb        1 AOC     -0.612000
     19 C2          8.4240    4.2150    1.8830 ca        1 AOC      0.665900
     20 N1          8.1430    5.4510    1.3820 nb        1 AOC     -0.679000
     21 C6          6.9380    5.6020    0.7750 ca        1 AOC      0.507200
     22 N6          6.5720    6.9110    0.2040 n4        1 AOC     -0.813300
     23 HAA        -0.0780    2.2460   -3.2460 ha        1 AOC      0.174500
     24 HAH1        1.8890   -0.2510   -0.4700 h1        1 AOC      0.060700
     25 HAH2        0.2650    0.0680    0.3400 h1        1 AOC      0.060700
     26 H5'         1.2540    0.4540    2.4090 h1        1 AOC      0.066200
     27 H5''        2.4040    1.8830    2.5210 h1        1 AOC      0.066200
     28 H4'         2.9400   -1.0370    1.5380 h1        1 AOC      0.118700
     29 H3'         3.6000    0.5090    3.9650 h1        1 AOC      0.074700
     30 HO3'        4.6890   -1.4460    4.3510 ho        1 AOC      0.431000
     31 H2'         5.7230    1.4500    3.4550 h1        1 AOC      0.108700
     32 HO2'        6.2990   -1.1810    2.6030 ho        1 AOC      0.430000
     33 H1'         6.2420    0.4910    0.6960 h2        1 AOC      0.124700
     34 H8          3.4480    2.6510    0.0160 h5        1 AOC      0.146800
     35 H2          9.4200    4.1140    2.3750 h5        1 AOC      0.100100
     36 H61         6.4590    6.8010   -0.8120 hn        1 AOC      0.477133
     37 H62         5.6750    7.2040    0.6110 hn        1 AOC      0.477133
     38 H63         7.2920    7.6190    0.3980 hn        1 AOC      0.477133
@<TRIPOS>BOND
     1    1    2 3   
     2    1   23 1   
     3    2    3 1   
     4    3    4 1   
     5    3   24 1   
     6    3   25 1   
     7    4    5 1   
     8    5    6 1   
     9    5   26 1   
    10    5   27 1   
    11    6    7 1   
    12    6    8 1   
    13    6   28 1   
    14    7   12 1   
    15    8    9 1   
    16    8   10 1   
    17    8   29 1   
    18    9   30 1   
    19   10   11 1   
    20   10   12 1   
    21   10   31 1   
    22   11   32 1   
    23   12   13 1   
    24   12   33 1   
    25   13   14 1   
    26   13   17 1   
    27   14   15 2   
    28   14   34 1   
    29   15   16 1   
    30   16   17 ar  
    31   16   21 ar  
    32   17   18 ar  
    33   18   19 ar  
    34   19   20 ar  
    35   19   35 1   
    36   20   21 ar  
    37   21   22 1   
    38   22   36 1   
    39   22   37 1   
    40   22   38 1   
@<TRIPOS>SUBSTRUCTURE
     1 AOC         1 TEMP              0 ****  ****    0 ROOT
