@<TRIPOS>MOLECULE
AOC
   37    39     1     0     0
SMALL
bcc


@<TRIPOS>ATOM
      1 CAA        -0.3500    1.3510   -2.2280 c1        1 AOC     -0.116500
      2 CAE         0.0930    1.3430   -1.1180 c1        1 AOC     -0.150100
      3 CAH         0.6070    1.3460    0.2250 c3        1 AOC      0.209500
      4 O5'         1.8490    0.6260    0.2340 os        1 AOC     -0.405600
      5 C5'         2.4210    0.5860    1.5360 c3        1 AOC      0.104400
      6 C4'         3.6390   -0.3330    1.4570 c3        1 AOC      0.093100
      7 O4'         4.5690    0.1340    0.4720 os        1 AOC     -0.385600
      8 C3'         4.3740   -0.3810    2.8160 c3        1 AOC      0.129100
      9 O3'         4.5900   -1.7020    3.2420 oh        1 AOC     -0.573800
     10 C2'         5.6740    0.4280    2.5950 c3        1 AOC      0.081100
     11 O2'         6.7730   -0.4330    2.8010 oh        1 AOC     -0.591800
     12 C1'         5.6370    0.8550    1.0890 c3        1 AOC      0.219800
     13 N9          5.4620    2.2760    0.8910 na        1 AOC     -0.296000
     14 C8          4.4660    2.9380    0.1310 cc        1 AOC      0.423700
     15 N7          4.6410    4.2660    0.0680 nd        1 AOC     -0.551100
     16 C5          5.8070    4.5200    0.8060 ca        1 AOC     -0.227200
     17 C4          6.3460    3.2720    1.3310 ca        1 AOC      0.448800
     18 N3          7.4820    3.1890    2.0890 nb        1 AOC     -0.758000
     19 C2          8.0560    4.3980    2.2920 ca        1 AOC      0.688900
     20 N1          7.6760    5.6320    1.8690 nb        1 AOC     -0.795000
     21 C6          6.5270    5.7230    1.1160 ca        1 AOC      0.761200
     22 N6          6.0570    6.9370    0.6910 nv        1 AOC     -0.955500
     23 HAA        -0.7470    1.3610   -3.2110 ha        1 AOC      0.167500
     24 HAH1       -0.1190    0.8430    0.9250 h1        1 AOC      0.048200
     25 HAH2        0.7890    2.4020    0.5750 h1        1 AOC      0.048200
     26 H5'         1.6850    0.1700    2.2750 h1        1 AOC      0.040700
     27 H5''        2.7200    1.6240    1.8430 h1        1 AOC      0.040700
     28 H4'         3.3360   -1.3560    1.1010 h1        1 AOC      0.109700
     29 H3'         3.7540    0.0820    3.6320 h1        1 AOC      0.091700
     30 HO3'        5.3080   -2.0770    2.7130 ho        1 AOC      0.427000
     31 H2'         5.7200    1.3070    3.2890 h1        1 AOC      0.083700
     32 HO2'        7.5540    0.1290    2.8910 ho        1 AOC      0.433000
     33 H1'         6.5770    0.5240    0.5530 h2        1 AOC      0.106700
     34 H8          3.6530    2.3600   -0.3370 h5        1 AOC      0.101800
     35 H2          8.9890    4.3860    2.8990 h5        1 AOC      0.051100
     36 H61         5.2880    6.9550    0.0670 hn        1 AOC      0.448300
     37 H62         6.5910    7.7590    0.8300 hn        1 AOC      0.448300
@<TRIPOS>BOND
     1    1    2 3   
     2    1   23 1   
     3    2    3 1   
     4    3    4 1   
     5    3   24 1   
     6    3   25 1   
     7    4    5 1   
     8    5    6 1   
     9    5   26 1   
    10    5   27 1   
    11    6    7 1   
    12    6    8 1   
    13    6   28 1   
    14    7   12 1   
    15    8    9 1   
    16    8   10 1   
    17    8   29 1   
    18    9   30 1   
    19   10   11 1   
    20   10   12 1   
    21   10   31 1   
    22   11   32 1   
    23   12   13 1   
    24   12   33 1   
    25   13   14 1   
    26   13   17 1   
    27   14   15 2   
    28   14   34 1   
    29   15   16 1   
    30   16   17 ar  
    31   16   21 ar  
    32   17   18 ar  
    33   18   19 ar  
    34   19   20 ar  
    35   19   35 1   
    36   20   21 ar  
    37   21   22 1   
    38   22   36 1   
    39   22   37 1   
@<TRIPOS>SUBSTRUCTURE
     1 AOC         1 TEMP              0 ****  ****    0 ROOT
