@<TRIPOS>MOLECULE
AOD
   34    32     1     0     0
SMALL
bcc


@<TRIPOS>ATOM
      1 OAA        -4.0680    0.5840   -0.7930 o         1 AOD     -0.838800
      2 OAB         1.3940    4.5230   -0.5400 o         1 AOD     -0.853800
      3 OAC        -3.6580   -0.5300   -2.6330 o         1 AOD     -0.838800
      4 OAD         0.7120    4.6070    1.5310 o         1 AOD     -0.853800
      5 BRAE       -4.4110   -4.5550    1.1380 br        1 AOD     -0.284800
      6 CAF        -1.7440   -3.5350    0.8120 c1        1 AOD     -0.108000
      7 CAG        -0.7790   -2.6460    0.3440 c1        1 AOD     -0.108000
      8 CAH        -3.4750   -2.1640   -0.1550 c1        1 AOD      0.010500
      9 CAI         3.1560    0.5680    0.3700 c3        1 AOD     -0.070400
     10 CAJ         2.1510   -0.2400   -0.3740 c3        1 AOD     -0.104400
     11 CAK         2.8900    2.0610    0.2920 c3        1 AOD     -0.063400
     12 CAL         0.4370    1.5740   -0.0910 c3        1 AOD     -0.058400
     13 NAM        -0.1580   -0.6250   -0.9090 n3        1 AOD     -0.707800
     14 CAN        -3.4640   -0.3490   -1.3960 c         1 AOD      0.864800
     15 CAO         1.1660    3.9480    0.5590 c         1 AOD      0.913600
     16 CAP        -3.0910   -3.2940    0.5620 c1        1 AOD     -0.016200
     17 CAQ        -1.1630   -1.5180   -0.3730 c1        1 AOD      0.204800
     18 CAR        -2.5120   -1.2770   -0.6220 cg        1 AOD     -0.149200
     19 CAS         0.7400    0.0890   -0.0070 c3        1 AOD      0.206500
     20 CAT         1.4420    2.4450    0.7110 c3        1 AOD     -0.177700
     21 HAF        -1.4740   -4.3300    1.3170 ha        1 AOD      0.057000
     22 HAG         0.1620   -2.7930    0.5550 ha        1 AOD      0.057000
     23 HAH        -4.4190   -1.9920   -0.3250 ha        1 AOD      0.099500
     24 HAI         3.1450    0.2950    1.3090 hc        1 AOD      0.011200
     25 HAIA        4.0450    0.3870   -0.0020 hc        1 AOD      0.011200
     26 HAJ         2.2710   -0.0820   -1.3330 hc        1 AOD      0.038200
     27 HAJA        2.3110   -1.1880   -0.1890 hc        1 AOD      0.038200
     28 HAK         3.0410    2.3590   -0.6260 hc        1 AOD      0.039200
     29 HAKA        3.5210    2.5240    0.8820 hc        1 AOD      0.039200
     30 HAL        -0.4620    1.7310    0.2580 hc        1 AOD      0.053700
     31 HALA        0.4640    1.8480   -1.0330 hc        1 AOD      0.053700
     32 HNAM       -0.0590   -0.5400   -1.8130 hn        1 AOD      0.465800
     33 HAS         0.5740   -0.2130    0.9060 h1        1 AOD      0.038700
     34 HAT         1.3150    2.3270    1.6710 hc        1 AOD      0.030700
@<TRIPOS>BOND
     1    1   14 1   
     2    2   15 1   
     3    3   14 1   
     4    4   15 1   
     5    5   16 1   
     6    6    7 3   
     7    6   21 1   
     8    7   22 1   
     9    8   16 3   
    10    8   23 1   
    11    9   10 1   
    12    9   11 1   
    13    9   24 1   
    14    9   25 1   
    15   10   19 1   
    16   10   26 1   
    17   10   27 1   
    18   11   20 1   
    19   11   28 1   
    20   11   29 1   
    21   12   19 1   
    22   12   20 1   
    23   12   30 1   
    24   12   31 1   
    25   13   17 1   
    26   13   19 1   
    27   13   32 1   
    28   14   18 1   
    29   15   20 1   
    30   17   18 3   
    31   19   33 1   
    32   20   34 1   
@<TRIPOS>SUBSTRUCTURE
     1 AOD         1 TEMP              0 ****  ****    0 ROOT
