@<TRIPOS>MOLECULE
AOD
   35    33     1     0     0
SMALL
bcc


@<TRIPOS>ATOM
      1 OAA         3.1230   -0.2750   -1.4790 o         1 AOD     -0.552000
      2 OAC         3.9070   -1.8540   -0.1260 o         1 AOD     -0.552000
      3 OAD         9.1630   -0.0930   -3.5880 o         1 AOD     -0.323000
      4 CAF         2.5860   -0.3940    3.5790 c2        1 AOD      0.049000
      5 CAG         3.2700    0.6020    2.8630 c2        1 AOD     -0.360000
      6 CAH         1.5400   -1.2620    1.5580 c1        1 AOD     -0.094000
      7 CAI         7.3850   -1.7040    1.9500 c3        1 AOD     -0.220000
      8 CAJ         6.6570   -0.7260    1.0660 c3        1 AOD     -0.282000
      9 CAK         5.9410   -0.7750   -2.3530 c1        1 AOD     -0.001000
     10 CAL         7.5660    2.1530   -1.4860 c3        1 AOD     -0.081000
     11 CAN         3.1380   -0.8930   -0.3780 c2        1 AOD      0.377000
     12 CAO         8.2520    0.3340   -2.8730 c2        1 AOD      0.432000
     13 CAP         1.7640   -1.3030    2.9390 c2        1 AOD     -0.302000
     14 CAQ         3.1230    0.7100    1.4770 c2        1 AOD      0.144000
     15 CAR         2.2330   -0.2740    0.7550 c3        1 AOD     -0.206000
     16 CAS         6.4120    0.5910    1.5730 c1        1 AOD     -0.119000
     17 CAT         6.9990   -0.2600   -2.5880 c1        1 AOD     -0.349000
     18 HAF         2.7230   -0.4160    4.6750 ha        1 AOD      0.112000
     19 HAG         3.9270    1.2910    3.4120 ha        1 AOD      0.119000
     20 HAH         1.4240    0.2900    0.1950 hc        1 AOD      0.170000
     21 HAI         6.8780   -1.7930    2.9410 hc        1 AOD      0.069333
     22 HAIA        6.5380    0.7370    2.6580 ha        1 AOD      0.030000
     23 HAJ         5.5970   -1.1240    0.8320 hc        1 AOD      0.188000
     24 HAJA        7.4060   -2.7150    1.4760 hc        1 AOD      0.069333
     25 HAK         8.4380   -1.3740    2.1210 hc        1 AOD      0.069333
     26 HAKA        4.9740   -1.1860   -2.0900 ha        1 AOD      0.301000
     27 HAL         7.1450   -0.6700    0.0500 hc        1 AOD      0.188000
     28 HALA        7.2960    1.4900   -0.6240 h1        1 AOD      0.091667
     29 HNAM        3.7250    1.5530   -0.2510 hn        1 AOD      0.230000
     30 HAS         8.0500    3.0950   -1.1260 h1        1 AOD      0.091667
     31 HAT         6.6580    2.3820   -2.0950 h1        1 AOD      0.091667
     32 BRAE        0.8860   -2.6220    3.9540 br        1 AOD     -0.018000
     33 HAM2        4.6180    2.0320    1.1070 hn        1 AOD      0.230000
     34 NAM         3.7600    1.6720    0.7440 n3        1 AOD     -0.326000
     35 OAB         8.5650    1.5490   -2.3030 os        1 AOD     -0.267000
@<TRIPOS>BOND
     1    1   11 1   
     2    2   11 1   
     3    3   12 1   
     4    4    5 1   
     5    4   13 1   
     6    4   18 1   
     7    5   14 1   
     8    5   19 1   
     9    6   13 1   
    10    6   15 1   
    11    7    8 1   
    12    7   21 1   
    13    7   24 1   
    14    7   25 1   
    15    8   16 1   
    16    8   23 1   
    17    8   27 1   
    18    9   17 1   
    19    9   26 1   
    20   10   28 1   
    21   10   30 1   
    22   10   31 1   
    23   10   35 1   
    24   11   15 1   
    25   12   17 1   
    26   12   35 1   
    27   13   32 1   
    28   14   15 1   
    29   14   34 1   
    30   15   20 1   
    31   16   22 1   
    32   29   34 1   
    33   33   34 1   
@<TRIPOS>SUBSTRUCTURE
     1 AOD         1 TEMP              0 ****  ****    0 ROOT
