@<TRIPOS>MOLECULE
AOD
   34    34     1     0     0
SMALL
bcc


@<TRIPOS>ATOM
      1 OAA        -0.2440   -0.4200    0.2590 o         1 AOD     -0.546500
      2 OAC         1.3480   -1.9930    0.2670 o         1 AOD     -0.546500
      3 OAD        10.9850    1.1970   -2.4330 o         1 AOD     -0.587500
      4 CAF         2.5930   -0.4880    4.7250 c1        1 AOD     -0.179000
      5 CAG         3.2830    0.1220    3.5770 c3        1 AOD     -0.194000
      6 CAH         0.7100   -1.1140    3.3090 c1        1 AOD     -0.078000
      7 CAI         6.7970    0.2320   -0.0760 c3        1 AOD     -0.133000
      8 CAJ         5.8060   -0.8850    0.2110 c3        1 AOD     -0.225000
      9 CAK         7.8520   -0.2150   -1.0680 c3        1 AOD     -0.146000
     10 CAL         8.2080    1.8880   -2.3860 c3        1 AOD     -0.184000
     11 CAN         0.7300   -1.0160    0.7770 c2        1 AOD      0.375000
     12 CAO        10.1460    0.3520   -2.0010 c2        1 AOD      0.332000
     13 CAP         1.4180   -1.1730    4.4950 c2        1 AOD     -0.369000
     14 CAQ         2.7390   -0.2750    2.2340 c2        1 AOD      0.224000
     15 CAR         1.2600   -0.4250    2.1320 c3        1 AOD     -0.231000
     16 CAS         4.9150   -0.4960    1.3250 c1        1 AOD     -0.047000
     17 CAT         8.8180    0.9000   -1.4190 c3        1 AOD     -0.173000
     18 HAF         4.3840   -0.1050    3.6600 hc        1 AOD      0.151500
     19 HAG         3.1660    1.2400    3.6760 hc        1 AOD      0.151500
     20 HAH         0.8020    0.6150    2.1850 hc        1 AOD      0.182000
     21 HAI         7.2860    0.5510    0.8810 hc        1 AOD      0.077000
     22 HAIA        6.3720   -1.7900    0.5800 hc        1 AOD      0.103000
     23 HAJ         5.2910   -1.1850   -0.7430 hc        1 AOD      0.103000
     24 HAJA        6.2440    1.1190   -0.4830 hc        1 AOD      0.077000
     25 HAK         8.4390   -1.0720   -0.6410 hc        1 AOD      0.087000
     26 HAKA        7.3590   -0.5910   -2.0020 hc        1 AOD      0.087000
     27 HAL         7.3490    2.4300   -1.9210 hc        1 AOD      0.055000
     28 HALA        9.0990    1.4470   -0.4760 hc        1 AOD      0.069000
     29 HNAM        3.1180   -1.0350    0.3890 hn        1 AOD      0.260000
     30 HAS         7.8380    1.3640   -3.3010 hc        1 AOD      0.055000
     31 HAT         8.9840    2.6300   -2.6960 hc        1 AOD      0.055000
     32 NAM         3.5730   -0.6300    1.2110 n7        1 AOD     -0.185000
     33 BrAE        0.6420   -2.1020    5.9420 br        1 AOD     -0.030000
     34 OAB        10.3540   -0.8950   -2.0000 o         1 AOD     -0.587500
@<TRIPOS>BOND
     1    1   11 1   
     2    2   11 1   
     3    3   12 1   
     4    4    5 1   
     5    4   13 1   
     6    5   14 1   
     7    5   18 1   
     8    5   19 1   
     9    6   13 1   
    10    6   15 1   
    11    7    8 1   
    12    7    9 1   
    13    7   21 1   
    14    7   24 1   
    15    8   16 1   
    16    8   22 1   
    17    8   23 1   
    18    9   17 1   
    19    9   25 1   
    20    9   26 1   
    21   10   17 1   
    22   10   27 1   
    23   10   30 1   
    24   10   31 1   
    25   11   15 1   
    26   12   17 1   
    27   12   34 1   
    28   13   33 1   
    29   14   15 1   
    30   14   32 1   
    31   15   20 1   
    32   16   32 1   
    33   17   28 1   
    34   29   32 1   
@<TRIPOS>SUBSTRUCTURE
     1 AOD         1 TEMP              0 ****  ****    0 ROOT
