@<TRIPOS>MOLECULE
AOD
   34    35     1     0     0
SMALL
bcc


@<TRIPOS>ATOM
      1 OAA         2.0890    3.5100    0.1810 o         1 AOD     -0.838800
      2 OAC         0.0590    3.0570    0.9680 o         1 AOD     -0.838800
      3 OAD        -6.4560    0.5910    0.0300 o         1 AOD     -0.853800
      4 CAF         2.0780   -1.4820   -0.1860 ca        1 AOD     -0.083000
      5 CAG         0.7450   -1.0980   -0.1800 ca        1 AOD     -0.248000
      6 CAH         2.7350    0.8120    0.1510 ca        1 AOD     -0.047000
      7 CAI        -3.2350   -1.9060    1.5030 c3        1 AOD     -0.070400
      8 CAJ        -2.1630   -0.8410    1.4440 c3        1 AOD     -0.104400
      9 CAK        -4.5720   -1.3770    1.0290 c3        1 AOD     -0.063400
     10 CAL        -3.4080    0.3220   -0.3870 c3        1 AOD     -0.058400
     11 CAN         1.1570    2.6980    0.4510 c         1 AOD      0.916200
     12 CAO        -5.8540   -0.1880   -0.7630 c         1 AOD      0.913600
     13 CAP         3.0830   -0.5310   -0.0300 ca        1 AOD     -0.109900
     14 CAQ         0.3630    0.2640   -0.0250 ca        1 AOD      0.230600
     15 CAR         1.4080    1.2220    0.1760 ca        1 AOD     -0.200600
     16 CAS        -2.0440   -0.2750    0.0140 c3        1 AOD      0.206500
     17 CAT        -4.4750   -0.7590   -0.3530 c3        1 AOD     -0.177700
     18 HAF         2.3280   -2.5460   -0.3140 ha        1 AOD      0.107000
     19 HAG        -0.0200   -1.8780   -0.2980 ha        1 AOD      0.122000
     20 HAH         3.5100    1.5890    0.2770 ha        1 AOD      0.157000
     21 HAI        -2.9290   -2.7770    0.8650 hc        1 AOD      0.011200
     22 HAIA       -3.3260   -2.2820    2.5560 hc        1 AOD      0.011200
     23 HAJ        -2.4160   -0.0080    2.1510 hc        1 AOD      0.038200
     24 HAJA       -1.1790   -1.2740    1.7620 hc        1 AOD      0.038200
     25 HAK        -5.3200   -2.2110    1.0110 hc        1 AOD      0.039200
     26 HAKA       -4.9540   -0.5980    1.7410 hc        1 AOD      0.039200
     27 HAL        -3.6920    1.1500    0.3120 hc        1 AOD      0.053700
     28 HALA       -3.3480    0.7490   -1.4210 hc        1 AOD      0.053700
     29 HNAM       -1.1440    1.6040    0.1650 hn        1 AOD      0.465800
     30 HAS        -1.8500   -1.1450   -0.6850 h1        1 AOD      0.038700
     31 HAT        -4.2030   -1.5590   -1.0950 hc        1 AOD      0.030700
     32 NAM        -0.9550    0.6670   -0.1560 nh        1 AOD     -0.733600
     33 BRAE        4.8900   -1.0580   -0.0510 br        1 AOD     -0.191100
     34 OAB        -6.3300   -0.5540   -1.8770 o         1 AOD     -0.853800
@<TRIPOS>BOND
     1    1   11 1   
     2    2   11 1   
     3    3   12 1   
     4    4    5 ar  
     5    4   13 ar  
     6    4   18 1   
     7    5   14 ar  
     8    5   19 1   
     9    6   13 ar  
    10    6   15 ar  
    11    6   20 1   
    12    7    8 1   
    13    7    9 1   
    14    7   21 1   
    15    7   22 1   
    16    8   16 1   
    17    8   23 1   
    18    8   24 1   
    19    9   17 1   
    20    9   25 1   
    21    9   26 1   
    22   10   16 1   
    23   10   17 1   
    24   10   27 1   
    25   10   28 1   
    26   11   15 1   
    27   12   17 1   
    28   12   34 1   
    29   13   33 1   
    30   14   15 ar  
    31   14   32 1   
    32   16   30 1   
    33   16   32 1   
    34   17   31 1   
    35   29   32 1   
@<TRIPOS>SUBSTRUCTURE
     1 AOD         1 TEMP              0 ****  ****    0 ROOT
