@<TRIPOS>MOLECULE
AOD
   34    31     1     0     0
SMALL
bcc


@<TRIPOS>ATOM
      1 OAA      -137.9970  -17.1890   38.9200 o         1 AOD     -0.824300
      2 OAC      -138.3080  -15.0420   38.3860 o         1 AOD     -0.824300
      3 OAD       691.8850   74.6620 -186.5200 o         1 AOD     -0.822300
      4 CAF      -133.8470  -13.2180   40.7290 ce        1 AOD     -0.113700
      5 CAG      -134.5140  -14.3710   40.5230 cf        1 AOD     -0.028000
      6 CAH      -131.9050  -12.9540   42.4410 c1        1 AOD     -0.148200
      7 CAI      -132.9640  -14.1770   36.2170 c3        1 AOD     -0.083100
      8 CAJ      -133.7540  -14.2410   37.4980 c3        1 AOD     -0.057200
      9 CAK       689.0050   73.2540 -185.2410 c1        1 AOD     -0.304500
     10 CAL      -135.4260  -12.7530   36.3980 c2        1 AOD     -0.343000
     11 CAN      -137.6700  -15.9700   38.9640 c         1 AOD      0.894800
     12 CAO       691.5050   73.5130 -186.1550 c         1 AOD      0.907800
     13 CAP      -132.8030  -13.0910   41.6540 cg        1 AOD     -0.033300
     14 CAQ      -135.6310  -14.5570   39.5940 cf        1 AOD      0.021000
     15 CAR      -136.4490  -15.6250   39.7860 ce        1 AOD     -0.181200
     16 CAS      -135.0640  -13.5020   37.4650 c2        1 AOD      0.112800
     17 CAT       690.1250   73.3700 -185.6510 cg        1 AOD     -0.081200
     18 HAF      -134.2520  -15.2740   41.1050 ha        1 AOD      0.119000
     19 HAG      -134.0970  -12.2970   40.1710 ha        1 AOD      0.162000
     20 HAH      -136.2520  -16.3280   40.6110 ha        1 AOD      0.114000
     21 HAI      -132.6580  -13.1290   35.9850 hc        1 AOD      0.027700
     22 HAIA     -132.0390  -14.7970   36.3160 hc        1 AOD      0.027700
     23 HAJ      -133.9630  -15.3200   37.7430 hc        1 AOD      0.056200
     24 HAJA     -133.1290  -13.8270   38.3380 hc        1 AOD      0.056200
     25 HAK       688.0180   73.1520 -184.8800 ha        1 AOD      0.121500
     26 HAKA     -133.5610  -14.5710   35.3600 hc        1 AOD      0.027700
     27 HAL      -231.8390  -38.3250   62.9400 ha        1 AOD      0.000000
     28 HALA     -134.7790  -12.6290   35.5260 ha        1 AOD      0.107500
     29 HNAM     -136.8670  -13.5240   38.3850 hn        1 AOD      0.449800
     30 HAS      -232.0260  -38.9080   63.2260 ha        1 AOD      0.000000
     31 HAT      -136.3920  -12.2400   36.3370 ha        1 AOD      0.107500
     32 NAM      -135.8800  -13.5490   38.6190 nh        1 AOD     -0.606800
     33 BRAE     -130.6060  -12.7550   43.5790 br        1 AOD     -0.037800
     34 OAB       692.2300   72.4790 -186.1950 o         1 AOD     -0.822300
@<TRIPOS>BOND
     1    1   11 1   
     2    2   11 1   
     3    3   12 1   
     4    4    5 2   
     5    4   13 1   
     6    4   19 1   
     7    5   14 1   
     8    5   18 1   
     9    6   13 3   
    10    6   33 1   
    11    7    8 1   
    12    7   21 1   
    13    7   22 1   
    14    7   26 1   
    15    8   16 1   
    16    8   23 1   
    17    8   24 1   
    18    9   17 3   
    19    9   25 1   
    20   10   16 2   
    21   10   28 1   
    22   10   31 1   
    23   11   15 1   
    24   12   17 1   
    25   12   34 1   
    26   14   15 2   
    27   14   32 1   
    28   15   20 1   
    29   16   32 1   
    30   27   30 1   
    31   29   32 1   
@<TRIPOS>SUBSTRUCTURE
     1 AOD         1 TEMP              0 ****  ****    0 ROOT
