@<TRIPOS>MOLECULE
AOE
   93    96     1     0     0
SMALL
bcc


@<TRIPOS>ATOM
      1 C1          3.0940    1.4330   -6.4420 ca        1 AOE     -0.097000
      2 C2          4.4570    1.1790   -6.3720 ca        1 AOE     -0.159000
      3 C3          4.8970    0.0200   -5.7130 ca        1 AOE      0.123100
      4 O3          6.2570   -0.1890   -5.6700 oh        1 AOE     -0.499100
      5 C4          3.9780   -0.8610   -5.1360 ca        1 AOE     -0.218000
      6 C5          2.6050   -0.5930   -5.2160 ca        1 AOE     -0.031300
      7 C6          1.6820   -1.5850   -4.5960 c3        1 AOE     -0.036100
      8 C7          0.2550   -1.0790   -4.4220 c3        1 AOE     -0.054700
      9 C8         -0.1530   -0.3790   -5.7150 c3        1 AOE     -0.044700
     10 C9          0.6910    0.8870   -5.9360 c3        1 AOE     -0.008400
     11 C10         2.1510    0.5600   -5.8800 ca        1 AOE     -0.099300
     12 C11         0.2970    1.6020   -7.2280 c3        1 AOE     -0.071400
     13 C12        -1.1970    1.8400   -7.3790 c3        1 AOE     -0.064400
     14 C13        -1.9820    0.5570   -7.1680 c3        1 AOE     -0.044000
     15 C14        -1.6110    0.0160   -5.7650 c3        1 AOE     -0.065700
     16 C15        -2.6900   -1.0150   -5.4610 c3        1 AOE     -0.068400
     17 C16        -3.9520   -0.4600   -6.1240 c3        1 AOE     -0.117400
     18 C17        -3.5130    0.7290   -7.0070 c3        1 AOE      0.141100
     19 C18        -1.7150   -0.4210   -8.2990 c3        1 AOE     -0.078100
     20 O17        -4.1380    0.7180   -8.2770 oh        1 AOE     -0.591800
     21 C19         0.1230   -0.2060   -3.1830 c3        1 AOE     -0.079400
     22 C20         0.0090   -1.0320   -1.9180 c3        1 AOE     -0.078400
     23 C21        -0.1010   -0.1430   -0.6970 c3        1 AOE     -0.079400
     24 C22        -0.2200   -0.9630    0.5700 c3        1 AOE     -0.078400
     25 C23        -0.3360   -0.0750    1.7900 c3        1 AOE     -0.079400
     26 C24        -0.4510   -0.8940    3.0580 c3        1 AOE     -0.078400
     27 C25        -0.5730   -0.0050    4.2770 c3        1 AOE     -0.078400
     28 C26        -0.6830   -0.8240    5.5450 c3        1 AOE     -0.079400
     29 C27        -0.8120    0.0700    6.7600 c3        1 AOE     -0.075400
     30 C28        -0.9150   -0.7520    8.0270 c3        1 AOE     -0.146400
     31 C29        -1.0690    0.1410    9.2430 c         1 AOE      0.656100
     32 O29        -1.2160    1.3740    9.1350 o         1 AOE     -0.605100
     33 N29        -1.0930   -0.4630   10.4990 n         1 AOE     -0.476800
     34 C30        -0.7620   -1.8490   10.6490 c3        1 AOE      0.080300
     35 C31        -1.1300    0.3490   11.6940 c3        1 AOE      0.087000
     36 C32         0.2190    0.5390   12.3910 c3        1 AOE     -0.104400
     37 C33         0.0390    1.3510   13.6550 c3        1 AOE     -0.078400
     38 C34         1.3520    1.5600   14.3650 c3        1 AOE     -0.092100
     39 HC1         2.7600    2.3490   -6.9540 ha        1 AOE      0.135000
     40 HC2         5.1910    1.8650   -6.8170 ha        1 AOE      0.149000
     41 HO3         6.4160   -1.0150   -5.1910 ho        1 AOE      0.417000
     42 HC4         4.3290   -1.7650   -4.6190 ha        1 AOE      0.131000
     43 HC61        2.0900   -1.9000   -3.5970 hc        1 AOE      0.052200
     44 HC62        1.6650   -2.5000   -5.2500 hc        1 AOE      0.052200
     45 HC7        -0.4220   -1.9720   -4.2930 hc        1 AOE      0.049700
     46 HC8         0.0570   -1.1020   -6.5550 hc        1 AOE      0.060700
     47 HC9         0.4770    1.5940   -5.0800 hc        1 AOE      0.056700
     48 H111        0.8010    2.6050   -7.2580 hc        1 AOE      0.043700
     49 H112        0.6760    1.0120   -8.1030 hc        1 AOE      0.043700
     50 H121       -1.5320    2.6110   -6.6360 hc        1 AOE      0.044700
     51 H122       -1.4040    2.2450   -8.4040 hc        1 AOE      0.044700
     52 HC41       -1.7600    0.8670   -5.0350 hc        1 AOE      0.046700
     53 H151       -2.8270   -1.1410   -4.3590 hc        1 AOE      0.045200
     54 H152       -2.4210   -2.0130   -5.8890 hc        1 AOE      0.045200
     55 H161       -4.6890   -0.1190   -5.3570 hc        1 AOE      0.047200
     56 H162       -4.4430   -1.2410   -6.7550 hc        1 AOE      0.047200
     57 HC71       -3.7390    1.7040   -6.4930 h1        1 AOE      0.033700
     58 H181       -0.6230   -0.6070   -8.4330 hc        1 AOE      0.041367
     59 H182       -2.2240   -1.3930   -8.0940 hc        1 AOE      0.041367
     60 H183       -2.1220   -0.0040   -9.2530 hc        1 AOE      0.041367
     61 HO71       -5.0890    0.7460   -8.1120 ho        1 AOE      0.398000
     62 H191       -0.7900    0.4400   -3.2740 hc        1 AOE      0.046700
     63 H192        1.0100    0.4760   -3.1090 hc        1 AOE      0.046700
     64 H201        0.9040   -1.7000   -1.8140 hc        1 AOE      0.038200
     65 H202       -0.8940   -1.6960   -1.9800 hc        1 AOE      0.038200
     66 H211       -0.9970    0.5250   -0.7970 hc        1 AOE      0.040700
     67 H212        0.8010    0.5210   -0.6320 hc        1 AOE      0.040700
     68 H221        0.6780   -1.6280    0.6730 hc        1 AOE      0.038700
     69 H222       -1.1190   -1.6300    0.5040 hc        1 AOE      0.038700
     70 H231       -1.2350    0.5890    1.6890 hc        1 AOE      0.040700
     71 H232        0.5620    0.5950    1.8550 hc        1 AOE      0.040700
     72 H241        0.4510   -1.5540    3.1620 hc        1 AOE      0.038700
     73 H242       -1.3460   -1.5660    2.9910 hc        1 AOE      0.038700
     74 H251       -1.4760    0.6530    4.1750 hc        1 AOE      0.043200
     75 H252        0.3210    0.6700    4.3420 hc        1 AOE      0.043200
     76 H261        0.2230   -1.4770    5.6500 hc        1 AOE      0.037200
     77 H262       -1.5750   -1.5020    5.4780 hc        1 AOE      0.037200
     78 H271       -1.7200    0.7230    6.6640 hc        1 AOE      0.059700
     79 H272        0.0730    0.7550    6.8300 hc        1 AOE      0.059700
     80 H281        0.0020   -1.3890    8.1430 hc        1 AOE      0.062700
     81 H282       -1.8030   -1.4370    7.9660 hc        1 AOE      0.062700
     82 H301       -1.3850   -2.4710    9.9510 h1        1 AOE      0.036700
     83 H302        0.3230   -2.0410   10.4260 h1        1 AOE      0.036700
     84 H303       -0.9710   -2.1780   11.7020 h1        1 AOE      0.036700
     85 H311       -1.8460   -0.1380   12.4180 h1        1 AOE      0.062200
     86 H312       -1.5440    1.3630   11.4230 h1        1 AOE      0.062200
     87 H321        0.9310    1.0650   11.7030 hc        1 AOE      0.045200
     88 H322        0.6670   -0.4580   12.6420 hc        1 AOE      0.045200
     89 H331       -0.6790    0.8270   14.3400 hc        1 AOE      0.041200
     90 H332       -0.4130    2.3460   13.4000 hc        1 AOE      0.041200
     91 H341        1.1990    2.1600   15.2940 hc        1 AOE      0.034033
     92 H342        1.8080    0.5810   14.6490 hc        1 AOE      0.034033
     93 H343        2.0730    2.1040   13.7080 hc        1 AOE      0.034033
@<TRIPOS>BOND
     1    1    2 ar  
     2    1   11 ar  
     3    1   39 1   
     4    2    3 ar  
     5    2   40 1   
     6    3    4 1   
     7    3    5 ar  
     8    4   41 1   
     9    5    6 ar  
    10    5   42 1   
    11    6    7 1   
    12    6   11 ar  
    13    7    8 1   
    14    7   43 1   
    15    7   44 1   
    16    8    9 1   
    17    8   21 1   
    18    8   45 1   
    19    9   10 1   
    20    9   15 1   
    21    9   46 1   
    22   10   11 1   
    23   10   12 1   
    24   10   47 1   
    25   12   13 1   
    26   12   48 1   
    27   12   49 1   
    28   13   14 1   
    29   13   50 1   
    30   13   51 1   
    31   14   15 1   
    32   14   18 1   
    33   14   19 1   
    34   15   16 1   
    35   15   52 1   
    36   16   17 1   
    37   16   53 1   
    38   16   54 1   
    39   17   18 1   
    40   17   55 1   
    41   17   56 1   
    42   18   20 1   
    43   18   57 1   
    44   19   58 1   
    45   19   59 1   
    46   19   60 1   
    47   20   61 1   
    48   21   22 1   
    49   21   62 1   
    50   21   63 1   
    51   22   23 1   
    52   22   64 1   
    53   22   65 1   
    54   23   24 1   
    55   23   66 1   
    56   23   67 1   
    57   24   25 1   
    58   24   68 1   
    59   24   69 1   
    60   25   26 1   
    61   25   70 1   
    62   25   71 1   
    63   26   27 1   
    64   26   72 1   
    65   26   73 1   
    66   27   28 1   
    67   27   74 1   
    68   27   75 1   
    69   28   29 1   
    70   28   76 1   
    71   28   77 1   
    72   29   30 1   
    73   29   78 1   
    74   29   79 1   
    75   30   31 1   
    76   30   80 1   
    77   30   81 1   
    78   31   32 2   
    79   31   33 1   
    80   33   34 1   
    81   33   35 1   
    82   34   82 1   
    83   34   83 1   
    84   34   84 1   
    85   35   36 1   
    86   35   85 1   
    87   35   86 1   
    88   36   37 1   
    89   36   87 1   
    90   36   88 1   
    91   37   38 1   
    92   37   89 1   
    93   37   90 1   
    94   38   91 1   
    95   38   92 1   
    96   38   93 1   
@<TRIPOS>SUBSTRUCTURE
     1 AOE         1 TEMP              0 ****  ****    0 ROOT
