@<TRIPOS>MOLECULE
AOE
   94    97     1     0     0
SMALL
bcc


@<TRIPOS>ATOM
      1 C1          0.1820   -1.3390    0.4350 ca        1 AOE     -0.090000
      2 C2          1.4630   -1.8050    0.7120 ca        1 AOE     -0.213000
      3 C3          1.9370   -1.7520    2.0290 ca        1 AOE      0.123100
      4 O3          3.1930   -2.1850    2.3900 oh        1 AOE     -0.499100
      5 C4          1.1320   -1.2370    3.0540 ca        1 AOE     -0.164000
      6 C5         -0.1540   -0.7730    2.7610 ca        1 AOE     -0.038300
      7 C6         -0.9660   -0.2610    3.9020 c3        1 AOE     -0.036100
      8 C7         -2.1900    0.5400    3.4780 c3        1 AOE     -0.054700
      9 C8         -2.8870   -0.2310    2.3600 c3        1 AOE     -0.044700
     10 C9         -2.0000   -0.2870    1.1050 c3        1 AOE     -0.007400
     11 C10        -0.6430   -0.8250    1.4420 ca        1 AOE     -0.100300
     12 C11        -2.6790   -1.0630   -0.0210 c3        1 AOE     -0.072400
     13 C12        -4.1050   -0.6220   -0.3110 c3        1 AOE     -0.064400
     14 C13        -4.9410   -0.5960    0.9560 c3        1 AOE     -0.043000
     15 C14        -4.2270    0.3420    1.9600 c3        1 AOE     -0.066700
     16 C15        -5.2800    0.6290    3.0230 c3        1 AOE     -0.067400
     17 C16        -6.6050    0.6450    2.2570 c3        1 AOE     -0.117400
     18 C17        -6.3140    0.1120    0.8370 c3        1 AOE      0.142100
     19 C18        -5.1610   -2.0070    1.4750 c3        1 AOE     -0.078100
     20 O17        -7.2950   -0.8070    0.3940 oh        1 AOE     -0.589800
     21 C19        -1.8170    1.9650    3.0990 c3        1 AOE     -0.078400
     22 C20        -1.6160    2.8430    4.3170 c3        1 AOE     -0.078400
     23 C21        -1.1880    4.2390    3.9170 c3        1 AOE     -0.079400
     24 C22        -0.9580    5.1100    5.1340 c3        1 AOE     -0.079400
     25 C23        -0.5070    6.4990    4.7350 c3        1 AOE     -0.079400
     26 C24        -0.2470    7.3600    5.9530 c3        1 AOE     -0.079400
     27 C25         0.2190    8.7440    5.5520 c3        1 AOE     -0.079400
     28 C26         0.4990    9.5960    6.7730 c3        1 AOE     -0.080400
     29 C27         0.9730   10.9760    6.3650 c3        1 AOE     -0.082400
     30 C28         1.2610   11.8160    7.5960 c3        1 AOE     -0.153400
     31 C29         1.7610   13.1760    7.2030 c         1 AOE      0.546100
     32 O29         2.0460   13.5910    6.0930 o         1 AOE     -0.400100
     33 N29         1.9380   14.1550    8.3660 n4        1 AOE     -0.602200
     34 C30         3.1400   15.0020    8.1820 c3        1 AOE      0.081100
     35 C31         0.6950   14.9760    8.5520 c3        1 AOE      0.111800
     36 C32         0.4200   15.9790    7.4390 c3        1 AOE     -0.105400
     37 C33        -0.9490   16.5990    7.6510 c3        1 AOE     -0.077400
     38 C34        -1.2370   17.6290    6.5890 c3        1 AOE     -0.099100
     39 HC1        -0.1750   -1.3800   -0.6060 ha        1 AOE      0.135000
     40 HC2         2.0950   -2.2090   -0.0910 ha        1 AOE      0.135000
     41 HO3         3.6190   -2.5480    1.6000 ho        1 AOE      0.420000
     42 HC4         1.5220   -1.2040    4.0810 ha        1 AOE      0.147000
     43 HC61       -1.3050   -1.1450    4.5110 hc        1 AOE      0.053200
     44 HC62       -0.3170    0.3680    4.5680 hc        1 AOE      0.053200
     45 HC7        -2.9020    0.5870    4.3520 hc        1 AOE      0.049700
     46 HC8        -3.0380   -1.2820    2.7400 hc        1 AOE      0.063700
     47 HC9        -1.8530    0.7740    0.7430 hc        1 AOE      0.052700
     48 H111       -2.0870   -0.9290   -0.9660 hc        1 AOE      0.044700
     49 H112       -2.6660   -2.1570    0.2270 hc        1 AOE      0.044700
     50 H121       -4.5660   -1.3250   -1.0530 hc        1 AOE      0.045700
     51 H122       -4.0950    0.4000   -0.7750 hc        1 AOE      0.045700
     52 HC41       -4.0360    1.3170    1.4210 hc        1 AOE      0.044700
     53 H151       -5.0870    1.6060    3.5280 hc        1 AOE      0.044200
     54 H152       -5.2840   -0.1680    3.8070 hc        1 AOE      0.044200
     55 H161       -7.3600   -0.0080    2.7610 hc        1 AOE      0.048200
     56 H162       -7.0220    1.6800    2.2030 hc        1 AOE      0.048200
     57 HC71       -6.2460    0.9630    0.1050 h1        1 AOE      0.032700
     58 H181       -4.1970   -2.5510    1.6110 hc        1 AOE      0.042367
     59 H182       -5.7880   -2.5760    0.7450 hc        1 AOE      0.042367
     60 H183       -5.6990   -1.9770    2.4530 hc        1 AOE      0.042367
     61 HO71       -8.1360   -0.3350    0.4090 ho        1 AOE      0.400000
     62 H191       -0.8780    1.9540    2.4840 hc        1 AOE      0.046700
     63 H192       -2.6270    2.4100    2.4630 hc        1 AOE      0.046700
     64 H201       -2.5710    2.8960    4.9050 hc        1 AOE      0.039200
     65 H202       -0.8390    2.3920    4.9890 hc        1 AOE      0.039200
     66 H211       -1.9750    4.7020    3.2650 hc        1 AOE      0.042200
     67 H212       -0.2460    4.1830    3.3110 hc        1 AOE      0.042200
     68 H221       -1.9040    5.1780    5.7330 hc        1 AOE      0.041200
     69 H222       -0.1820    4.6380    5.7920 hc        1 AOE      0.041200
     70 H231       -1.2910    6.9800    4.0930 hc        1 AOE      0.043200
     71 H232        0.4280    6.4280    4.1180 hc        1 AOE      0.043200
     72 H241        0.5300    6.8730    6.5980 hc        1 AOE      0.043200
     73 H242       -1.1850    7.4390    6.5640 hc        1 AOE      0.043200
     74 H251        1.1470    8.6620    4.9280 hc        1 AOE      0.048700
     75 H252       -0.5660    9.2370    4.9190 hc        1 AOE      0.048700
     76 H261        1.2800    9.0980    7.4060 hc        1 AOE      0.047700
     77 H262       -0.4320    9.6810    7.3940 hc        1 AOE      0.047700
     78 H271        1.9000   10.8930    5.7380 hc        1 AOE      0.071200
     79 H272        0.1910   11.4790    5.7370 hc        1 AOE      0.071200
     80 H281        2.0450   11.3100    8.2260 hc        1 AOE      0.098200
     81 H282        0.3280   11.9180    8.2160 hc        1 AOE      0.098200
     82 H301        3.1880   15.7680    9.0020 hx        1 AOE      0.108700
     83 H302        4.0570   14.3540    8.2100 hx        1 AOE      0.108700
     84 H303        3.0860   15.5210    7.1860 hx        1 AOE      0.108700
     85 H311        0.8010   15.5260    9.5320 hx        1 AOE      0.098200
     86 H312       -0.1680   14.2530    8.6360 hx        1 AOE      0.098200
     87 H321        1.2000   16.7860    7.4450 hc        1 AOE      0.072700
     88 H322        0.4560   15.4790    6.4350 hc        1 AOE      0.072700
     89 H331       -1.7350   15.7990    7.6230 hc        1 AOE      0.052200
     90 H332       -0.9930   17.0790    8.6640 hc        1 AOE      0.052200
     91 H341       -1.2170   17.1680    5.5720 hc        1 AOE      0.052033
     92 H342       -2.2500   18.0720    6.7550 hc        1 AOE      0.052033
     93 H343       -0.4840   18.4530    6.6180 hc        1 AOE      0.052033
     94 H291        2.0630   13.5980    9.2200 hn        1 AOE      0.448800
@<TRIPOS>BOND
     1    1    2 ar  
     2    1   11 ar  
     3    1   39 1   
     4    2    3 ar  
     5    2   40 1   
     6    3    4 1   
     7    3    5 ar  
     8    4   41 1   
     9    5    6 ar  
    10    5   42 1   
    11    6    7 1   
    12    6   11 ar  
    13    7    8 1   
    14    7   43 1   
    15    7   44 1   
    16    8    9 1   
    17    8   21 1   
    18    8   45 1   
    19    9   10 1   
    20    9   15 1   
    21    9   46 1   
    22   10   11 1   
    23   10   12 1   
    24   10   47 1   
    25   12   13 1   
    26   12   48 1   
    27   12   49 1   
    28   13   14 1   
    29   13   50 1   
    30   13   51 1   
    31   14   15 1   
    32   14   18 1   
    33   14   19 1   
    34   15   16 1   
    35   15   52 1   
    36   16   17 1   
    37   16   53 1   
    38   16   54 1   
    39   17   18 1   
    40   17   55 1   
    41   17   56 1   
    42   18   20 1   
    43   18   57 1   
    44   19   58 1   
    45   19   59 1   
    46   19   60 1   
    47   20   61 1   
    48   21   22 1   
    49   21   62 1   
    50   21   63 1   
    51   22   23 1   
    52   22   64 1   
    53   22   65 1   
    54   23   24 1   
    55   23   66 1   
    56   23   67 1   
    57   24   25 1   
    58   24   68 1   
    59   24   69 1   
    60   25   26 1   
    61   25   70 1   
    62   25   71 1   
    63   26   27 1   
    64   26   72 1   
    65   26   73 1   
    66   27   28 1   
    67   27   74 1   
    68   27   75 1   
    69   28   29 1   
    70   28   76 1   
    71   28   77 1   
    72   29   30 1   
    73   29   78 1   
    74   29   79 1   
    75   30   31 1   
    76   30   80 1   
    77   30   81 1   
    78   31   32 2   
    79   31   33 1   
    80   33   34 1   
    81   33   35 1   
    82   33   94 1   
    83   34   82 1   
    84   34   83 1   
    85   34   84 1   
    86   35   36 1   
    87   35   85 1   
    88   35   86 1   
    89   36   37 1   
    90   36   87 1   
    91   36   88 1   
    92   37   38 1   
    93   37   89 1   
    94   37   90 1   
    95   38   91 1   
    96   38   92 1   
    97   38   93 1   
@<TRIPOS>SUBSTRUCTURE
     1 AOE         1 TEMP              0 ****  ****    0 ROOT
