@<TRIPOS>MOLECULE
AOE
   94    97     1     0     0
SMALL
bcc


@<TRIPOS>ATOM
      1 C1          0.3660    0.1500   -0.2670 ca        1 AOE     -0.090000
      2 C2          1.7490   -0.0020   -0.2700 ca        1 AOE     -0.213000
      3 C3          2.4300   -0.0480    0.9530 ca        1 AOE      0.123100
      4 O3          3.7970   -0.1870    1.0420 oh        1 AOE     -0.499100
      5 C4          1.7310    0.0580    2.1620 ca        1 AOE     -0.164000
      6 C5          0.3400    0.2080    2.1500 ca        1 AOE     -0.039300
      7 C6         -0.3450    0.2880    3.4710 c3        1 AOE     -0.036100
      8 C7         -1.7770    0.8000    3.3940 c3        1 AOE     -0.054700
      9 C8         -2.4690    0.0740    2.2440 c3        1 AOE     -0.044700
     10 C9         -1.8400    0.4640    0.8970 c3        1 AOE     -0.007400
     11 C10        -0.3570    0.2520    0.9280 ca        1 AOE     -0.100300
     12 C11        -2.5150   -0.2620   -0.2650 c3        1 AOE     -0.072400
     13 C12        -4.0330   -0.1680   -0.2600 c3        1 AOE     -0.064400
     14 C13        -4.6050   -0.5760    1.0850 c3        1 AOE     -0.043000
     15 C14        -3.9560    0.3330    2.1580 c3        1 AOE     -0.066700
     16 C15        -4.8330    0.1500    3.3890 c3        1 AOE     -0.067400
     17 C16        -6.2440   -0.0540    2.8310 c3        1 AOE     -0.117400
     18 C17        -6.1030   -0.2440    1.3040 c3        1 AOE      0.142100
     19 C18        -4.3930   -2.0620    1.3230 c3        1 AOE     -0.079100
     20 O17        -6.9080   -1.3000    0.8150 oh        1 AOE     -0.589800
     21 C19        -1.8180    2.3170    3.2730 c3        1 AOE     -0.078400
     22 C20        -1.6130    2.9970    4.6110 c3        1 AOE     -0.078400
     23 C21        -1.5710    4.5030    4.4540 c3        1 AOE     -0.079400
     24 C22        -1.3520    5.1860    5.7870 c3        1 AOE     -0.079400
     25 C23        -1.2600    6.6880    5.6240 c3        1 AOE     -0.079400
     26 C24        -1.0270    7.3680    6.9560 c3        1 AOE     -0.079400
     27 C25        -0.8960    8.8670    6.7870 c3        1 AOE     -0.079400
     28 C26        -0.6560    9.5440    8.1210 c3        1 AOE     -0.081400
     29 C27        -0.4970   11.0420    7.9440 c3        1 AOE     -0.086400
     30 C28        -0.2430   11.7010    9.2860 c3        1 AOE     -0.162400
     31 C29        -0.1920   13.1960    9.1840 c         1 AOE      0.549100
     32 O29        -0.9510   14.0100    9.6830 o         1 AOE     -0.402100
     33 N29         0.9580   13.7650    8.3540 nx        1 AOE     -0.600200
     34 C30         1.7190   14.7630    9.1440 c3        1 AOE      0.082100
     35 C31         0.4090   14.3530    7.0860 c3        1 AOE      0.106800
     36 C32         1.4700   14.6290    6.0290 c3        1 AOE     -0.106400
     37 C33         0.7960   15.1170    4.7600 c3        1 AOE     -0.077400
     38 C34         1.8180   15.4170    3.6940 c3        1 AOE     -0.100100
     39 HC1        -0.1570    0.1910   -1.2350 ha        1 AOE      0.135000
     40 HC2         2.2990   -0.0870   -1.2170 ha        1 AOE      0.135000
     41 HO3         4.1430   -0.2990    0.1440 ho        1 AOE      0.420000
     42 HC4         2.2830    0.0190    3.1110 ha        1 AOE      0.147000
     43 HC61       -0.3530   -0.7440    3.9200 hc        1 AOE      0.053200
     44 HC62        0.2520    0.9440    4.1610 hc        1 AOE      0.053200
     45 HC7        -2.3090    0.5120    4.3460 hc        1 AOE      0.050700
     46 HC8        -2.3020   -1.0290    2.4120 hc        1 AOE      0.064700
     47 HC9        -2.0110    1.5720    0.7480 hc        1 AOE      0.052700
     48 H111       -2.2040   -1.3390   -0.2540 hc        1 AOE      0.044700
     49 H112       -2.1540    0.1810   -1.2320 hc        1 AOE      0.044700
     50 H121       -4.4460   -0.8320   -1.0630 hc        1 AOE      0.045700
     51 H122       -4.3450    0.8840   -0.4970 hc        1 AOE      0.045700
     52 HC41       -4.0980    1.4010    1.8140 hc        1 AOE      0.043700
     53 H151       -4.7830    1.0440    4.0570 hc        1 AOE      0.044200
     54 H152       -4.5080   -0.7400    3.9830 hc        1 AOE      0.044200
     55 H161       -6.8910    0.8290    3.0510 hc        1 AOE      0.048200
     56 H162       -6.7210   -0.9580    3.2840 hc        1 AOE      0.048200
     57 HC71       -6.3690    0.7060    0.7640 h1        1 AOE      0.032700
     58 H181       -3.3210   -2.3480    1.2100 hc        1 AOE      0.042700
     59 H182       -4.7350   -2.3400    2.3490 hc        1 AOE      0.042700
     60 H183       -4.9950   -2.6440    0.5820 hc        1 AOE      0.042700
     61 HO71       -7.8180   -1.0780    1.0460 ho        1 AOE      0.400000
     62 H191       -1.0260    2.6540    2.5530 hc        1 AOE      0.046700
     63 H192       -2.8090    2.6350    2.8540 hc        1 AOE      0.046700
     64 H201       -0.6560    2.6440    5.0770 hc        1 AOE      0.040200
     65 H202       -2.4450    2.7150    5.3090 hc        1 AOE      0.040200
     66 H211       -2.5320    4.8620    4.0000 hc        1 AOE      0.041200
     67 H212       -0.7460    4.7830    3.7470 hc        1 AOE      0.041200
     68 H221       -0.4080    4.8000    6.2560 hc        1 AOE      0.042200
     69 H222       -2.1950    4.9320    6.4830 hc        1 AOE      0.042200
     70 H231       -2.2070    7.0750    5.1630 hc        1 AOE      0.041700
     71 H232       -0.4220    6.9380    4.9210 hc        1 AOE      0.041700
     72 H241       -1.8790    7.1400    7.6500 hc        1 AOE      0.046200
     73 H242       -0.0950    6.9600    7.4290 hc        1 AOE      0.046200
     74 H251       -1.8300    9.2760    6.3190 hc        1 AOE      0.044200
     75 H252       -0.0460    9.0930    6.0900 hc        1 AOE      0.044200
     76 H261       -1.5170    9.3340    8.8090 hc        1 AOE      0.057200
     77 H262        0.2660    9.1190    8.5990 hc        1 AOE      0.057200
     78 H271        0.3520   11.2420    7.2400 hc        1 AOE      0.051200
     79 H272       -1.4300   11.4630    7.4820 hc        1 AOE      0.051200
     80 H281       -1.0790   11.4470    9.9990 hc        1 AOE      0.115200
     81 H282        0.7140   11.3190    9.7380 hc        1 AOE      0.115200
     82 H301        2.1600   14.2620   10.0470 hx        1 AOE      0.108033
     83 H302        1.0260   15.5850    9.4740 hx        1 AOE      0.108033
     84 H303        2.5420   15.1960    8.5130 hx        1 AOE      0.108033
     85 H311       -0.3420   13.6140    6.6800 hx        1 AOE      0.106700
     86 H312       -0.1320   15.3050    7.3570 hx        1 AOE      0.106700
     87 H321        2.1920   15.4090    6.3880 hc        1 AOE      0.065200
     88 H322        2.0560   13.6970    5.8050 hc        1 AOE      0.065200
     89 H331        0.1990   16.0410    4.9830 hc        1 AOE      0.054700
     90 H332        0.0810   14.3360    4.3880 hc        1 AOE      0.054700
     91 H341        1.3050   15.7730    2.7670 hc        1 AOE      0.051700
     92 H342        2.5240   16.2140    4.0320 hc        1 AOE      0.051700
     93 H343        2.4090   14.5050    3.4400 hc        1 AOE      0.051700
     94 H291        1.5880   12.9940    8.1020 hn        1 AOE      0.450800
@<TRIPOS>BOND
     1    1    2 ar  
     2    1   11 ar  
     3    1   39 1   
     4    2    3 ar  
     5    2   40 1   
     6    3    4 1   
     7    3    5 ar  
     8    4   41 1   
     9    5    6 ar  
    10    5   42 1   
    11    6    7 1   
    12    6   11 ar  
    13    7    8 1   
    14    7   43 1   
    15    7   44 1   
    16    8    9 1   
    17    8   21 1   
    18    8   45 1   
    19    9   10 1   
    20    9   15 1   
    21    9   46 1   
    22   10   11 1   
    23   10   12 1   
    24   10   47 1   
    25   12   13 1   
    26   12   48 1   
    27   12   49 1   
    28   13   14 1   
    29   13   50 1   
    30   13   51 1   
    31   14   15 1   
    32   14   18 1   
    33   14   19 1   
    34   15   16 1   
    35   15   52 1   
    36   16   17 1   
    37   16   53 1   
    38   16   54 1   
    39   17   18 1   
    40   17   55 1   
    41   17   56 1   
    42   18   20 1   
    43   18   57 1   
    44   19   58 1   
    45   19   59 1   
    46   19   60 1   
    47   20   61 1   
    48   21   22 1   
    49   21   62 1   
    50   21   63 1   
    51   22   23 1   
    52   22   64 1   
    53   22   65 1   
    54   23   24 1   
    55   23   66 1   
    56   23   67 1   
    57   24   25 1   
    58   24   68 1   
    59   24   69 1   
    60   25   26 1   
    61   25   70 1   
    62   25   71 1   
    63   26   27 1   
    64   26   72 1   
    65   26   73 1   
    66   27   28 1   
    67   27   74 1   
    68   27   75 1   
    69   28   29 1   
    70   28   76 1   
    71   28   77 1   
    72   29   30 1   
    73   29   78 1   
    74   29   79 1   
    75   30   31 1   
    76   30   80 1   
    77   30   81 1   
    78   31   32 2   
    79   31   33 1   
    80   33   34 1   
    81   33   35 1   
    82   33   94 1   
    83   34   82 1   
    84   34   83 1   
    85   34   84 1   
    86   35   36 1   
    87   35   85 1   
    88   35   86 1   
    89   36   37 1   
    90   36   87 1   
    91   36   88 1   
    92   37   38 1   
    93   37   89 1   
    94   37   90 1   
    95   38   91 1   
    96   38   92 1   
    97   38   93 1   
@<TRIPOS>SUBSTRUCTURE
     1 AOE         1 TEMP              0 ****  ****    0 ROOT
