@<TRIPOS>MOLECULE
AOF
   36    33     1     0     0
SMALL
bcc


@<TRIPOS>ATOM
      1 C2          2.2090   -0.1630   -3.6110 c1        1 AOF      0.377500
      2 N3          3.6550   -0.3810   -3.5900 n3        1 AOF     -0.367000
      3 O4          5.5430   -0.6390   -2.3320 o         1 AOF     -0.409500
      4 C5          3.5810   -0.4660   -1.0920 c1        1 AOF     -0.341000
      5 C6          2.1290   -0.2480   -1.1180 c1        1 AOF      0.316000
      6 O3P        -4.5700    4.0380    0.5250 o         1 AOF     -1.248667
      7 P          -4.9820    2.7210    1.1380 p3        1 AOF      2.528000
      8 O1P        -4.8730    2.8090    2.6410 o         1 AOF     -1.248667
      9 O2P        -6.4100    2.4120    0.7550 o         1 AOF     -1.248667
     10 O5'        -4.0340    1.5740    0.6070 o         1 AOF     -0.718000
     11 C5'        -2.7870    1.3910    1.2340 c3        1 AOF      0.081000
     12 C4'        -2.0630    0.1930    0.5940 c3        1 AOF     -0.047000
     13 O4'        -0.9700    0.5840    0.0160 os        1 AOF     -0.329000
     14 C3'        -1.6070   -0.8010    1.6840 c3        1 AOF      0.017000
     15 O3'        -2.3340   -1.9330    1.6170 oh        1 AOF     -0.414000
     16 C2'        -0.1190   -1.0990    1.3770 c3        1 AOF      0.000000
     17 O2'         0.1230   -2.5690    1.3750 oh        1 AOF     -0.349000
     18 C1'         0.0830   -0.6110    0.1970 c3        1 AOF      0.091000
     19 N1'         1.4110   -0.1110    0.0970 n3        1 AOF     -0.296000
     20 N1          1.4520   -0.1380   -2.3600 n1        1 AOF     -0.315000
     21 O2          1.6340   -0.0080   -4.6710 o         1 AOF     -0.409500
     22 C4          4.3340   -0.5250   -2.3520 c1        1 AOF      0.377500
     23 N5          4.2650   -0.5480    0.1470 n3        1 AOF     -0.250000
     24 H1          4.1250   -0.3960   -4.3710 hn        1 AOF      0.249000
     25 H4         -2.2430    2.1980    1.1220 h1        1 AOF      0.039500
     26 H5         -2.9230    1.2180    2.1890 h1        1 AOF      0.039500
     27 H6         -2.6470   -0.2540   -0.0500 h1        1 AOF      0.116000
     28 H7         -1.6940   -0.3950    2.5690 h1        1 AOF      0.164000
     29 H8         -2.5390   -2.2030    2.4400 ho        1 AOF      0.316000
     30 H9          0.4590   -0.6580    2.0310 h1        1 AOF      0.101000
     31 H10         0.5280   -2.8040    2.1310 ho        1 AOF      0.233000
     32 H11        -0.0690   -1.2990   -0.4820 h2        1 AOF      0.106000
     33 H12         1.8150    0.2580    0.8260 hn        1 AOF      0.257000
     34 H13         0.5500   -0.0020   -2.3760 hn        1 AOF      0.295000
     35 H14         4.3090   -1.3450    0.5930 hn        1 AOF      0.143000
     36 H15         4.6580    0.1970    0.5020 hn        1 AOF      0.143000
@<TRIPOS>BOND
     1    1    2 1   
     2    1   21 1   
     3    2   22 1   
     4    2   24 1   
     5    3   22 1   
     6    4    5 1   
     7    4   23 1   
     8    5   19 1   
     9    6    7 1   
    10    7    8 1   
    11    7    9 1   
    12   10   11 1   
    13   11   12 1   
    14   11   25 1   
    15   11   26 1   
    16   12   13 1   
    17   12   14 1   
    18   12   27 1   
    19   13   18 1   
    20   14   15 1   
    21   14   16 1   
    22   14   28 1   
    23   15   29 1   
    24   16   17 1   
    25   16   18 1   
    26   16   30 1   
    27   17   31 1   
    28   18   19 1   
    29   18   32 1   
    30   19   33 1   
    31   20   34 1   
    32   23   35 1   
    33   23   36 1   
@<TRIPOS>SUBSTRUCTURE
     1 AOF         1 TEMP              0 ****  ****    0 ROOT
