@<TRIPOS>MOLECULE
AOF
   38    50     1     0     0
SMALL
bcc


@<TRIPOS>ATOM
      1 C2          0.0000    0.0000    0.0000 c3        1 AOF      0.423000
      2 N3          1.3450    0.0000    0.0000 ns        1 AOF     -0.239000
      3 O4          3.2510   -0.0000    1.1520 o         1 AOF     -0.325000
      4 C5          1.3320   -0.0010    2.3800 c3        1 AOF     -0.745000
      5 C6         -0.0360   -0.0000    2.3620 c3        1 AOF     -0.049000
      6 O3P        -6.5420    4.5640    4.6230 o         1 AOF     -0.306833
      7 P          -5.2120    4.9970    4.1340 p5        1 AOF      1.129500
      8 O1P        -5.3900    5.8360    2.7710 o         1 AOF     -0.306833
      9 O2P        -4.5060    5.9210    5.2470 o         1 AOF     -0.306833
     10 O5'        -4.7160    3.5060    3.7840 os        1 AOF     -0.678000
     11 C4'        -4.0810    1.1960    4.1030 DU        1 AOF     -0.191000
     12 O4'        -2.7170    1.3470    3.6520 os        1 AOF     -0.149000
     13 C3'        -4.0320    0.0420    5.1290 DU        1 AOF     -0.462000
     14 O3'        -5.2030   -0.7700    5.0260 oh        1 AOF     -0.466000
     15 C2'        -2.7740   -0.7610    4.7310 DU        1 AOF     -0.388000
     16 O2'        -3.1270   -2.0980    4.3700 oh        1 AOF     -0.513000
     17 C1'        -2.2120    0.0010    3.5110 DU        1 AOF     -0.004000
     18 N1'        -0.7480    0.0010    3.5390 ny        1 AOF     -0.296000
     19 N1         -0.6940   -0.0000    1.1520 n7        1 AOF     -0.377000
     20 O2         -0.5990    0.0050   -1.0590 o         1 AOF     -0.283000
     21 C4          2.0320    0.0000    1.1600 c2        1 AOF      0.379000
     22 N5          2.0330   -0.0000    3.6080 nz        1 AOF      0.265000
     23 H1          0.6030    0.3290    0.5840 DU        1 AOF      0.186000
     24 H4         -5.4870    2.9360    5.1220 ha        1 AOF      0.268000
     25 H5         -3.4880    2.4140    4.6980 DU        1 AOF      0.188000
     26 H6         -4.0380    2.0540    4.7630 DU        1 AOF      0.364000
     27 H7         -4.3670    0.4690    4.1920 DU        1 AOF      0.166000
     28 H8         -4.6230   -0.2230    5.5300 DU        1 AOF      0.335000
     29 H9         -3.7710   -0.8290    5.1490 DU        1 AOF      0.461000
     30 H10        -2.6400   -1.4920    4.9020 DU        1 AOF      0.333000
     31 H11        -2.8270   -0.8900    3.5420 DU        1 AOF      0.302000
     32 H12        -1.6160   -0.2100    3.0880 DU        1 AOF      0.243000
     33 H13        -0.6180    0.2720    2.1120 DU        1 AOF      0.322000
     34 H14         1.1990   -0.0000    3.0540 DU        1 AOF      0.350000
     35 H15         2.7580    0.6860    3.6780 hn        1 AOF      0.069000
     36 H1'2        0.1990   -0.2910    3.6830 hn        1 AOF      0.073000
     37 H53         1.4490    0.8120    3.5730 hn        1 AOF      0.069000
     38 C5'        -4.5670    2.4840    4.7720 DU        1 AOF      0.160000
@<TRIPOS>BOND
     1    1    2 1   
     2    1   19 1   
     3    1   20 1   
     4    1   23 1   
     5    2   21 1   
     6    2   23 1   
     7    3   21 1   
     8    4    5 1   
     9    4   21 1   
    10    4   22 1   
    11    4   34 1   
    12    5   18 1   
    13    5   19 1   
    14    5   33 1   
    15    6    7 1   
    16    7    8 1   
    17    7    9 1   
    18    7   10 1   
    19   10   38 1   
    20   11   12 1   
    21   11   13 1   
    22   11   26 1   
    23   11   27 1   
    24   11   38 1   
    25   12   17 1   
    26   13   14 1   
    27   13   15 1   
    28   13   27 1   
    29   13   28 1   
    30   13   29 1   
    31   14   28 1   
    32   15   16 1   
    33   15   17 1   
    34   15   29 1   
    35   15   30 1   
    36   15   31 1   
    37   16   30 1   
    38   17   18 1   
    39   17   31 1   
    40   17   32 1   
    41   18   32 1   
    42   18   36 1   
    43   19   33 1   
    44   22   34 1   
    45   22   35 1   
    46   22   37 1   
    47   24   38 1   
    48   25   26 1   
    49   25   38 1   
    50   26   38 1   
@<TRIPOS>SUBSTRUCTURE
     1 AOF         1 TEMP              0 ****  ****    0 ROOT
