@<TRIPOS>MOLECULE
AOF
   36    37     1     0     0
SMALL
bcc


@<TRIPOS>ATOM
      1 C2          4.0020    0.4550   -1.2000 c         1 AOF      0.798500
      2 N3          4.5900    1.2120   -0.1870 n         1 AOF     -0.589500
      3 O4          4.5820    2.1320    1.8780 o         1 AOF     -0.696500
      4 C5          2.8040    0.5650    1.3750 cc        1 AOF     -0.155200
      5 C6          2.2270   -0.2360    0.3650 cd        1 AOF      0.293600
      6 O3P        -2.1120   -1.3770    2.3280 o         1 AOF     -0.907167
      7 P          -2.0590    0.1080    2.0870 p5        1 AOF      1.345900
      8 O1P        -3.0110    1.0110    2.7920 o         1 AOF     -0.907167
      9 O2P        -0.6180    0.5840    1.9810 o         1 AOF     -0.907167
     10 O5'        -2.6060    0.1390    0.4510 os        1 AOF     -0.576200
     11 C4'        -1.3690   -0.7440   -1.4550 c3        1 AOF      0.072100
     12 O4'         0.0630   -0.9110   -1.5350 os        1 AOF     -0.493600
     13 C3'        -1.8970   -2.0880   -0.9290 c3        1 AOF      0.092100
     14 O3'        -2.1480   -3.0060   -1.9800 oh        1 AOF     -0.625800
     15 C2'        -0.7600   -2.5740    0.0000 c3        1 AOF      0.035100
     16 O2'        -0.4840   -3.9500   -0.2150 oh        1 AOF     -0.626800
     17 C1'         0.5020   -1.7840   -0.4670 c3        1 AOF      0.378300
     18 N1'         1.1300   -1.0560    0.6160 nh        1 AOF     -0.743000
     19 N1          2.8550   -0.2760   -0.9050 n         1 AOF     -0.468100
     20 O2          4.5180    0.4100   -2.3510 o         1 AOF     -0.729500
     21 C4          4.0080    1.3440    1.0910 c         1 AOF      0.712700
     22 N5          2.3150    0.6040    2.7050 nh        1 AOF     -0.768600
     23 H1          5.3980    1.7420   -0.4160 hn        1 AOF      0.324500
     24 H4         -2.2060    1.2310   -1.2220 h1        1 AOF      0.011700
     25 H5         -0.7730    0.8950   -0.1290 h1        1 AOF      0.011700
     26 H6         -1.6860   -0.5620   -2.5140 h1        1 AOF      0.042700
     27 H7         -2.8730   -1.9760   -0.3850 h1        1 AOF      0.144700
     28 H8         -1.2870   -3.2770   -2.3210 ho        1 AOF      0.389000
     29 H9         -1.0580   -2.3450    1.0850 h1        1 AOF      0.206700
     30 H10        -1.2100   -4.4200    0.2100 ho        1 AOF      0.406000
     31 H11         1.2460   -2.4870   -0.9470 h2        1 AOF      0.052700
     32 H12         0.4260   -0.6280    1.2800 hn        1 AOF      0.533800
     33 H13         2.3610   -0.6610   -1.6840 hn        1 AOF      0.356500
     34 H14         1.3110    0.4620    2.7370 hn        1 AOF      0.392300
     35 H15         2.5190    1.5080    3.0960 hn        1 AOF      0.392300
     36 C5'        -1.7260    0.4610   -0.5460 c3        1 AOF      0.202400
@<TRIPOS>BOND
     1    1    2 1   
     2    1   19 1   
     3    1   20 2   
     4    2   21 1   
     5    2   23 1   
     6    3   21 2   
     7    4    5 2   
     8    4   21 1   
     9    4   22 1   
    10    5   18 1   
    11    5   19 1   
    12    6    7 1   
    13    7    8 1   
    14    7    9 1   
    15    7   10 1   
    16   10   36 1   
    17   11   12 1   
    18   11   13 1   
    19   11   26 1   
    20   11   36 1   
    21   12   17 1   
    22   13   14 1   
    23   13   15 1   
    24   13   27 1   
    25   14   28 1   
    26   15   16 1   
    27   15   17 1   
    28   15   29 1   
    29   16   30 1   
    30   17   18 1   
    31   17   31 1   
    32   18   32 1   
    33   19   33 1   
    34   22   34 1   
    35   22   35 1   
    36   24   36 1   
    37   25   36 1   
@<TRIPOS>SUBSTRUCTURE
     1 AOF         1 TEMP              0 ****  ****    0 ROOT
