@<TRIPOS>MOLECULE
AOG
   49    49     1     0     0
SMALL
bcc


@<TRIPOS>ATOM
      1 C1          1.6830    0.3520    1.8880 c3        1 AOG      0.310900
      2 O1          1.2440    0.5020    0.5890 os        1 AOG     -0.424600
      3 C2          3.1790    0.1240    1.8760 c3        1 AOG      0.085100
      4 O2          3.4520   -1.1500    1.2590 oh        1 AOG     -0.604800
      5 C3          3.7610    0.1300    3.2400 c3        1 AOG      0.139500
      6 C4          3.3690    1.3440    4.0160 c3        1 AOG      0.119100
      7 O4          4.0090    2.4890    3.4380 oh        1 AOG     -0.589800
      8 C5          1.8670    1.5690    4.0170 c3        1 AOG      0.112100
      9 O5          1.2970    1.5570    2.6690 os        1 AOG     -0.440600
     10 C6          1.5760    2.8900    4.6530 c3        1 AOG      0.141400
     11 O6          0.2630    2.8850    5.1680 oh        1 AOG     -0.599800
     12 N3          5.2230    0.0880    3.1320 n3        1 AOG     -0.895800
     13 C1'         0.0030   -0.1130    0.3320 c3        1 AOG      0.137400
     14 C2'        -0.3190   -0.0010   -1.1420 c3        1 AOG     -0.085400
     15 C3'        -1.6710   -0.6250   -1.4120 c3        1 AOG     -0.078400
     16 C4'        -1.9430   -0.6160   -2.9000 c3        1 AOG     -0.078400
     17 C5'        -3.3190   -1.1870   -3.1650 c3        1 AOG     -0.079400
     18 C6'        -3.5220   -1.3420   -4.6560 c3        1 AOG     -0.079400
     19 C7'        -4.8930   -1.9240   -4.9200 c3        1 AOG     -0.080400
     20 C8'        -5.1060   -2.0560   -6.4120 c3        1 AOG     -0.093100
     21 H1          1.2480   -0.4310    2.2800 h2        1 AOG      0.047700
     22 H2          3.6030    0.8290    1.3470 h1        1 AOG      0.077700
     23 HO2         4.1790   -1.0850    0.7520 ho        1 AOG      0.423000
     24 H3          3.4560   -0.6640    3.7180 h1        1 AOG      0.073700
     25 H4          3.6750    1.2420    4.9380 h1        1 AOG      0.058700
     26 HO4         4.6280    2.7960    3.9970 ho        1 AOG      0.409000
     27 H5          1.4440    0.8640    4.5440 h1        1 AOG      0.052700
     28 H61         2.2120    3.0490    5.3810 h1        1 AOG      0.064200
     29 H62         1.6620    3.6010    3.9840 h1        1 AOG      0.064200
     30 HO6         0.1610    3.5710    5.7250 ho        1 AOG      0.413000
     31 HN31        5.5950    0.2690    3.9490 hn        1 AOG      0.358300
     32 HN32        5.4850   -0.7440    2.8540 hn        1 AOG      0.358300
     33 H1'1        0.0480   -1.0580    0.5850 h1        1 AOG      0.037200
     34 H1'2       -0.6960    0.3320    0.8540 h1        1 AOG      0.037200
     35 H2'1        0.3650   -0.4680   -1.6620 hc        1 AOG      0.054700
     36 H2'2       -0.3380    0.9420   -1.4010 hc        1 AOG      0.054700
     37 H3'1       -2.3640   -0.1130   -0.9500 hc        1 AOG      0.041200
     38 H3'2       -1.6750   -1.5470   -1.0850 hc        1 AOG      0.041200
     39 H4'1       -1.9010    0.3030   -3.2330 hc        1 AOG      0.041700
     40 H4'2       -1.2710   -1.1590   -3.3580 hc        1 AOG      0.041700
     41 H5'1       -3.3980   -2.0600   -2.7320 hc        1 AOG      0.040200
     42 H5'2       -3.9970   -0.5810   -2.8050 hc        1 AOG      0.040200
     43 H6'1       -2.8380   -1.9420   -5.0170 hc        1 AOG      0.040200
     44 H6'2       -3.4490   -0.4680   -5.0880 hc        1 AOG      0.040200
     45 H7'1       -4.9590   -2.8060   -4.5020 hc        1 AOG      0.038700
     46 H7'2       -5.5760   -1.3330   -4.5440 hc        1 AOG      0.038700
     47 H8'1       -5.9290   -2.5610   -6.5810 hc        1 AOG      0.032700
     48 H8'2       -4.3450   -2.5280   -6.8100 hc        1 AOG      0.032700
     49 H8'3       -5.1820   -1.1640   -6.8110 hc        1 AOG      0.032700
@<TRIPOS>BOND
     1    1    2 1   
     2    1    3 1   
     3    1    9 1   
     4    1   21 1   
     5    2   13 1   
     6    3    4 1   
     7    3    5 1   
     8    3   22 1   
     9    4   23 1   
    10    5    6 1   
    11    5   12 1   
    12    5   24 1   
    13    6    7 1   
    14    6    8 1   
    15    6   25 1   
    16    7   26 1   
    17    8    9 1   
    18    8   10 1   
    19    8   27 1   
    20   10   11 1   
    21   10   28 1   
    22   10   29 1   
    23   11   30 1   
    24   12   31 1   
    25   12   32 1   
    26   13   14 1   
    27   13   33 1   
    28   13   34 1   
    29   14   15 1   
    30   14   35 1   
    31   14   36 1   
    32   15   16 1   
    33   15   37 1   
    34   15   38 1   
    35   16   17 1   
    36   16   39 1   
    37   16   40 1   
    38   17   18 1   
    39   17   41 1   
    40   17   42 1   
    41   18   19 1   
    42   18   43 1   
    43   18   44 1   
    44   19   20 1   
    45   19   45 1   
    46   19   46 1   
    47   20   47 1   
    48   20   48 1   
    49   20   49 1   
@<TRIPOS>SUBSTRUCTURE
     1 AOG         1 TEMP              0 ****  ****    0 ROOT
