@<TRIPOS>MOLECULE
AOG
   49    49     1     0     0
SMALL
bcc


@<TRIPOS>ATOM
      1 C1         -0.4390   -0.5700   -1.8580 c3        1 AOG      0.309900
      2 O1         -0.7970   -0.0140   -0.6140 os        1 AOG     -0.422600
      3 C2         -1.4110    0.0100   -2.9050 c3        1 AOG      0.082100
      4 O2         -2.6960   -0.5580   -2.7350 oh        1 AOG     -0.601800
      5 C3         -0.9150   -0.3710   -4.3230 c3        1 AOG      0.185500
      6 C4          0.5200    0.1980   -4.4650 c3        1 AOG      0.115100
      7 O4          0.4110    1.6110   -4.4040 oh        1 AOG     -0.590800
      8 C5          1.4030   -0.3800   -3.3500 c3        1 AOG      0.071100
      9 O5          0.8920   -0.0980   -2.0470 os        1 AOG     -0.445600
     10 C6          2.8160    0.2130   -3.3650 c3        1 AOG      0.133400
     11 O6          3.6670   -0.4890   -2.4870 oh        1 AOG     -0.592800
     12 N3         -1.7770    0.0370   -5.4080 n3        1 AOG     -0.894800
     13 C1'        -0.0850   -0.5770    0.4940 c3        1 AOG      0.136400
     14 C2'        -0.6300    0.1000    1.7390 c3        1 AOG     -0.085400
     15 C3'         0.0680   -0.4280    2.9730 c3        1 AOG     -0.078400
     16 C4'        -0.4640    0.2360    4.2240 c3        1 AOG     -0.078400
     17 C5'         0.2320   -0.2890    5.4620 c3        1 AOG     -0.079400
     18 C6'        -0.3000    0.3750    6.7140 c3        1 AOG     -0.079400
     19 C7'         0.3950   -0.1490    7.9530 c3        1 AOG     -0.080400
     20 C8'        -0.1310    0.5080    9.2020 c3        1 AOG     -0.093100
     21 H1         -0.4560   -1.6950   -1.8440 h2        1 AOG      0.048700
     22 H2         -1.4540    1.1290   -2.7920 h1        1 AOG      0.081700
     23 HO2        -2.9910   -0.3050   -1.8500 ho        1 AOG      0.420000
     24 H3         -0.8420   -1.4980   -4.3710 h1        1 AOG      0.070700
     25 H4          0.9540   -0.1050   -5.4600 h1        1 AOG      0.061700
     26 HO4         1.3020    1.9680   -4.4970 ho        1 AOG      0.407000
     27 H5          1.4620   -1.4990   -3.4790 h1        1 AOG      0.060700
     28 H61         3.2710    0.0880   -4.3820 h1        1 AOG      0.055700
     29 H62         2.7790    1.2990   -3.0830 h1        1 AOG      0.055700
     30 HO6         3.2790   -0.4220   -1.6040 ho        1 AOG      0.415000
     31 HN31       -2.7160   -0.2630   -5.2200 hn        1 AOG      0.364300
     32 HN32       -1.7620    1.0340   -5.5120 hn        1 AOG      0.364300
     33 H1'1        1.0120   -0.3780    0.3700 h1        1 AOG      0.035700
     34 H1'2       -0.2600   -1.6850    0.5240 h1        1 AOG      0.035700
     35 H2'1       -1.7340   -0.0820    1.8100 hc        1 AOG      0.055200
     36 H2'2       -0.4810    1.2080    1.6530 hc        1 AOG      0.055200
     37 H3'1        1.1720   -0.2450    2.8900 hc        1 AOG      0.040700
     38 H3'2       -0.0790   -1.5380    3.0450 hc        1 AOG      0.040700
     39 H4'1       -1.5680    0.0530    4.3070 hc        1 AOG      0.042200
     40 H4'2       -0.3170    1.3460    4.1520 hc        1 AOG      0.042200
     41 H5'1        1.3360   -0.1060    5.3790 hc        1 AOG      0.039700
     42 H5'2        0.0860   -1.3990    5.5340 hc        1 AOG      0.039700
     43 H6'1       -1.4030    0.1920    6.7970 hc        1 AOG      0.040200
     44 H6'2       -0.1530    1.4850    6.6430 hc        1 AOG      0.040200
     45 H7'1        1.4990    0.0330    7.8670 hc        1 AOG      0.038700
     46 H7'2        0.2490   -1.2600    8.0210 hc        1 AOG      0.038700
     47 H8'1        0.3940    0.1080   10.1020 hc        1 AOG      0.032700
     48 H8'2        0.0280    1.6130    9.1630 hc        1 AOG      0.032700
     49 H8'3       -1.2250    0.3170    9.3180 hc        1 AOG      0.032700
@<TRIPOS>BOND
     1    1    2 1   
     2    1    3 1   
     3    1    9 1   
     4    1   21 1   
     5    2   13 1   
     6    3    4 1   
     7    3    5 1   
     8    3   22 1   
     9    4   23 1   
    10    5    6 1   
    11    5   12 1   
    12    5   24 1   
    13    6    7 1   
    14    6    8 1   
    15    6   25 1   
    16    7   26 1   
    17    8    9 1   
    18    8   10 1   
    19    8   27 1   
    20   10   11 1   
    21   10   28 1   
    22   10   29 1   
    23   11   30 1   
    24   12   31 1   
    25   12   32 1   
    26   13   14 1   
    27   13   33 1   
    28   13   34 1   
    29   14   15 1   
    30   14   35 1   
    31   14   36 1   
    32   15   16 1   
    33   15   37 1   
    34   15   38 1   
    35   16   17 1   
    36   16   39 1   
    37   16   40 1   
    38   17   18 1   
    39   17   41 1   
    40   17   42 1   
    41   18   19 1   
    42   18   43 1   
    43   18   44 1   
    44   19   20 1   
    45   19   45 1   
    46   19   46 1   
    47   20   47 1   
    48   20   48 1   
    49   20   49 1   
@<TRIPOS>SUBSTRUCTURE
     1 AOG         1 TEMP              0 ****  ****    0 ROOT
