@<TRIPOS>MOLECULE
AOI
   51    54     1     0     0
SMALL
bcc


@<TRIPOS>ATOM
      1 C1         -2.4470    1.5130   -0.2220 c3        1 AOI     -0.069400
      2 C2         -3.9150    1.4420    0.1370 c3        1 AOI     -0.109400
      3 C3         -4.5480    0.1040   -0.2310 c3        1 AOI      0.143100
      4 O3         -4.6430   -0.0760   -1.6400 oh        1 AOI     -0.600800
      5 C4         -3.7350   -1.0660    0.3120 c3        1 AOI     -0.067400
      6 C5         -2.2730   -0.9570   -0.0810 c3        1 AOI     -0.057700
      7 C6         -1.4880   -2.1630    0.4040 c3        1 AOI     -0.072400
      8 C7         -0.0710   -2.1190   -0.1240 c3        1 AOI     -0.073400
      9 C8          0.6200   -0.8230    0.2670 c3        1 AOI     -0.045700
     10 C9         -0.1960    0.3990   -0.1930 c3        1 AOI     -0.049700
     11 C10        -1.6280    0.3650    0.3840 c3        1 AOI     -0.035000
     12 C11         0.5250    1.7100    0.1010 c3        1 AOI     -0.075400
     13 C12         1.9670    1.7520   -0.3840 c3        1 AOI     -0.056400
     14 C13         2.7330    0.5430    0.1180 c3        1 AOI     -0.152000
     15 C14         1.9870   -0.7180   -0.3770 c3        1 AOI     -0.064700
     16 C15         3.0010   -1.8470   -0.2180 c3        1 AOI     -0.072400
     17 C16         4.3440   -1.1900   -0.5500 c3        1 AOI     -0.188400
     18 C17         4.1270    0.3080   -0.4560 c         1 AOI      0.577100
     19 O17         4.9420    1.1680   -0.7770 o         1 AOI     -0.521100
     20 C18         2.9080    0.6080    1.6300 c3        1 AOI     -0.082100
     21 C19        -1.6210    0.5020    1.8970 c3        1 AOI     -0.085100
     22 H1         -2.3430    1.4810   -1.3390 hc        1 AOI      0.044700
     23 H2         -2.0380    2.4940    0.1360 hc        1 AOI      0.044700
     24 H3         -4.0460    1.6040    1.2390 hc        1 AOI      0.044200
     25 H4         -4.4610    2.2680   -0.3910 hc        1 AOI      0.044200
     26 H5         -5.5920    0.0640    0.1980 h1        1 AOI      0.028700
     27 H6         -5.0120    0.7380   -2.0030 ho        1 AOI      0.398000
     28 H7         -3.8490   -1.0980    1.4250 hc        1 AOI      0.051200
     29 H8         -4.1540   -2.0190   -0.1050 hc        1 AOI      0.051200
     30 H9         -2.2420   -0.9530   -1.2110 hc        1 AOI      0.064700
     31 H10        -1.4820   -2.1930    1.5240 hc        1 AOI      0.041700
     32 H11        -1.9900   -3.1010    0.0470 hc        1 AOI      0.041700
     33 H12         0.5150   -2.9850    0.2810 hc        1 AOI      0.041200
     34 H13        -0.0830   -2.2150   -1.2420 hc        1 AOI      0.041200
     35 H14         0.7320   -0.8050    1.3860 hc        1 AOI      0.055700
     36 H15        -0.2980    0.3220   -1.3150 hc        1 AOI      0.048700
     37 H16        -0.0300    2.5470   -0.4030 hc        1 AOI      0.042700
     38 H17         0.5020    1.9140    1.2030 hc        1 AOI      0.042700
     39 H18         1.9920    1.7710   -1.5050 hc        1 AOI      0.050700
     40 H19         2.4570    2.6920   -0.0200 hc        1 AOI      0.050700
     41 H20         1.8190   -0.5950   -1.4880 hc        1 AOI      0.051700
     42 H21         2.9970   -2.2470    0.8260 hc        1 AOI      0.049200
     43 H22         2.7770   -2.6920   -0.9110 hc        1 AOI      0.049200
     44 H23         5.1430   -1.5020    0.1670 hc        1 AOI      0.073700
     45 H24         4.6820   -1.4570   -1.5820 hc        1 AOI      0.073700
     46 H25         1.9280    0.7420    2.1440 hc        1 AOI      0.043367
     47 H26         3.3810   -0.3300    2.0090 hc        1 AOI      0.043367
     48 H27         3.5650    1.4740    1.8900 hc        1 AOI      0.043367
     49 H28        -2.6430    0.3350    2.3140 hc        1 AOI      0.034367
     50 H29        -0.9310   -0.2380    2.3690 hc        1 AOI      0.034367
     51 H30        -1.2930    1.5290    2.1930 hc        1 AOI      0.034367
@<TRIPOS>BOND
     1    1    2 1   
     2    1   11 1   
     3    1   22 1   
     4    1   23 1   
     5    2    3 1   
     6    2   24 1   
     7    2   25 1   
     8    3    4 1   
     9    3    5 1   
    10    3   26 1   
    11    4   27 1   
    12    5    6 1   
    13    5   28 1   
    14    5   29 1   
    15    6    7 1   
    16    6   11 1   
    17    6   30 1   
    18    7    8 1   
    19    7   31 1   
    20    7   32 1   
    21    8    9 1   
    22    8   33 1   
    23    8   34 1   
    24    9   10 1   
    25    9   15 1   
    26    9   35 1   
    27   10   11 1   
    28   10   12 1   
    29   10   36 1   
    30   11   21 1   
    31   12   13 1   
    32   12   37 1   
    33   12   38 1   
    34   13   14 1   
    35   13   39 1   
    36   13   40 1   
    37   14   15 1   
    38   14   18 1   
    39   14   20 1   
    40   15   16 1   
    41   15   41 1   
    42   16   17 1   
    43   16   42 1   
    44   16   43 1   
    45   17   18 1   
    46   17   44 1   
    47   17   45 1   
    48   18   19 2   
    49   20   46 1   
    50   20   47 1   
    51   20   48 1   
    52   21   49 1   
    53   21   50 1   
    54   21   51 1   
@<TRIPOS>SUBSTRUCTURE
     1 AOI         1 TEMP              0 ****  ****    0 ROOT
