@<TRIPOS>MOLECULE
AOI
   51    54     1     0     0
SMALL
bcc


@<TRIPOS>ATOM
      1 C1          1.7530    1.7270   -0.9790 c3        1 AOI     -0.069400
      2 C2          3.3660    1.7270   -0.9790 c3        1 AOI     -0.109400
      3 C3          3.9000    1.7270    0.3170 c3        1 AOI      0.143100
      4 O3          3.6210    3.0000    0.9370 oh        1 AOI     -0.600800
      5 C4          3.2890    0.5690    1.2210 c3        1 AOI     -0.067400
      6 C5          1.6180    0.5700    1.1940 c3        1 AOI     -0.057700
      7 C6          1.1580   -0.3420    1.9260 c3        1 AOI     -0.072400
      8 C7         -0.5370   -0.4130    1.9080 c3        1 AOI     -0.073400
      9 C8         -1.0540   -0.5270    0.7570 c3        1 AOI     -0.045700
     10 C9         -0.4440    0.5530   -0.0580 c3        1 AOI     -0.049700
     11 C10         1.1350    0.5450   -0.0290 c3        1 AOI     -0.035000
     12 C11        -0.9140    0.5480   -1.5440 c3        1 AOI     -0.075400
     13 C12        -1.9300    0.5030   -1.6480 c3        1 AOI     -0.056400
     14 C13        -2.4550   -0.5100   -0.9640 c3        1 AOI     -0.152000
     15 C14        -1.9900   -0.5480    0.7750 c3        1 AOI     -0.064700
     16 C15        -2.5590   -1.7490    1.2090 c3        1 AOI     -0.072400
     17 C16        -4.1720   -1.7240    0.4330 c3        1 AOI     -0.188400
     18 C17        -3.8170   -0.4810   -0.8930 c         1 AOI      0.577100
     19 O17        -4.5730   -0.1570   -1.7890 o         1 AOI     -0.521100
     20 C18        -2.0220   -1.8240   -1.6220 c3        1 AOI     -0.082100
     21 C19         1.5770   -0.7860   -0.6450 c3        1 AOI     -0.085100
     22 H1          1.4360    1.5960   -1.8930 hc        1 AOI      0.044700
     23 H2          1.4360    2.5910   -0.6540 hc        1 AOI      0.044700
     24 H3          3.6820    0.9330   -1.4500 hc        1 AOI      0.044200
     25 H4          3.6820    2.5210   -1.4500 hc        1 AOI      0.044200
     26 H5          4.8680    1.6070    0.2610 h1        1 AOI      0.028700
     27 H6          4.3830    3.4210    1.1050 ho        1 AOI      0.398000
     28 H7          3.6110   -0.2920    0.8940 hc        1 AOI      0.051200
     29 H8          3.5920    0.6920    2.1410 hc        1 AOI      0.051200
     30 H9          1.3330    1.4160    1.5880 hc        1 AOI      0.064700
     31 H10         1.5110   -1.1990    1.6210 hc        1 AOI      0.041700
     32 H11         1.4560   -0.1880    2.8430 hc        1 AOI      0.041700
     33 H12        -0.8820    0.4010    2.3210 hc        1 AOI      0.041200
     34 H13        -0.8170   -1.1770    2.4480 hc        1 AOI      0.041200
     35 H14        -0.7540   -1.3780    0.3840 hc        1 AOI      0.055700
     36 H15        -0.7330    1.4000    0.3310 hc        1 AOI      0.048700
     37 H16        -0.5920    1.3620   -1.9760 hc        1 AOI      0.042700
     38 H17        -0.5190   -0.2220   -1.9940 hc        1 AOI      0.042700
     39 H18        -2.3200    1.3380   -1.3270 hc        1 AOI      0.050700
     40 H19        -2.1470    0.3940   -2.5940 hc        1 AOI      0.050700
     41 H20        -2.3580    0.2170    1.2560 hc        1 AOI      0.051700
     42 H21        -2.6440   -1.7610    2.1810 hc        1 AOI      0.049200
     43 H22        -2.0370   -2.5120    0.8960 hc        1 AOI      0.049200
     44 H23        -4.8720   -1.4680    1.0630 hc        1 AOI      0.073700
     45 H24        -4.4880   -2.5830    0.0920 hc        1 AOI      0.073700
     46 H25        -2.7170   -2.4970   -1.4920 hc        1 AOI      0.043367
     47 H26        -1.8840   -1.6800   -2.5780 hc        1 AOI      0.043367
     48 H27        -1.1900   -2.1330   -1.2160 hc        1 AOI      0.043367
     49 H28         1.0470   -1.5120   -0.2650 hc        1 AOI      0.034367
     50 H29         2.5220   -0.9360   -0.4520 hc        1 AOI      0.034367
     51 H30         1.4430   -0.7570   -1.6120 hc        1 AOI      0.034367
@<TRIPOS>BOND
     1    1    2 1   
     2    1   11 1   
     3    1   22 1   
     4    1   23 1   
     5    2    3 1   
     6    2   24 1   
     7    2   25 1   
     8    3    4 1   
     9    3    5 1   
    10    3   26 1   
    11    4   27 1   
    12    5    6 1   
    13    5   28 1   
    14    5   29 1   
    15    6    7 1   
    16    6   11 1   
    17    6   30 1   
    18    7    8 1   
    19    7   31 1   
    20    7   32 1   
    21    8    9 1   
    22    8   33 1   
    23    8   34 1   
    24    9   10 1   
    25    9   15 1   
    26    9   35 1   
    27   10   11 1   
    28   10   12 1   
    29   10   36 1   
    30   11   21 1   
    31   12   13 1   
    32   12   37 1   
    33   12   38 1   
    34   13   14 1   
    35   13   39 1   
    36   13   40 1   
    37   14   15 1   
    38   14   18 1   
    39   14   20 1   
    40   15   16 1   
    41   15   41 1   
    42   16   17 1   
    43   16   42 1   
    44   16   43 1   
    45   17   18 1   
    46   17   44 1   
    47   17   45 1   
    48   18   19 2   
    49   20   46 1   
    50   20   47 1   
    51   20   48 1   
    52   21   49 1   
    53   21   50 1   
    54   21   51 1   
@<TRIPOS>SUBSTRUCTURE
     1 AOI         1 TEMP              0 ****  ****    0 ROOT
