@<TRIPOS>MOLECULE
AOI
   51    54     1     0     0
SMALL
bcc


@<TRIPOS>ATOM
      1 C1          0.0780   -0.0180    0.0280 c3        1 AOI     -0.069400
      2 C2          1.5700    0.1920    0.1720 c3        1 AOI     -0.109400
      3 C3          2.0420    0.0970    1.6190 c3        1 AOI      0.143100
      4 O3          1.5760    1.1870    2.4080 oh        1 AOI     -0.600800
      5 C4          1.5430   -1.1800    2.2860 c3        1 AOI     -0.067400
      6 C5          0.0430   -1.3420    2.1240 c3        1 AOI     -0.057700
      7 C6         -0.4520   -2.5790    2.8540 c3        1 AOI     -0.072400
      8 C7         -1.9640   -2.6460    2.8160 c3        1 AOI     -0.073400
      9 C8         -2.4780   -2.6110    1.3870 c3        1 AOI     -0.045700
     10 C9         -1.9450   -1.3750    0.6370 c3        1 AOI     -0.049700
     11 C10        -0.4010   -1.3370    0.6480 c3        1 AOI     -0.035000
     12 C11        -2.5270   -1.2650   -0.7680 c3        1 AOI     -0.075400
     13 C12        -4.0430   -1.3770   -0.8260 c3        1 AOI     -0.056400
     14 C13        -4.5140   -2.6220   -0.0990 c3        1 AOI     -0.152000
     15 C14        -3.9900   -2.5370    1.3540 c3        1 AOI     -0.064700
     16 C15        -4.8270   -3.5570    2.1190 c3        1 AOI     -0.072400
     17 C16        -6.2100   -3.4710    1.4660 c3        1 AOI     -0.188400
     18 C17        -6.0140   -2.7720    0.1330 c         1 AOI      0.577100
     19 O17        -6.9140   -2.4090   -0.6190 o         1 AOI     -0.521100
     20 C18        -4.0780   -3.8770   -0.8440 c3        1 AOI     -0.082100
     21 C19         0.1880   -2.4990   -0.1350 c3        1 AOI     -0.085100
     22 H1         -0.1820   -0.0000   -1.0620 hc        1 AOI      0.044700
     23 H2         -0.4590    0.8320    0.5270 hc        1 AOI      0.044700
     24 H3          2.1220   -0.5760   -0.4310 hc        1 AOI      0.044200
     25 H4          1.8390    1.2000   -0.2400 hc        1 AOI      0.044200
     26 H5          3.1710    0.1110    1.6360 h1        1 AOI      0.028700
     27 H6          1.7490    1.9920    1.9060 ho        1 AOI      0.398000
     28 H7          1.7880   -1.1340    3.3800 hc        1 AOI      0.051200
     29 H8          2.0890   -2.0530    1.8470 hc        1 AOI      0.051200
     30 H9         -0.4340   -0.4380    2.6100 hc        1 AOI      0.064700
     31 H10        -0.1070   -2.5430    3.9210 hc        1 AOI      0.041700
     32 H11        -0.0130   -3.5000    2.3900 hc        1 AOI      0.041700
     33 H12        -2.3920   -1.7830    3.3910 hc        1 AOI      0.041200
     34 H13        -2.3170   -3.5880    3.3110 hc        1 AOI      0.041200
     35 H14        -2.1380   -3.5460    0.8650 hc        1 AOI      0.055700
     36 H15        -2.2940   -0.4670    1.2120 hc        1 AOI      0.048700
     37 H16        -2.2400   -0.2680   -1.1990 hc        1 AOI      0.042700
     38 H17        -2.0750   -2.0530   -1.4250 hc        1 AOI      0.042700
     39 H18        -4.5110   -0.4720   -0.3580 hc        1 AOI      0.050700
     40 H19        -4.3750   -1.4130   -1.8960 hc        1 AOI      0.050700
     41 H20        -4.2800   -1.5210    1.7570 hc        1 AOI      0.051700
     42 H21        -4.8730   -3.3090    3.2070 hc        1 AOI      0.049200
     43 H22        -4.3990   -4.5850    2.0190 hc        1 AOI      0.049200
     44 H23        -6.9210   -2.8840    2.0980 hc        1 AOI      0.073700
     45 H24        -6.6500   -4.4850    1.2990 hc        1 AOI      0.073700
     46 H25        -4.3350   -4.7900   -0.2560 hc        1 AOI      0.043367
     47 H26        -4.6010   -3.9230   -1.8310 hc        1 AOI      0.043367
     48 H27        -2.9780   -3.8750   -1.0290 hc        1 AOI      0.043367
     49 H28        -0.0240   -2.3800   -1.2260 hc        1 AOI      0.034367
     50 H29        -0.2380   -3.4740    0.2020 hc        1 AOI      0.034367
     51 H30         1.2960   -2.5430   -0.0040 hc        1 AOI      0.034367
@<TRIPOS>BOND
     1    1    2 1   
     2    1   11 1   
     3    1   22 1   
     4    1   23 1   
     5    2    3 1   
     6    2   24 1   
     7    2   25 1   
     8    3    4 1   
     9    3    5 1   
    10    3   26 1   
    11    4   27 1   
    12    5    6 1   
    13    5   28 1   
    14    5   29 1   
    15    6    7 1   
    16    6   11 1   
    17    6   30 1   
    18    7    8 1   
    19    7   31 1   
    20    7   32 1   
    21    8    9 1   
    22    8   33 1   
    23    8   34 1   
    24    9   10 1   
    25    9   15 1   
    26    9   35 1   
    27   10   11 1   
    28   10   12 1   
    29   10   36 1   
    30   11   21 1   
    31   12   13 1   
    32   12   37 1   
    33   12   38 1   
    34   13   14 1   
    35   13   39 1   
    36   13   40 1   
    37   14   15 1   
    38   14   18 1   
    39   14   20 1   
    40   15   16 1   
    41   15   41 1   
    42   16   17 1   
    43   16   42 1   
    44   16   43 1   
    45   17   18 1   
    46   17   44 1   
    47   17   45 1   
    48   18   19 2   
    49   20   46 1   
    50   20   47 1   
    51   20   48 1   
    52   21   49 1   
    53   21   50 1   
    54   21   51 1   
@<TRIPOS>SUBSTRUCTURE
     1 AOI         1 TEMP              0 ****  ****    0 ROOT
