@<TRIPOS>MOLECULE
AOI
   51    54     1     0     0
SMALL
bcc


@<TRIPOS>ATOM
      1 C1          0.0780   -0.0160    0.0250 c3        1 AOI     -0.069400
      2 C2          1.5710    0.1920    0.1620 c3        1 AOI     -0.109400
      3 C3          2.0500    0.0920    1.6060 c3        1 AOI      0.143100
      4 O3          1.5890    1.1800    2.4010 oh        1 AOI     -0.600800
      5 C4          1.5520   -1.1870    2.2720 c3        1 AOI     -0.067400
      6 C5          0.0510   -1.3460    2.1170 c3        1 AOI     -0.057700
      7 C6         -0.4410   -2.5840    2.8450 c3        1 AOI     -0.072400
      8 C7         -1.9530   -2.6490    2.8140 c3        1 AOI     -0.073400
      9 C8         -2.4750   -2.6100    1.3870 c3        1 AOI     -0.045700
     10 C9         -1.9440   -1.3720    0.6390 c3        1 AOI     -0.049700
     11 C10        -0.4000   -1.3360    0.6430 c3        1 AOI     -0.035000
     12 C11        -2.5320   -1.2560   -0.7630 c3        1 AOI     -0.075400
     13 C12        -4.0490   -1.3670   -0.8140 c3        1 AOI     -0.056400
     14 C13        -4.5180   -2.6140   -0.0880 c3        1 AOI     -0.152000
     15 C14        -3.9870   -2.5340    1.3620 c3        1 AOI     -0.064700
     16 C15        -4.8210   -3.5550    2.1280 c3        1 AOI     -0.072400
     17 C16        -6.2070   -3.4660    1.4820 c3        1 AOI     -0.188400
     18 C17        -6.0170   -2.7630    0.1510 c         1 AOI      0.577100
     19 O17        -6.9190   -2.3970   -0.5970 o         1 AOI     -0.521100
     20 C18        -4.0870   -3.8660   -0.8400 c3        1 AOI     -0.082100
     21 C19         0.1840   -2.4970   -0.1470 c3        1 AOI     -0.085100
     22 H1         -0.1870    0.0060   -1.0640 hc        1 AOI      0.044700
     23 H2         -0.4550    0.8340    0.5290 hc        1 AOI      0.044700
     24 H3          2.1190   -0.5740   -0.4460 hc        1 AOI      0.044200
     25 H4          1.8390    1.2010   -0.2480 hc        1 AOI      0.044200
     26 H5          3.1790    0.1040    1.6180 h1        1 AOI      0.028700
     27 H6          1.7610    1.9860    1.9010 ho        1 AOI      0.398000
     28 H7          1.8030   -1.1440    3.3650 hc        1 AOI      0.051200
     29 H8          2.0960   -2.0590    1.8280 hc        1 AOI      0.051200
     30 H9         -0.4220   -0.4430    2.6070 hc        1 AOI      0.064700
     31 H10        -0.0920   -2.5530    3.9110 hc        1 AOI      0.041700
     32 H11        -0.0060   -3.5050    2.3760 hc        1 AOI      0.041700
     33 H12        -2.3780   -1.7880    3.3940 hc        1 AOI      0.041200
     34 H13        -2.3050   -3.5930    3.3080 hc        1 AOI      0.041200
     35 H14        -2.1390   -3.5440    0.8610 hc        1 AOI      0.055700
     36 H15        -2.2890   -0.4660    1.2190 hc        1 AOI      0.048700
     37 H16        -2.0840   -2.0430   -1.4250 hc        1 AOI      0.042700
     38 H17        -2.2460   -0.2590   -1.1920 hc        1 AOI      0.042700
     39 H18        -4.3860   -1.3990   -1.8830 hc        1 AOI      0.050700
     40 H19        -4.5130   -0.4630   -0.3410 hc        1 AOI      0.050700
     41 H20        -4.2740   -1.5190    1.7700 hc        1 AOI      0.051700
     42 H21        -4.8620   -3.3100    3.2170 hc        1 AOI      0.049200
     43 H22        -4.3950   -4.5830    2.0220 hc        1 AOI      0.049200
     44 H23        -6.9150   -2.8800    2.1190 hc        1 AOI      0.073700
     45 H24        -6.6490   -4.4790    1.3140 hc        1 AOI      0.073700
     46 H25        -4.3430   -4.7820   -0.2530 hc        1 AOI      0.043367
     47 H26        -2.9870   -3.8650   -1.0300 hc        1 AOI      0.043367
     48 H27        -4.6150   -3.9090   -1.8240 hc        1 AOI      0.043367
     49 H28        -0.0330   -2.3730   -1.2360 hc        1 AOI      0.034367
     50 H29        -0.2410   -3.4720    0.1900 hc        1 AOI      0.034367
     51 H30         1.2920   -2.5420   -0.0210 hc        1 AOI      0.034367
@<TRIPOS>BOND
     1    1    2 1   
     2    1   11 1   
     3    1   22 1   
     4    1   23 1   
     5    2    3 1   
     6    2   24 1   
     7    2   25 1   
     8    3    4 1   
     9    3    5 1   
    10    3   26 1   
    11    4   27 1   
    12    5    6 1   
    13    5   28 1   
    14    5   29 1   
    15    6    7 1   
    16    6   11 1   
    17    6   30 1   
    18    7    8 1   
    19    7   31 1   
    20    7   32 1   
    21    8    9 1   
    22    8   33 1   
    23    8   34 1   
    24    9   10 1   
    25    9   15 1   
    26    9   35 1   
    27   10   11 1   
    28   10   12 1   
    29   10   36 1   
    30   11   21 1   
    31   12   13 1   
    32   12   37 1   
    33   12   38 1   
    34   13   14 1   
    35   13   39 1   
    36   13   40 1   
    37   14   15 1   
    38   14   18 1   
    39   14   20 1   
    40   15   16 1   
    41   15   41 1   
    42   16   17 1   
    43   16   42 1   
    44   16   43 1   
    45   17   18 1   
    46   17   44 1   
    47   17   45 1   
    48   18   19 2   
    49   20   46 1   
    50   20   47 1   
    51   20   48 1   
    52   21   49 1   
    53   21   50 1   
    54   21   51 1   
@<TRIPOS>SUBSTRUCTURE
     1 AOI         1 TEMP              0 ****  ****    0 ROOT
