@<TRIPOS>MOLECULE
AOL
   22    22     1     0     0
SMALL
bcc


@<TRIPOS>ATOM
      1 O4          0.3410    0.4930   -0.6650 oh        1 AOL     -0.602300
      2 C4          1.6470    0.1040   -0.3090 c3        1 AOL      0.130100
      3 C3          1.9220    0.0930    1.2100 c3        1 AOL      0.069100
      4 O3          0.6950   -0.2850    1.8100 oh        1 AOL     -0.613800
      5 C2          3.0100   -0.9880    1.4300 c3        1 AOL      0.069100
      6 O2          2.5890   -1.8470    2.4720 oh        1 AOL     -0.613800
      7 C1          3.0850   -1.8210    0.1260 c3        1 AOL      0.130100
      8 O1          3.0240   -3.2160    0.3150 oh        1 AOL     -0.602300
      9 C5          1.8650   -1.3780   -0.7350 c3        1 AOL      0.096500
     10 N5          0.6490   -2.1950   -0.4370 n4        1 AOL     -0.822600
     11 HO4        -0.0140    1.0540    0.0420 ho        1 AOL      0.457000
     12 H4          2.3860    0.7570   -0.8490 h1        1 AOL      0.103700
     13 H3          2.2470    1.0970    1.5890 h1        1 AOL      0.094200
     14 HO3         0.8590   -0.4390    2.7520 ho        1 AOL      0.448500
     15 H2          4.0030   -0.5160    1.6490 h1        1 AOL      0.094200
     16 HO2         3.1740   -1.7120    3.2300 ho        1 AOL      0.448500
     17 H1          4.0260   -1.5770   -0.4430 h1        1 AOL      0.103700
     18 HO1         3.3250   -3.4230    1.2140 ho        1 AOL      0.457000
     19 H5          2.0840   -1.4680   -1.8350 hx        1 AOL      0.131700
     20 HN51       -0.1260   -1.8720   -1.0250 hn        1 AOL      0.473467
     21 HN52        0.3970   -2.0570    0.5550 hn        1 AOL      0.473467
     22 H53         0.8560   -3.1860   -0.6020 hn        1 AOL      0.473467
@<TRIPOS>BOND
     1    1    2 1   
     2    1   11 1   
     3    2    3 1   
     4    2    9 1   
     5    2   12 1   
     6    3    4 1   
     7    3    5 1   
     8    3   13 1   
     9    4   14 1   
    10    5    6 1   
    11    5    7 1   
    12    5   15 1   
    13    6   16 1   
    14    7    8 1   
    15    7    9 1   
    16    7   17 1   
    17    8   18 1   
    18    9   10 1   
    19    9   19 1   
    20   10   20 1   
    21   10   21 1   
    22   10   22 1   
@<TRIPOS>SUBSTRUCTURE
     1 AOL         1 TEMP              0 ****  ****    0 ROOT
