@<TRIPOS>MOLECULE
AOL
   22    22     1     0     0
SMALL
bcc


@<TRIPOS>ATOM
      1 O4          0.2880    0.4720   -0.6100 oh        1 AOL     -0.602300
      2 C4          1.6100    0.0950   -0.3020 c3        1 AOL      0.130100
      3 C3          1.9450    0.1040    1.2050 c3        1 AOL      0.069100
      4 O3          0.7450   -0.2750    1.8580 oh        1 AOL     -0.613800
      5 C2          3.0480   -0.9680    1.3940 c3        1 AOL      0.069100
      6 O2          2.6740   -1.8170    2.4620 oh        1 AOL     -0.613800
      7 C1          3.0760   -1.8170    0.0980 c3        1 AOL      0.130100
      8 O1          3.0300   -3.2100    0.3060 oh        1 AOL     -0.602300
      9 C5          1.8200   -1.3910   -0.7190 c3        1 AOL      0.096500
     10 N5          0.6220   -2.2120   -0.3630 nz        1 AOL     -0.822600
     11 HO4        -0.0410    1.0400    0.1030 ho        1 AOL      0.457000
     12 H4          2.3240    0.7450   -0.8780 h1        1 AOL      0.103700
     13 H3          2.2790    1.1130    1.5590 h1        1 AOL      0.094200
     14 HO3         0.9480   -0.4160    2.7940 ho        1 AOL      0.448500
     15 H2          4.0460   -0.4880    1.5670 h1        1 AOL      0.094200
     16 HO2         3.2880   -1.6700    3.1940 ho        1 AOL      0.448500
     17 H1          3.9920   -1.5750   -0.5100 h1        1 AOL      0.103700
     18 HO1         3.3680   -3.4050    1.1950 ho        1 AOL      0.457000
     19 H5          1.9960   -1.4930   -1.8250 hx        1 AOL      0.131700
     20 HN51        0.8280   -3.2030   -0.5250 hn        1 AOL      0.473467
     21 HN52        0.4080   -2.0630    0.6350 hn        1 AOL      0.473467
     22 H53        -0.1780   -1.9000   -0.9250 hn        1 AOL      0.473467
@<TRIPOS>BOND
     1    1    2 1   
     2    1   11 1   
     3    2    3 1   
     4    2    9 1   
     5    2   12 1   
     6    3    4 1   
     7    3    5 1   
     8    3   13 1   
     9    4   14 1   
    10    5    6 1   
    11    5    7 1   
    12    5   15 1   
    13    6   16 1   
    14    7    8 1   
    15    7    9 1   
    16    7   17 1   
    17    8   18 1   
    18    9   10 1   
    19    9   19 1   
    20   10   20 1   
    21   10   21 1   
    22   10   22 1   
@<TRIPOS>SUBSTRUCTURE
     1 AOL         1 TEMP              0 ****  ****    0 ROOT
