@<TRIPOS>MOLECULE
AOL
   21    21     1     0     0
SMALL
bcc


@<TRIPOS>ATOM
      1 O4         -1.7850    0.9050   -0.6580 oh        1 AOL     -0.591800
      2 C4         -0.3470    0.9050   -0.6580 c3        1 AOL      0.104600
      3 C3          0.2170    0.9050    0.8820 c3        1 AOL      0.095100
      4 O3         -0.6110    1.7130    1.7040 oh        1 AOL     -0.597800
      5 C2          0.1740   -0.3750    1.2980 c3        1 AOL      0.095100
      6 O2         -1.0930   -0.6490    1.9560 oh        1 AOL     -0.597800
      7 C1          0.3030   -1.2270   -0.0050 c3        1 AOL      0.104600
      8 O1         -0.6240   -2.1510   -0.0380 oh        1 AOL     -0.591800
      9 C5          0.1050   -0.1990   -1.2160 c3        1 AOL      0.117500
     10 N5          1.3900    0.0560   -1.8820 n3        1 AOL     -0.908800
     11 HO4        -2.0810    1.6070   -1.1140 ho        1 AOL      0.411500
     12 H4         -0.0100    1.6860   -1.1390 h1        1 AOL      0.101200
     13 H3          1.1350    1.2350    0.9040 h1        1 AOL      0.076200
     14 HO3        -0.1300    2.3740    2.0500 ho        1 AOL      0.423500
     15 H2          0.9180   -0.5610    1.9010 h1        1 AOL      0.076200
     16 HO2        -0.9410   -1.0230    2.7460 ho        1 AOL      0.423500
     17 H1          1.1880   -1.6360   -0.0530 h1        1 AOL      0.101200
     18 HO1        -0.2430   -2.9530   -0.0430 ho        1 AOL      0.411500
     19 H5         -0.5460   -0.5470   -1.8540 h1        1 AOL      0.016700
     20 HN51        1.2680    0.6570   -2.5570 hn        1 AOL      0.363800
     21 HN52        1.7150   -0.7240   -2.2240 hn        1 AOL      0.363800
@<TRIPOS>BOND
     1    1    2 1   
     2    1   11 1   
     3    2    3 1   
     4    2    9 1   
     5    2   12 1   
     6    3    4 1   
     7    3    5 1   
     8    3   13 1   
     9    4   14 1   
    10    5    6 1   
    11    5    7 1   
    12    5   15 1   
    13    6   16 1   
    14    7    8 1   
    15    7    9 1   
    16    7   17 1   
    17    8   18 1   
    18    9   10 1   
    19    9   19 1   
    20   10   20 1   
    21   10   21 1   
@<TRIPOS>SUBSTRUCTURE
     1 AOL         1 TEMP              0 ****  ****    0 ROOT
