@<TRIPOS>MOLECULE
AOL
   21    21     1     0     0
SMALL
bcc


@<TRIPOS>ATOM
      1 O4          1.1680   -1.0380    0.9910 oh        1 AOL     -0.609300
      2 C4          0.9590   -0.7900   -0.3840 c3        1 AOL      0.103600
      3 C3         -0.4520   -1.2400   -0.8220 c3        1 AOL      0.075600
      4 O3         -1.0110   -2.2490   -0.0140 oh        1 AOL     -0.603300
      5 C2         -1.3410    0.0290   -0.8090 c3        1 AOL      0.075600
      6 O2         -2.4030   -0.0460    0.1200 oh        1 AOL     -0.603300
      7 C1         -0.4320    1.2100   -0.3870 c3        1 AOL      0.103600
      8 O1         -0.5040    1.4420    1.0100 oh        1 AOL     -0.609300
      9 C5          1.0080    0.7280   -0.7210 c3        1 AOL      0.137500
     10 N5          2.0690    1.4940   -0.1180 n3        1 AOL     -0.886800
     11 HO4         0.6490   -0.3870    1.4890 ho        1 AOL      0.430000
     12 H4          1.7610   -1.3730   -0.9070 h1        1 AOL      0.079200
     13 H3         -0.4200   -1.6790   -1.8560 h1        1 AOL      0.070200
     14 HO3        -0.6670   -2.1470    0.8850 ho        1 AOL      0.429000
     15 H2         -1.7680    0.2130   -1.8310 h1        1 AOL      0.070200
     16 HO2        -2.7120   -0.9640    0.1380 ho        1 AOL      0.429000
     17 H1         -0.6950    2.1480   -0.9400 h1        1 AOL      0.079200
     18 HO1        -1.4400    1.5370    1.2370 ho        1 AOL      0.430000
     19 H5          1.1380    0.8180   -1.8410 h1        1 AOL      0.072700
     20 HN51        1.8010    1.8170    0.7930 hn        1 AOL      0.362800
     21 HN52        2.8900    0.9250   -0.0300 hn        1 AOL      0.362800
@<TRIPOS>BOND
     1    1    2 1   
     2    1   11 1   
     3    2    3 1   
     4    2    9 1   
     5    2   12 1   
     6    3    4 1   
     7    3    5 1   
     8    3   13 1   
     9    4   14 1   
    10    5    6 1   
    11    5    7 1   
    12    5   15 1   
    13    6   16 1   
    14    7    8 1   
    15    7    9 1   
    16    7   17 1   
    17    8   18 1   
    18    9   10 1   
    19    9   19 1   
    20   10   20 1   
    21   10   21 1   
@<TRIPOS>SUBSTRUCTURE
     1 AOL         1 TEMP              0 ****  ****    0 ROOT
