@<TRIPOS>MOLECULE
AOL
   22    22     1     0     0
SMALL
bcc


@<TRIPOS>ATOM
      1 O4          0.2960    0.4830   -0.6080 oh        1 AOL     -0.602300
      2 C4          1.6160    0.1010   -0.2970 c3        1 AOL      0.130100
      3 C3          1.9440    0.1000    1.2120 c3        1 AOL      0.069100
      4 O3          0.7410   -0.2810    1.8570 oh        1 AOL     -0.613800
      5 C2          3.0440   -0.9760    1.3990 c3        1 AOL      0.069100
      6 O2          2.6630   -1.8320    2.4590 oh        1 AOL     -0.613800
      7 C1          3.0760   -1.8160    0.0970 c3        1 AOL      0.130100
      8 O1          3.0280   -3.2100    0.2960 oh        1 AOL     -0.602300
      9 C5          1.8250   -1.3820   -0.7220 c3        1 AOL      0.096500
     10 N5          0.6230   -2.2030   -0.3770 n4        1 AOL     -0.822600
     11 HO4        -0.0360    1.0460    0.1080 ho        1 AOL      0.457000
     12 H4          2.3330    0.7540   -0.8660 h1        1 AOL      0.103700
     13 H3          2.2790    1.1060    1.5730 h1        1 AOL      0.094200
     14 HO3         0.9390   -0.4280    2.7940 ho        1 AOL      0.448500
     15 H2          4.0420   -0.5000    1.5800 h1        1 AOL      0.094200
     16 HO2         3.2740   -1.6910    3.1950 ho        1 AOL      0.448500
     17 H1          3.9960   -1.5710   -0.5050 h1        1 AOL      0.103700
     18 HO1         3.3610   -3.4110    1.1850 ho        1 AOL      0.457000
     19 H5          2.0050   -1.4780   -1.8290 hx        1 AOL      0.131700
     20 HN51       -0.1730   -1.8860   -0.9390 hn        1 AOL      0.473467
     21 HN52        0.8280   -3.1940   -0.5440 hn        1 AOL      0.473467
     22 H53         0.4060   -2.0600    0.6220 hn        1 AOL      0.473467
@<TRIPOS>BOND
     1    1    2 1   
     2    1   11 1   
     3    2    3 1   
     4    2    9 1   
     5    2   12 1   
     6    3    4 1   
     7    3    5 1   
     8    3   13 1   
     9    4   14 1   
    10    5    6 1   
    11    5    7 1   
    12    5   15 1   
    13    6   16 1   
    14    7    8 1   
    15    7    9 1   
    16    7   17 1   
    17    8   18 1   
    18    9   10 1   
    19    9   19 1   
    20   10   20 1   
    21   10   21 1   
    22   10   22 1   
@<TRIPOS>SUBSTRUCTURE
     1 AOL         1 TEMP              0 ****  ****    0 ROOT
