@<TRIPOS>MOLECULE
AOM
   53    56     1     0     0
SMALL
bcc


@<TRIPOS>ATOM
      1 C1          1.4810   -0.5390   -2.4160 c3        1 AOM     -0.068400
      2 C10         0.3780    0.1610   -1.6110 c3        1 AOM     -0.036000
      3 C11         1.7180   -0.1410    0.5430 c3        1 AOM     -0.075400
      4 C12         1.7350   -0.6020    1.9930 c3        1 AOM     -0.063400
      5 C13         0.5750    0.0030    2.7630 c3        1 AOM     -0.044000
      6 C14        -0.7270   -0.4070    2.0360 c3        1 AOM     -0.066700
      7 C15        -1.8310   -0.1120    3.0430 c3        1 AOM     -0.068400
      8 C16        -1.1980   -0.4080    4.4050 c3        1 AOM     -0.117400
      9 C17         0.3170   -0.5990    4.1670 c3        1 AOM      0.141100
     10 C18         0.7530    1.5050    2.9020 c3        1 AOM     -0.076100
     11 C19         0.6120    1.6630   -1.6520 c3        1 AOM     -0.086100
     12 C2          1.4130   -0.2390   -3.8970 c3        1 AOM     -0.112400
     13 C3          0.0430   -0.5720   -4.4800 c3        1 AOM      0.142100
     14 C4         -1.0710    0.1220   -3.7030 c3        1 AOM     -0.071400
     15 C5         -0.9780   -0.2340   -2.2310 c3        1 AOM     -0.055700
     16 C6         -2.1420    0.3590   -1.4560 c3        1 AOM     -0.072400
     17 C7         -2.1200   -0.1220   -0.0210 c3        1 AOM     -0.073400
     18 C8         -0.7940    0.1980    0.6490 c3        1 AOM     -0.047700
     19 C9          0.3850   -0.3710   -0.1610 c3        1 AOM     -0.048700
     20 O3         -0.0620   -0.1220   -5.8260 oh        1 AOM     -0.600800
     21 O17         1.1040    0.0720    5.1330 oh        1 AOM     -0.591800
     22 HC11        1.4000   -1.6470   -2.2570 hc        1 AOM      0.042200
     23 HC12        2.4830   -0.2130   -2.0330 hc        1 AOM      0.042200
     24 H111        1.9830    0.9470    0.5020 hc        1 AOM      0.042200
     25 H112        2.5200   -0.7010   -0.0070 hc        1 AOM      0.042200
     26 H121        2.7040   -0.2990    2.4670 hc        1 AOM      0.043700
     27 H122        1.6720   -1.7210    2.0340 hc        1 AOM      0.043700
     28 H14C       -0.7010   -1.5300    1.9060 hc        1 AOM      0.044700
     29 H151       -2.1550    0.9560    2.9780 hc        1 AOM      0.044700
     30 H152       -2.7270   -0.7530    2.8600 hc        1 AOM      0.044700
     31 H161       -1.3670    0.4420    5.1120 hc        1 AOM      0.047200
     32 H162       -1.6370   -1.3290    4.8570 hc        1 AOM      0.047200
     33 H17C        0.5800   -1.6930    4.1710 h1        1 AOM      0.033700
     34 H181        0.8580    2.0010    1.9080 hc        1 AOM      0.040367
     35 H182       -0.1240    1.9480    3.4330 hc        1 AOM      0.040367
     36 H183        1.6710    1.7150    3.5040 hc        1 AOM      0.040367
     37 H191        0.4850    2.0540   -2.6900 hc        1 AOM      0.037367
     38 H192       -0.1020    2.2040   -0.9880 hc        1 AOM      0.037367
     39 H193        1.6520    1.9010   -1.3200 hc        1 AOM      0.037367
     40 HC21        2.1970   -0.8360   -4.4330 hc        1 AOM      0.045700
     41 HC22        1.6340    0.8450   -4.0830 hc        1 AOM      0.045700
     42 HC3        -0.1140   -1.6880   -4.4550 h1        1 AOM      0.030700
     43 HC41       -2.0610   -0.2110   -4.1120 hc        1 AOM      0.055700
     44 HC42       -1.0050    1.2290   -3.8570 hc        1 AOM      0.055700
     45 HC5        -1.0540   -1.3590   -2.1520 hc        1 AOM      0.044700
     46 HC61       -3.1060    0.0510   -1.9390 hc        1 AOM      0.042700
     47 HC62       -2.0940    1.4780   -1.4900 hc        1 AOM      0.042700
     48 HC71       -2.2980   -1.2300    0.0060 hc        1 AOM      0.039700
     49 HC72       -2.9500    0.3640    0.5560 hc        1 AOM      0.039700
     50 HC8        -0.6960    1.3150    0.7240 hc        1 AOM      0.058700
     51 HC9         0.2330   -1.4880   -0.2250 hc        1 AOM      0.042700
     52 HO3         0.6870   -0.4960   -6.3030 ho        1 AOM      0.398000
     53 HO17        0.8420   -0.2830    5.9910 ho        1 AOM      0.398000
@<TRIPOS>BOND
     1    1    2 1   
     2    1   12 1   
     3    1   22 1   
     4    1   23 1   
     5    2   11 1   
     6    2   15 1   
     7    2   19 1   
     8    3    4 1   
     9    3   19 1   
    10    3   24 1   
    11    3   25 1   
    12    4    5 1   
    13    4   26 1   
    14    4   27 1   
    15    5    6 1   
    16    5    9 1   
    17    5   10 1   
    18    6    7 1   
    19    6   18 1   
    20    6   28 1   
    21    7    8 1   
    22    7   29 1   
    23    7   30 1   
    24    8    9 1   
    25    8   31 1   
    26    8   32 1   
    27    9   21 1   
    28    9   33 1   
    29   10   34 1   
    30   10   35 1   
    31   10   36 1   
    32   11   37 1   
    33   11   38 1   
    34   11   39 1   
    35   12   13 1   
    36   12   40 1   
    37   12   41 1   
    38   13   14 1   
    39   13   20 1   
    40   13   42 1   
    41   14   15 1   
    42   14   43 1   
    43   14   44 1   
    44   15   16 1   
    45   15   45 1   
    46   16   17 1   
    47   16   46 1   
    48   16   47 1   
    49   17   18 1   
    50   17   48 1   
    51   17   49 1   
    52   18   19 1   
    53   18   50 1   
    54   19   51 1   
    55   20   52 1   
    56   21   53 1   
@<TRIPOS>SUBSTRUCTURE
     1 AOM         1 TEMP              0 ****  ****    0 ROOT
