@<TRIPOS>MOLECULE
AOM
   53    56     1     0     0
SMALL
bcc


@<TRIPOS>ATOM
      1 C1         -2.6540    0.7980    0.9120 c3        1 AOM     -0.068400
      2 C10        -1.1200    0.7980    0.9120 c3        1 AOM     -0.036000
      3 C11        -1.1870   -0.3150   -1.4070 c3        1 AOM     -0.073400
      4 C12        -0.5730   -1.5070   -2.3380 c3        1 AOM     -0.065400
      5 C13         0.9600   -1.5020   -2.3280 c3        1 AOM     -0.092000
      6 C14         1.6020   -1.4850   -0.7880 c3        1 AOM     -0.059700
      7 C15         2.8960   -1.3990   -1.0380 c3        1 AOM     -0.073400
      8 C16         3.0650   -2.4480   -2.2740 c3        1 AOM     -0.078400
      9 C17         1.4900   -2.5660   -2.8200 c3        1 AOM      0.143100
     10 C18         1.4600   -0.2950   -3.0910 c3        1 AOM     -0.078100
     11 C19        -0.6830    2.0920    0.2580 c3        1 AOM     -0.086100
     12 C2         -3.2420    1.9450    1.8040 c3        1 AOM     -0.112400
     13 C3         -2.6470    1.9480    3.2360 c3        1 AOM      0.142100
     14 C4         -1.0640    1.9230    3.2360 c3        1 AOM     -0.071400
     15 C5         -0.5130    0.7980    2.3790 c3        1 AOM     -0.055700
     16 C6          1.0470    0.7950    2.3810 c3        1 AOM     -0.072400
     17 C7          1.6450   -0.3670    1.4660 c3        1 AOM     -0.073400
     18 C8          1.0540   -0.3500    0.0600 c3        1 AOM     -0.047700
     19 C9         -0.5680   -0.3280    0.0660 c3        1 AOM     -0.048700
     20 O3         -3.0720    3.0730    3.8890 oh        1 AOM     -0.600800
     21 O17         1.4440   -2.5450   -4.2400 oh        1 AOM     -0.593800
     22 HC11       -2.9710    0.9150   -0.0040 hc        1 AOM      0.041700
     23 HC12       -2.9710   -0.0610    1.2500 hc        1 AOM      0.041700
     24 H111       -0.9940    0.5460   -1.8250 hc        1 AOM      0.042700
     25 H112       -2.1550   -0.4270   -1.3460 hc        1 AOM      0.042700
     26 H121       -0.8910   -2.3670   -2.0030 hc        1 AOM      0.038700
     27 H122       -0.8860   -1.3870   -3.2550 hc        1 AOM      0.038700
     28 H14C        1.4130   -2.3370   -0.3490 hc        1 AOM      0.045700
     29 H151        3.1380   -0.4940   -1.3130 hc        1 AOM      0.045200
     30 H152        3.4200   -1.6840   -0.2660 hc        1 AOM      0.045200
     31 H161        3.6480   -2.0820   -2.9660 hc        1 AOM      0.056200
     32 H162        3.3910   -3.3120   -1.9580 hc        1 AOM      0.056200
     33 H17C        1.0580   -3.3660   -2.4670 h1        1 AOM      0.033700
     34 H181        1.2210    0.5180   -2.6070 hc        1 AOM      0.038700
     35 H182        2.4300   -0.3460   -3.1820 hc        1 AOM      0.038700
     36 H183        1.0510   -0.2780   -3.9780 hc        1 AOM      0.038700
     37 H191       -1.1850    2.2250   -0.5690 hc        1 AOM      0.037033
     38 H192       -0.8530    2.8380    0.8650 hc        1 AOM      0.037033
     39 H193        0.2710    2.0490    0.0550 hc        1 AOM      0.037033
     40 HC21       -4.2100    1.8320    1.8650 hc        1 AOM      0.045700
     41 HC22       -3.0510    2.8030    1.3810 hc        1 AOM      0.045700
     42 HC3        -2.9750    1.1630    3.7150 h1        1 AOM      0.030700
     43 HC41       -0.7340    2.7750    2.8920 hc        1 AOM      0.055700
     44 HC42       -0.7490    1.8070    4.1530 hc        1 AOM      0.055700
     45 HC5        -0.7950   -0.0370    2.7980 hc        1 AOM      0.045700
     46 HC61        1.3620    0.6720    3.2970 hc        1 AOM      0.043200
     47 HC62        1.3660    1.6560    2.0490 hc        1 AOM      0.043200
     48 HC71        1.4500   -1.2290    1.8820 hc        1 AOM      0.041200
     49 HC72        2.6130   -0.2560    1.4050 hc        1 AOM      0.041200
     50 HC8         1.3460    0.4820   -0.3580 hc        1 AOM      0.057700
     51 HC9        -0.8580   -1.1610    0.4850 hc        1 AOM      0.043700
     52 HO3        -3.5160    2.8400    4.6220 ho        1 AOM      0.398000
     53 HO17        1.2760   -3.3620   -4.5430 ho        1 AOM      0.400000
@<TRIPOS>BOND
     1    1    2 1   
     2    1   12 1   
     3    1   22 1   
     4    1   23 1   
     5    2   11 1   
     6    2   15 1   
     7    2   19 1   
     8    3    4 1   
     9    3   19 1   
    10    3   24 1   
    11    3   25 1   
    12    4    5 1   
    13    4   26 1   
    14    4   27 1   
    15    5    6 1   
    16    5    9 1   
    17    5   10 1   
    18    6    7 1   
    19    6   18 1   
    20    6   28 1   
    21    7    8 1   
    22    7   29 1   
    23    7   30 1   
    24    8    9 1   
    25    8   31 1   
    26    8   32 1   
    27    9   21 1   
    28    9   33 1   
    29   10   34 1   
    30   10   35 1   
    31   10   36 1   
    32   11   37 1   
    33   11   38 1   
    34   11   39 1   
    35   12   13 1   
    36   12   40 1   
    37   12   41 1   
    38   13   14 1   
    39   13   20 1   
    40   13   42 1   
    41   14   15 1   
    42   14   43 1   
    43   14   44 1   
    44   15   16 1   
    45   15   45 1   
    46   16   17 1   
    47   16   46 1   
    48   16   47 1   
    49   17   18 1   
    50   17   48 1   
    51   17   49 1   
    52   18   19 1   
    53   18   50 1   
    54   19   51 1   
    55   20   52 1   
    56   21   53 1   
@<TRIPOS>SUBSTRUCTURE
     1 AOM         1 TEMP              0 ****  ****    0 ROOT
