@<TRIPOS>MOLECULE
AOM
   53    56     1     0     0
SMALL
bcc


@<TRIPOS>ATOM
      1 C1         -0.0060    0.0870    0.0340 c3        1 AOM     -0.068400
      2 C10         1.5250    0.1550   -0.0520 c3        1 AOM     -0.036000
      3 C11         1.4900   -1.1600   -2.2420 c3        1 AOM     -0.075400
      4 C12         2.0360   -2.3280   -3.0490 c3        1 AOM     -0.063400
      5 C13         3.5550   -2.3240   -3.0390 c3        1 AOM     -0.044000
      6 C14         4.0080   -2.3740   -1.5610 c3        1 AOM     -0.066700
      7 C15         5.4810   -2.7540   -1.6310 c3        1 AOM     -0.068400
      8 C16         5.5800   -3.6890   -2.8390 c3        1 AOM     -0.117400
      9 C17         4.2310   -3.6070   -3.5860 c3        1 AOM      0.141100
     10 C18         4.0900   -1.1260   -3.8050 c3        1 AOM     -0.076100
     11 C19         1.9250    1.4540   -0.7340 c3        1 AOM     -0.086100
     12 C2         -0.5940    1.1330    0.9550 c3        1 AOM     -0.112400
     13 C3          0.0150    1.0650    2.3510 c3        1 AOM      0.142100
     14 C4          1.5380    1.1430    2.2950 c3        1 AOM     -0.071400
     15 C5          2.0800    0.0570    1.3840 c3        1 AOM     -0.055700
     16 C6          3.5990    0.0470    1.3970 c3        1 AOM     -0.072400
     17 C7          4.1260   -1.1300    0.6050 c3        1 AOM     -0.073400
     18 C8          3.5890   -1.1230   -0.8170 c3        1 AOM     -0.047700
     19 C9          2.0500   -1.0730   -0.8260 c3        1 AOM     -0.048700
     20 O3         -0.4150    2.1610    3.1510 oh        1 AOM     -0.600800
     21 O17         4.3950   -3.5060   -4.9890 oh        1 AOM     -0.591800
     22 HC11       -0.4420    0.2300   -0.9900 hc        1 AOM      0.042200
     23 HC12       -0.3050   -0.9340    0.3920 hc        1 AOM      0.042200
     24 H111        0.3740   -1.2710   -2.1830 hc        1 AOM      0.042200
     25 H112        1.7010   -0.2050   -2.7900 hc        1 AOM      0.042200
     26 H121        1.6640   -2.2570   -4.1040 hc        1 AOM      0.043700
     27 H122        1.6590   -3.2930   -2.6200 hc        1 AOM      0.043700
     28 H14C        3.4730   -3.2430   -1.0740 hc        1 AOM      0.044700
     29 H151        6.1200   -1.8480   -1.7760 hc        1 AOM      0.044700
     30 H152        5.8130   -3.2600   -0.6930 hc        1 AOM      0.044700
     31 H161        6.4100   -3.3720   -3.5170 hc        1 AOM      0.047200
     32 H162        5.7780   -4.7390   -2.5140 hc        1 AOM      0.047200
     33 H17C        3.5960   -4.5060   -3.3520 h1        1 AOM      0.033700
     34 H181        3.6980   -0.1670   -3.3940 hc        1 AOM      0.040367
     35 H182        5.2050   -1.1080   -3.7590 hc        1 AOM      0.040367
     36 H183        3.7840   -1.2060   -4.8770 hc        1 AOM      0.040367
     37 H191        1.4000    1.5530   -1.7150 hc        1 AOM      0.037367
     38 H192        1.6450    2.3330   -0.1040 hc        1 AOM      0.037367
     39 H193        3.0240    1.4950   -0.9170 hc        1 AOM      0.037367
     40 HC21       -1.7030    0.9820    1.0280 hc        1 AOM      0.045700
     41 HC22       -0.4250    2.1590    0.5340 hc        1 AOM      0.045700
     42 HC3        -0.2980    0.1040    2.8510 h1        1 AOM      0.030700
     43 HC41        1.9480    1.0100    3.3290 hc        1 AOM      0.055700
     44 HC42        1.8500    2.1590    1.9430 hc        1 AOM      0.055700
     45 HC5         1.7300   -0.9350    1.7980 hc        1 AOM      0.044700
     46 HC61        3.9610   -0.0240    2.4570 hc        1 AOM      0.042700
     47 HC62        3.9920    1.0070    0.9730 hc        1 AOM      0.042700
     48 HC71        3.8330   -2.0870    1.1120 hc        1 AOM      0.039700
     49 HC72        5.2470   -1.0960    0.5740 hc        1 AOM      0.039700
     50 HC8         3.9990   -0.2200   -1.3460 hc        1 AOM      0.058700
     51 HC9         1.6880   -1.9870   -0.2700 hc        1 AOM      0.042700
     52 HO3        -1.3790    2.1620    3.1250 ho        1 AOM      0.398000
     53 HO17        4.8930   -4.2870   -5.2600 ho        1 AOM      0.398000
@<TRIPOS>BOND
     1    1    2 1   
     2    1   12 1   
     3    1   22 1   
     4    1   23 1   
     5    2   11 1   
     6    2   15 1   
     7    2   19 1   
     8    3    4 1   
     9    3   19 1   
    10    3   24 1   
    11    3   25 1   
    12    4    5 1   
    13    4   26 1   
    14    4   27 1   
    15    5    6 1   
    16    5    9 1   
    17    5   10 1   
    18    6    7 1   
    19    6   18 1   
    20    6   28 1   
    21    7    8 1   
    22    7   29 1   
    23    7   30 1   
    24    8    9 1   
    25    8   31 1   
    26    8   32 1   
    27    9   21 1   
    28    9   33 1   
    29   10   34 1   
    30   10   35 1   
    31   10   36 1   
    32   11   37 1   
    33   11   38 1   
    34   11   39 1   
    35   12   13 1   
    36   12   40 1   
    37   12   41 1   
    38   13   14 1   
    39   13   20 1   
    40   13   42 1   
    41   14   15 1   
    42   14   43 1   
    43   14   44 1   
    44   15   16 1   
    45   15   45 1   
    46   16   17 1   
    47   16   46 1   
    48   16   47 1   
    49   17   18 1   
    50   17   48 1   
    51   17   49 1   
    52   18   19 1   
    53   18   50 1   
    54   19   51 1   
    55   20   52 1   
    56   21   53 1   
@<TRIPOS>SUBSTRUCTURE
     1 AOM         1 TEMP              0 ****  ****    0 ROOT
