@<TRIPOS>MOLECULE
AOM
   53    56     1     0     0
SMALL
bcc


@<TRIPOS>ATOM
      1 C1          0.0060    0.1000    0.0550 c3        1 AOM     -0.068400
      2 C10         1.5370    0.1600   -0.0420 c3        1 AOM     -0.036000
      3 C11         1.4790   -1.1510   -2.2340 c3        1 AOM     -0.075400
      4 C12         2.0130   -2.3190   -3.0490 c3        1 AOM     -0.063400
      5 C13         3.5310   -2.3250   -3.0490 c3        1 AOM     -0.044000
      6 C14         3.9940   -2.3810   -1.5740 c3        1 AOM     -0.066700
      7 C15         5.4650   -2.7690   -1.6550 c3        1 AOM     -0.068400
      8 C16         5.5500   -3.7020   -2.8650 c3        1 AOM     -0.117400
      9 C17         4.1960   -3.6100   -3.6030 c3        1 AOM      0.141100
     10 C18         4.0680   -1.1280   -3.8160 c3        1 AOM     -0.076100
     11 C19         1.9390    1.4580   -0.7240 c3        1 AOM     -0.086100
     12 C2         -0.5690    1.1480    0.9820 c3        1 AOM     -0.112400
     13 C3          0.0490    1.0730    2.3730 c3        1 AOM      0.142100
     14 C4          1.5710    1.1420    2.3060 c3        1 AOM     -0.071400
     15 C5          2.1010    0.0550    1.3890 c3        1 AOM     -0.055700
     16 C6          3.6200    0.0360    1.3930 c3        1 AOM     -0.072400
     17 C7          4.1350   -1.1420    0.5930 c3        1 AOM     -0.073400
     18 C8          3.5880   -1.1290   -0.8250 c3        1 AOM     -0.047700
     19 C9          2.0490   -1.0690   -0.8230 c3        1 AOM     -0.048700
     20 O3         -0.3690    2.1700    3.1780 oh        1 AOM     -0.600800
     21 O17         4.3520   -3.5070   -5.0070 oh        1 AOM     -0.591800
     22 HC11       -0.4360    0.2470   -0.9660 hc        1 AOM      0.042200
     23 HC12       -0.2960   -0.9200    0.4120 hc        1 AOM      0.042200
     24 H111        1.6920   -0.1950   -2.7820 hc        1 AOM      0.042200
     25 H112        0.3630   -1.2560   -2.1690 hc        1 AOM      0.042200
     26 H121        1.6330   -2.2440   -4.1000 hc        1 AOM      0.043700
     27 H122        1.6330   -3.2830   -2.6190 hc        1 AOM      0.043700
     28 H14C        3.4580   -3.2480   -1.0850 hc        1 AOM      0.044700
     29 H151        5.8000   -3.2790   -0.7200 hc        1 AOM      0.044700
     30 H152        6.1090   -1.8660   -1.8020 hc        1 AOM      0.044700
     31 H161        6.3780   -3.3880   -3.5490 hc        1 AOM      0.047200
     32 H162        5.7440   -4.7540   -2.5450 hc        1 AOM      0.047200
     33 H17C        3.5580   -4.5060   -3.3670 h1        1 AOM      0.033700
     34 H181        3.7550   -1.2040   -4.8860 hc        1 AOM      0.040367
     35 H182        3.6850   -0.1670   -3.4000 hc        1 AOM      0.040367
     36 H183        5.1840   -1.1170   -3.7770 hc        1 AOM      0.040367
     37 H191        1.4080    1.5620   -1.7010 hc        1 AOM      0.037367
     38 H192        3.0380    1.4920   -0.9150 hc        1 AOM      0.037367
     39 H193        1.6690    2.3370   -0.0900 hc        1 AOM      0.037367
     40 HC21       -0.3970    2.1730    0.5610 hc        1 AOM      0.045700
     41 HC22       -1.6790    1.0020    1.0620 hc        1 AOM      0.045700
     42 HC3        -0.2660    0.1120    2.8730 h1        1 AOM      0.030700
     43 HC41        1.8870    2.1570    1.9550 hc        1 AOM      0.055700
     44 HC42        1.9880    1.0040    3.3380 hc        1 AOM      0.055700
     45 HC5         1.7480   -0.9360    1.8040 hc        1 AOM      0.044700
     46 HC61        3.9890   -0.0390    2.4490 hc        1 AOM      0.042700
     47 HC62        4.0150    0.9950    0.9670 hc        1 AOM      0.042700
     48 HC71        5.2550   -1.1150    0.5550 hc        1 AOM      0.039700
     49 HC72        3.8400   -2.0980    1.1010 hc        1 AOM      0.039700
     50 HC8         4.0000   -0.2270   -1.3540 hc        1 AOM      0.058700
     51 HC9         1.6860   -1.9830   -0.2660 hc        1 AOM      0.042700
     52 HO3        -1.3330    2.1760    3.1590 ho        1 AOM      0.398000
     53 HO17        4.8430   -4.2900   -5.2830 ho        1 AOM      0.398000
@<TRIPOS>BOND
     1    1    2 1   
     2    1   12 1   
     3    1   22 1   
     4    1   23 1   
     5    2   11 1   
     6    2   15 1   
     7    2   19 1   
     8    3    4 1   
     9    3   19 1   
    10    3   24 1   
    11    3   25 1   
    12    4    5 1   
    13    4   26 1   
    14    4   27 1   
    15    5    6 1   
    16    5    9 1   
    17    5   10 1   
    18    6    7 1   
    19    6   18 1   
    20    6   28 1   
    21    7    8 1   
    22    7   29 1   
    23    7   30 1   
    24    8    9 1   
    25    8   31 1   
    26    8   32 1   
    27    9   21 1   
    28    9   33 1   
    29   10   34 1   
    30   10   35 1   
    31   10   36 1   
    32   11   37 1   
    33   11   38 1   
    34   11   39 1   
    35   12   13 1   
    36   12   40 1   
    37   12   41 1   
    38   13   14 1   
    39   13   20 1   
    40   13   42 1   
    41   14   15 1   
    42   14   43 1   
    43   14   44 1   
    44   15   16 1   
    45   15   45 1   
    46   16   17 1   
    47   16   46 1   
    48   16   47 1   
    49   17   18 1   
    50   17   48 1   
    51   17   49 1   
    52   18   19 1   
    53   18   50 1   
    54   19   51 1   
    55   20   52 1   
    56   21   53 1   
@<TRIPOS>SUBSTRUCTURE
     1 AOM         1 TEMP              0 ****  ****    0 ROOT
