@<TRIPOS>MOLECULE
AON
   53    56     1     0     0
SMALL
bcc


@<TRIPOS>ATOM
      1 C1         -0.0010    0.0910    0.0340 c3        1 AON     -0.068400
      2 C10         1.5300    0.1560   -0.0540 c3        1 AON     -0.036000
      3 C11         1.4910   -1.1470   -2.2520 c3        1 AON     -0.074400
      4 C12         2.0260   -2.3190   -3.0610 c3        1 AON     -0.059400
      5 C13         3.5440   -2.3300   -3.0530 c3        1 AON     -0.043000
      6 C14         4.0020   -2.3760   -1.5780 c3        1 AON     -0.065700
      7 C15         5.4740   -2.7570   -1.6530 c3        1 AON     -0.069400
      8 C16         5.5570   -3.7190   -2.8410 c3        1 AON     -0.114400
      9 C17         4.2350   -3.5920   -3.6320 c3        1 AON      0.141100
     10 C18         4.0870   -1.1380   -3.8260 c3        1 AON     -0.088100
     11 C19         1.9320    1.4570   -0.7310 c3        1 AON     -0.086100
     12 C2         -0.5840    1.1340    0.9610 c3        1 AON     -0.112400
     13 C3          0.0270    1.0570    2.3560 c3        1 AON      0.142100
     14 C4          1.5490    1.1310    2.2970 c3        1 AON     -0.071400
     15 C5          2.0870    0.0480    1.3790 c3        1 AON     -0.055700
     16 C6          3.6060    0.0340    1.3910 c3        1 AON     -0.072400
     17 C7          4.1280   -1.1400    0.5910 c3        1 AON     -0.073400
     18 C8          3.5890   -1.1260   -0.8300 c3        1 AON     -0.047700
     19 C9          2.0510   -1.0700   -0.8370 c3        1 AON     -0.049700
     20 O3         -0.3990    2.1500    3.1610 oh        1 AON     -0.601800
     21 O17         3.3860   -4.7100   -3.4280 oh        1 AON     -0.595800
     22 HC11       -0.3010   -0.9310    0.3860 hc        1 AON      0.042700
     23 HC12       -0.4380    0.2400   -0.9890 hc        1 AON      0.042700
     24 H111        0.3740   -1.2480   -2.1960 hc        1 AON      0.039200
     25 H112        1.7110   -0.1920   -2.7970 hc        1 AON      0.039200
     26 H121        1.6500   -2.2450   -4.1140 hc        1 AON      0.051200
     27 H122        1.6470   -3.2850   -2.6350 hc        1 AON      0.051200
     28 H14C        3.4670   -3.2500   -1.0980 hc        1 AON      0.060700
     29 H151        5.8150   -3.2450   -0.7080 hc        1 AON      0.043200
     30 H152        6.1140   -1.8560   -1.8230 hc        1 AON      0.043200
     31 H161        6.4220   -3.4590   -3.4980 hc        1 AON      0.045700
     32 H162        5.6920   -4.7700   -2.4860 hc        1 AON      0.045700
     33 H17C        4.4320   -3.4810   -4.7320 h1        1 AON      0.036700
     34 H181        3.7160   -0.1760   -3.4030 hc        1 AON      0.036700
     35 H182        3.7590   -1.2000   -4.8930 hc        1 AON      0.036700
     36 H183        5.2040   -1.1290   -3.7960 hc        1 AON      0.036700
     37 H191        1.4060    1.5620   -1.7110 hc        1 AON      0.036367
     38 H192        1.6560    2.3330   -0.0960 hc        1 AON      0.036367
     39 H193        3.0320    1.4960   -0.9150 hc        1 AON      0.036367
     40 HC21       -1.6940    0.9850    1.0350 hc        1 AON      0.045700
     41 HC22       -0.4130    2.1610    0.5450 hc        1 AON      0.045700
     42 HC3        -0.2870    0.0940    2.8510 h1        1 AON      0.030700
     43 HC41        1.9610    0.9920    3.3300 hc        1 AON      0.055700
     44 HC42        1.8640    2.1480    1.9500 hc        1 AON      0.055700
     45 HC5         1.7350   -0.9450    1.7900 hc        1 AON      0.045700
     46 HC61        3.9700   -0.0430    2.4490 hc        1 AON      0.042200
     47 HC62        4.0010    0.9950    0.9700 hc        1 AON      0.042200
     48 HC71        3.8330   -2.0990    1.0950 hc        1 AON      0.040200
     49 HC72        5.2490   -1.1100    0.5590 hc        1 AON      0.040200
     50 HC8         4.0020   -0.2220   -1.3550 hc        1 AON      0.053700
     51 HC9         1.6860   -1.9860   -0.2860 hc        1 AON      0.046700
     52 HO3        -1.3630    2.1520    3.1390 ho        1 AON      0.397000
     53 HO17        3.8830   -5.4880   -3.7080 ho        1 AON      0.397000
@<TRIPOS>BOND
     1    1    2 1   
     2    1   12 1   
     3    1   22 1   
     4    1   23 1   
     5    2   11 1   
     6    2   15 1   
     7    2   19 1   
     8    3    4 1   
     9    3   19 1   
    10    3   24 1   
    11    3   25 1   
    12    4    5 1   
    13    4   26 1   
    14    4   27 1   
    15    5    6 1   
    16    5    9 1   
    17    5   10 1   
    18    6    7 1   
    19    6   18 1   
    20    6   28 1   
    21    7    8 1   
    22    7   29 1   
    23    7   30 1   
    24    8    9 1   
    25    8   31 1   
    26    8   32 1   
    27    9   21 1   
    28    9   33 1   
    29   10   34 1   
    30   10   35 1   
    31   10   36 1   
    32   11   37 1   
    33   11   38 1   
    34   11   39 1   
    35   12   13 1   
    36   12   40 1   
    37   12   41 1   
    38   13   14 1   
    39   13   20 1   
    40   13   42 1   
    41   14   15 1   
    42   14   43 1   
    43   14   44 1   
    44   15   16 1   
    45   15   45 1   
    46   16   17 1   
    47   16   46 1   
    48   16   47 1   
    49   17   18 1   
    50   17   48 1   
    51   17   49 1   
    52   18   19 1   
    53   18   50 1   
    54   19   51 1   
    55   20   52 1   
    56   21   53 1   
@<TRIPOS>SUBSTRUCTURE
     1 AON         1 TEMP              0 ****  ****    0 ROOT
