@<TRIPOS>MOLECULE
AON
   53    56     1     0     0
SMALL
bcc


@<TRIPOS>ATOM
      1 C1         -2.6430    0.8260    0.8700 c3        1 AON     -0.068400
      2 C10        -1.1090    0.8260    0.8700 c3        1 AON     -0.036000
      3 C11        -1.1760   -0.2880   -1.4500 c3        1 AON     -0.074400
      4 C12        -0.5630   -1.4810   -2.3800 c3        1 AON     -0.059400
      5 C13         0.9700   -1.4770   -2.3710 c3        1 AON     -0.043000
      6 C14         1.6120   -1.4600   -0.8300 c3        1 AON     -0.065700
      7 C15         2.9050   -1.3740   -1.0810 c3        1 AON     -0.069400
      8 C16         3.0740   -2.4230   -2.3160 c3        1 AON     -0.114400
      9 C17         1.5000   -2.5410   -2.8620 c3        1 AON      0.141100
     10 C18         1.4700   -0.2710   -3.1350 c3        1 AON     -0.088100
     11 C19        -0.6720    2.1200    0.2160 c3        1 AON     -0.086100
     12 C2         -3.2310    1.9730    1.7630 c3        1 AON     -0.112400
     13 C3         -2.6360    1.9770    3.1940 c3        1 AON      0.142100
     14 C4         -1.0540    1.9520    3.1940 c3        1 AON     -0.071400
     15 C5         -0.5020    0.8260    2.3370 c3        1 AON     -0.055700
     16 C6          1.0570    0.8230    2.3390 c3        1 AON     -0.072400
     17 C7          1.6550   -0.3400    1.4240 c3        1 AON     -0.073400
     18 C8          1.0650   -0.3230    0.0180 c3        1 AON     -0.047700
     19 C9         -0.5570   -0.3010    0.0240 c3        1 AON     -0.049700
     20 O3         -3.0620    3.1010    3.8480 oh        1 AON     -0.601800
     21 O17         0.8710   -3.7050   -2.3470 oh        1 AON     -0.595800
     22 HC11       -2.9600   -0.0330    1.2080 hc        1 AON      0.042700
     23 HC12       -2.9600    0.9430   -0.0460 hc        1 AON      0.042700
     24 H111       -0.9820    0.5720   -1.8680 hc        1 AON      0.039200
     25 H112       -2.1440   -0.4000   -1.3880 hc        1 AON      0.039200
     26 H121       -0.8750   -1.3610   -3.2970 hc        1 AON      0.051200
     27 H122       -0.8810   -2.3410   -2.0450 hc        1 AON      0.051200
     28 H14C        1.4230   -2.3110   -0.3910 hc        1 AON      0.060700
     29 H151        3.4300   -1.6590   -0.3080 hc        1 AON      0.043200
     30 H152        3.1480   -0.4700   -1.3560 hc        1 AON      0.043200
     31 H161        3.4000   -3.2870   -1.9990 hc        1 AON      0.045700
     32 H162        3.6580   -2.0580   -3.0080 hc        1 AON      0.045700
     33 H17C        1.4680   -2.5270   -3.8380 h1        1 AON      0.036700
     34 H181        0.8140   -0.0200   -3.8120 hc        1 AON      0.036700
     35 H182        1.6020    0.4740   -2.5170 hc        1 AON      0.036700
     36 H183        2.3180   -0.4890   -3.5670 hc        1 AON      0.036700
     37 H191        0.2980    2.1160    0.1040 hc        1 AON      0.036367
     38 H192       -0.9310    2.8740    0.7790 hc        1 AON      0.036367
     39 H193       -1.1000    2.2040   -0.6570 hc        1 AON      0.036367
     40 HC21       -4.1990    1.8600    1.8240 hc        1 AON      0.045700
     41 HC22       -3.0400    2.8320    1.3400 hc        1 AON      0.045700
     42 HC3        -2.9640    1.1910    3.6730 h1        1 AON      0.030700
     43 HC41       -0.7390    1.8360    4.1110 hc        1 AON      0.055700
     44 HC42       -0.7230    2.8030    2.8510 hc        1 AON      0.055700
     45 HC5        -0.7840   -0.0090    2.7560 hc        1 AON      0.045700
     46 HC61        1.3720    0.7000    3.2550 hc        1 AON      0.042200
     47 HC62        1.3760    1.6840    2.0070 hc        1 AON      0.042200
     48 HC71        1.4610   -1.2020    1.8390 hc        1 AON      0.040200
     49 HC72        2.6230   -0.2290    1.3630 hc        1 AON      0.040200
     50 HC8         1.3570    0.5080   -0.4010 hc        1 AON      0.053700
     51 HC9        -0.8470   -1.1330    0.4430 hc        1 AON      0.046700
     52 HO3        -3.5730    2.8690    4.5350 ho        1 AON      0.397000
     53 HO17        0.9800   -4.3780   -2.9160 ho        1 AON      0.397000
@<TRIPOS>BOND
     1    1    2 1   
     2    1   12 1   
     3    1   22 1   
     4    1   23 1   
     5    2   11 1   
     6    2   15 1   
     7    2   19 1   
     8    3    4 1   
     9    3   19 1   
    10    3   24 1   
    11    3   25 1   
    12    4    5 1   
    13    4   26 1   
    14    4   27 1   
    15    5    6 1   
    16    5    9 1   
    17    5   10 1   
    18    6    7 1   
    19    6   18 1   
    20    6   28 1   
    21    7    8 1   
    22    7   29 1   
    23    7   30 1   
    24    8    9 1   
    25    8   31 1   
    26    8   32 1   
    27    9   21 1   
    28    9   33 1   
    29   10   34 1   
    30   10   35 1   
    31   10   36 1   
    32   11   37 1   
    33   11   38 1   
    34   11   39 1   
    35   12   13 1   
    36   12   40 1   
    37   12   41 1   
    38   13   14 1   
    39   13   20 1   
    40   13   42 1   
    41   14   15 1   
    42   14   43 1   
    43   14   44 1   
    44   15   16 1   
    45   15   45 1   
    46   16   17 1   
    47   16   46 1   
    48   16   47 1   
    49   17   18 1   
    50   17   48 1   
    51   17   49 1   
    52   18   19 1   
    53   18   50 1   
    54   19   51 1   
    55   20   52 1   
    56   21   53 1   
@<TRIPOS>SUBSTRUCTURE
     1 AON         1 TEMP              0 ****  ****    0 ROOT
