@<TRIPOS>MOLECULE
AON
   53    56     1     0     0
SMALL
bcc


@<TRIPOS>ATOM
      1 C1          1.5300   -0.3750   -2.3650 c3        1 AON     -0.068400
      2 C10         0.3490    0.2300   -1.5930 c3        1 AON     -0.036000
      3 C11         1.7210    0.2420    0.5620 c3        1 AON     -0.074400
      4 C12         1.8040   -0.1280    2.0350 c3        1 AON     -0.059400
      5 C13         0.5780    0.3630    2.7830 c3        1 AON     -0.043000
      6 C14        -0.6640   -0.2430    2.0940 c3        1 AON     -0.065700
      7 C15        -1.7930   -0.0230    3.0910 c3        1 AON     -0.069400
      8 C16        -1.1280   -0.1890    4.4600 c3        1 AON     -0.114400
      9 C17         0.4020   -0.1400    4.2390 c3        1 AON      0.141100
     10 C18         0.5660    1.8840    2.8410 c3        1 AON     -0.088100
     11 C19         0.3900    1.7430   -1.7320 c3        1 AON     -0.086100
     12 C2          1.4200   -0.1830   -3.8610 c3        1 AON     -0.112400
     13 C3          0.1030   -0.7240   -4.4060 c3        1 AON      0.142100
     14 C4         -1.0890   -0.1290   -3.6630 c3        1 AON     -0.071400
     15 C5         -0.9470   -0.3740   -2.1720 c3        1 AON     -0.055700
     16 C6         -2.1750    0.1150   -1.4230 c3        1 AON     -0.072400
     17 C7         -2.0880   -0.2670    0.0390 c3        1 AON     -0.073400
     18 C8         -0.8110    0.2610    0.6730 c3        1 AON     -0.047700
     19 C9          0.4290   -0.2020   -0.1130 c3        1 AON     -0.049700
     20 O3         -0.0630   -0.3790   -5.7770 oh        1 AON     -0.601800
     21 O17         0.9940   -1.4240    4.3520 oh        1 AON     -0.595800
     22 HC11        1.5910   -1.4720   -2.1340 hc        1 AON      0.042700
     23 HC12        2.4840    0.1000   -2.0140 hc        1 AON      0.042700
     24 H111        1.8400    1.3520    0.4540 hc        1 AON      0.039200
     25 H112        2.5890   -0.2390    0.0360 hc        1 AON      0.039200
     26 H121        2.7290    0.3220    2.4800 hc        1 AON      0.051200
     27 H122        1.8830   -1.2420    2.1480 hc        1 AON      0.051200
     28 H14C       -0.4940   -1.3600    2.0400 hc        1 AON      0.060700
     29 H151       -2.2330    0.9990    2.9810 hc        1 AON      0.043200
     30 H152       -2.6140   -0.7660    2.9430 hc        1 AON      0.043200
     31 H161       -1.4410    0.6290    5.1520 hc        1 AON      0.045700
     32 H162       -1.4170   -1.1650    4.9200 hc        1 AON      0.045700
     33 H17C        0.8920    0.5540    4.9740 h1        1 AON      0.036700
     34 H181        0.5870    2.3290    1.8180 hc        1 AON      0.036700
     35 H182       -0.3500    2.2480    3.3650 hc        1 AON      0.036700
     36 H183        1.4650    2.2470    3.3970 hc        1 AON      0.036700
     37 H191        0.2110    2.0470   -2.7920 hc        1 AON      0.036367
     38 H192       -0.3860    2.2300   -1.0970 hc        1 AON      0.036367
     39 H193        1.3920    2.1320   -1.4270 hc        1 AON      0.036367
     40 HC21        2.2730   -0.7090   -4.3660 hc        1 AON      0.045700
     41 HC22        1.5010    0.9060   -4.1180 hc        1 AON      0.045700
     42 HC3         0.0890   -1.8470   -4.3080 h1        1 AON      0.030700
     43 HC41       -2.0290   -0.6100   -4.0380 hc        1 AON      0.055700
     44 HC42       -1.1650    0.9650   -3.8880 hc        1 AON      0.055700
     45 HC5        -0.8790   -1.4920   -2.0200 hc        1 AON      0.045700
     46 HC61       -3.0930   -0.3440   -1.8750 hc        1 AON      0.042200
     47 HC62       -2.2700    1.2260   -1.5280 hc        1 AON      0.042200
     48 HC71       -2.1220   -1.3840    0.1390 hc        1 AON      0.040200
     49 HC72       -2.9710    0.1470    0.5930 hc        1 AON      0.040200
     50 HC8        -0.8570    1.3840    0.6770 hc        1 AON      0.053700
     51 HC9         0.4220   -1.3320   -0.1020 hc        1 AON      0.046700
     52 HO3         0.7250   -0.6870   -6.2380 ho        1 AON      0.397000
     53 HO17        0.7830   -1.7470    5.2360 ho        1 AON      0.397000
@<TRIPOS>BOND
     1    1    2 1   
     2    1   12 1   
     3    1   22 1   
     4    1   23 1   
     5    2   11 1   
     6    2   15 1   
     7    2   19 1   
     8    3    4 1   
     9    3   19 1   
    10    3   24 1   
    11    3   25 1   
    12    4    5 1   
    13    4   26 1   
    14    4   27 1   
    15    5    6 1   
    16    5    9 1   
    17    5   10 1   
    18    6    7 1   
    19    6   18 1   
    20    6   28 1   
    21    7    8 1   
    22    7   29 1   
    23    7   30 1   
    24    8    9 1   
    25    8   31 1   
    26    8   32 1   
    27    9   21 1   
    28    9   33 1   
    29   10   34 1   
    30   10   35 1   
    31   10   36 1   
    32   11   37 1   
    33   11   38 1   
    34   11   39 1   
    35   12   13 1   
    36   12   40 1   
    37   12   41 1   
    38   13   14 1   
    39   13   20 1   
    40   13   42 1   
    41   14   15 1   
    42   14   43 1   
    43   14   44 1   
    44   15   16 1   
    45   15   45 1   
    46   16   17 1   
    47   16   46 1   
    48   16   47 1   
    49   17   18 1   
    50   17   48 1   
    51   17   49 1   
    52   18   19 1   
    53   18   50 1   
    54   19   51 1   
    55   20   52 1   
    56   21   53 1   
@<TRIPOS>SUBSTRUCTURE
     1 AON         1 TEMP              0 ****  ****    0 ROOT
