@<TRIPOS>MOLECULE
AON
   53    56     1     0     0
SMALL
bcc


@<TRIPOS>ATOM
      1 C1          0.0050    0.0950    0.0490 c3        1 AON     -0.068400
      2 C10         1.5360    0.1570   -0.0480 c3        1 AON     -0.036000
      3 C11         1.4820   -1.1430   -2.2470 c3        1 AON     -0.074400
      4 C12         2.0110   -2.3150   -3.0600 c3        1 AON     -0.059400
      5 C13         3.5290   -2.3290   -3.0600 c3        1 AON     -0.043000
      6 C14         3.9950   -2.3770   -1.5880 c3        1 AON     -0.065700
      7 C15         5.4660   -2.7610   -1.6710 c3        1 AON     -0.069400
      8 C16         5.5400   -3.7210   -2.8610 c3        1 AON     -0.114400
      9 C17         4.2140   -3.5910   -3.6450 c3        1 AON      0.141100
     10 C18         4.0700   -1.1370   -3.8350 c3        1 AON     -0.088100
     11 C19         1.9360    1.4580   -0.7250 c3        1 AON     -0.086100
     12 C2         -0.5720    1.1380    0.9810 c3        1 AON     -0.112400
     13 C3          0.0470    1.0580    2.3710 c3        1 AON      0.142100
     14 C4          1.5690    1.1290    2.3040 c3        1 AON     -0.071400
     15 C5          2.1000    0.0470    1.3830 c3        1 AON     -0.055700
     16 C6          3.6190    0.0290    1.3860 c3        1 AON     -0.072400
     17 C7          4.1350   -1.1450    0.5820 c3        1 AON     -0.073400
     18 C8          3.5880   -1.1270   -0.8360 c3        1 AON     -0.047700
     19 C9          2.0500   -1.0680   -0.8340 c3        1 AON     -0.049700
     20 O3         -0.3720    2.1510    3.1810 oh        1 AON     -0.601800
     21 O17         3.3650   -4.7080   -3.4370 oh        1 AON     -0.595800
     22 HC11       -0.4370    0.2460   -0.9710 hc        1 AON      0.042700
     23 HC12       -0.2950   -0.9270    0.4020 hc        1 AON      0.042700
     24 H111        0.3660   -1.2420   -2.1840 hc        1 AON      0.039200
     25 H112        1.7010   -0.1880   -2.7920 hc        1 AON      0.039200
     26 H121        1.6300   -2.2390   -4.1110 hc        1 AON      0.051200
     27 H122        1.6330   -3.2810   -2.6330 hc        1 AON      0.051200
     28 H14C        3.4610   -3.2510   -1.1060 hc        1 AON      0.060700
     29 H151        5.8110   -3.2510   -0.7290 hc        1 AON      0.043200
     30 H152        6.1060   -1.8610   -1.8430 hc        1 AON      0.043200
     31 H161        6.4020   -3.4620   -3.5230 hc        1 AON      0.045700
     32 H162        5.6750   -4.7730   -2.5080 hc        1 AON      0.045700
     33 H17C        4.4060   -3.4790   -4.7460 h1        1 AON      0.036700
     34 H181        3.7020   -0.1740   -3.4090 hc        1 AON      0.036700
     35 H182        5.1870   -1.1300   -3.8110 hc        1 AON      0.036700
     36 H183        3.7360   -1.1960   -4.9000 hc        1 AON      0.036700
     37 H191        1.6650    2.3340   -0.0880 hc        1 AON      0.036367
     38 H192        3.0350    1.4950   -0.9150 hc        1 AON      0.036367
     39 H193        1.4050    1.5660   -1.7020 hc        1 AON      0.036367
     40 HC21       -1.6810    0.9900    1.0600 hc        1 AON      0.045700
     41 HC22       -0.4010    2.1650    0.5640 hc        1 AON      0.045700
     42 HC3        -0.2660    0.0950    2.8670 h1        1 AON      0.030700
     43 HC41        1.8840    2.1460    1.9570 hc        1 AON      0.055700
     44 HC42        1.9860    0.9880    3.3360 hc        1 AON      0.055700
     45 HC5         1.7480   -0.9460    1.7940 hc        1 AON      0.045700
     46 HC61        4.0140    0.9900    0.9640 hc        1 AON      0.042200
     47 HC62        3.9880   -0.0490    2.4420 hc        1 AON      0.042200
     48 HC71        5.2550   -1.1160    0.5440 hc        1 AON      0.040200
     49 HC72        3.8410   -2.1030    1.0860 hc        1 AON      0.040200
     50 HC8         4.0000   -0.2230   -1.3620 hc        1 AON      0.053700
     51 HC9         1.6860   -1.9850   -0.2830 hc        1 AON      0.046700
     52 HO3        -1.3360    2.1550    3.1630 ho        1 AON      0.397000
     53 HO17        3.8590   -5.4860   -3.7220 ho        1 AON      0.397000
@<TRIPOS>BOND
     1    1    2 1   
     2    1   12 1   
     3    1   22 1   
     4    1   23 1   
     5    2   11 1   
     6    2   15 1   
     7    2   19 1   
     8    3    4 1   
     9    3   19 1   
    10    3   24 1   
    11    3   25 1   
    12    4    5 1   
    13    4   26 1   
    14    4   27 1   
    15    5    6 1   
    16    5    9 1   
    17    5   10 1   
    18    6    7 1   
    19    6   18 1   
    20    6   28 1   
    21    7    8 1   
    22    7   29 1   
    23    7   30 1   
    24    8    9 1   
    25    8   31 1   
    26    8   32 1   
    27    9   21 1   
    28    9   33 1   
    29   10   34 1   
    30   10   35 1   
    31   10   36 1   
    32   11   37 1   
    33   11   38 1   
    34   11   39 1   
    35   12   13 1   
    36   12   40 1   
    37   12   41 1   
    38   13   14 1   
    39   13   20 1   
    40   13   42 1   
    41   14   15 1   
    42   14   43 1   
    43   14   44 1   
    44   15   16 1   
    45   15   45 1   
    46   16   17 1   
    47   16   46 1   
    48   16   47 1   
    49   17   18 1   
    50   17   48 1   
    51   17   49 1   
    52   18   19 1   
    53   18   50 1   
    54   19   51 1   
    55   20   52 1   
    56   21   53 1   
@<TRIPOS>SUBSTRUCTURE
     1 AON         1 TEMP              0 ****  ****    0 ROOT
