@<TRIPOS>MOLECULE
AOO
   32    29     1     0     0
SMALL
bcc


@<TRIPOS>ATOM
      1 N1         -0.4660   -0.3470   -2.0260 n1        1 AOO     -0.671800
      2 C2          0.8650   -0.3880   -1.9140 c1        1 AOO      0.570400
      3 N3          1.4440   -0.3490   -0.6910 n1        1 AOO     -0.605800
      4 C4          0.6890   -0.2700    0.3980 c1        1 AOO      0.592600
      5 N5         -0.6590   -0.2280    0.2860 n1        1 AOO     -0.655800
      6 C6         -1.2310   -0.2660   -0.9230 c1        1 AOO      0.604600
      7 N7          1.2990   -0.3590    1.7010 n3        1 AOO     -0.688800
      8 C8          2.1740    0.6630    2.1430 c3        1 AOO      0.212500
      9 C9          1.5860    1.3360    3.3580 c3        1 AOO     -0.114100
     10 C10         3.5420    0.0490    2.5070 c3        1 AOO     -0.114100
     11 N11        -2.6540   -0.3680   -1.0340 n3        1 AOO     -0.708800
     12 C12        -3.4840    0.7840   -0.7690 c3        1 AOO      0.212800
     13 C13        -4.9670    0.4130   -0.9920 c3        1 AOO     -0.112100
     14 O21         1.6600   -0.3840   -3.0590 os        1 AOO     -0.274400
     15 C22         1.6010   -1.5740   -3.7920 c3        1 AOO      0.125700
     16 HN7         1.1580   -1.0990    2.2220 hn        1 AOO      0.429800
     17 H8          2.2910    1.3170    1.4360 h1        1 AOO      0.089700
     18 H9          0.7000    1.6910    3.1370 hc        1 AOO      0.044033
     19 H9A         2.1690    2.0680    3.6400 hc        1 AOO      0.044033
     20 H9B         1.5040    0.6840    4.0850 hc        1 AOO      0.044033
     21 H10         3.4360   -0.5560    3.2790 hc        1 AOO      0.044033
     22 H10A        4.1730    0.7690    2.7370 hc        1 AOO      0.044033
     23 H10B        3.8870   -0.4550    1.7400 hc        1 AOO      0.044033
     24 HN11       -3.0390   -1.1670   -1.2460 hn        1 AOO      0.439800
     25 H12        -3.3550    1.0740    0.1610 h1        1 AOO      0.054200
     26 H12A       -3.2330    1.5170   -1.3780 h1        1 AOO      0.054200
     27 H13        -5.0580   -0.0810   -1.8370 hc        1 AOO      0.045033
     28 H13A       -5.2790   -0.1500   -0.2490 hc        1 AOO      0.045033
     29 H13B       -5.5100    1.2350   -1.0330 hc        1 AOO      0.045033
     30 H22         1.3910   -2.3210   -3.1880 h1        1 AOO      0.052700
     31 H22A        0.9020   -1.5020   -4.4770 h1        1 AOO      0.052700
     32 H22B        2.4630   -1.7350   -4.2230 h1        1 AOO      0.052700
@<TRIPOS>BOND
     1    1    6 3   
     2    2    3 3   
     3    2   14 1   
     4    4    5 3   
     5    4    7 1   
     6    6   11 1   
     7    7    8 1   
     8    7   16 1   
     9    8    9 1   
    10    8   10 1   
    11    8   17 1   
    12    9   18 1   
    13    9   19 1   
    14    9   20 1   
    15   10   21 1   
    16   10   22 1   
    17   10   23 1   
    18   11   12 1   
    19   11   24 1   
    20   12   13 1   
    21   12   25 1   
    22   12   26 1   
    23   13   27 1   
    24   13   28 1   
    25   13   29 1   
    26   14   15 1   
    27   15   30 1   
    28   15   31 1   
    29   15   32 1   
@<TRIPOS>SUBSTRUCTURE
     1 AOO         1 TEMP              0 ****  ****    0 ROOT
