@<TRIPOS>MOLECULE
AOO
   32    32     1     0     0
SMALL
bcc


@<TRIPOS>ATOM
      1 N1         -0.0540    0.0010   -0.1560 nb        1 AOO     -0.865000
      2 C2          1.3130   -0.0500   -0.0880 ca        1 AOO      0.911300
      3 N3          2.1020   -0.0860    1.0320 nb        1 AOO     -0.805000
      4 C4          1.3750   -0.0940    2.2210 ca        1 AOO      0.930900
      5 N5         -0.0090   -0.0160    2.3050 nb        1 AOO     -0.863000
      6 C6         -0.6760    0.0380    1.0900 ca        1 AOO      0.942900
      7 N7          2.0580   -0.2640    3.4290 nh        1 AOO     -0.825900
      8 C8          3.4870   -0.0190    3.5370 c3        1 AOO      0.212500
      9 C9          3.8760    1.4580    3.4410 c3        1 AOO     -0.114100
     10 C10         4.0290   -0.5850    4.8530 c3        1 AOO     -0.114100
     11 N11        -2.0590    0.1960    1.1420 nh        1 AOO     -0.845900
     12 C12        -2.8770   -0.0050   -0.0290 c3        1 AOO      0.213800
     13 C13        -4.3660    0.0650    0.2730 c3        1 AOO     -0.112100
     14 O21         2.0660   -0.0680   -1.2460 os        1 AOO     -0.416100
     15 C22         1.3590   -0.0180   -2.4870 c3        1 AOO      0.126700
     16 HN7         1.5320   -0.0560    4.2530 hn        1 AOO      0.429800
     17 H8          3.9930   -0.5720    2.6880 h1        1 AOO      0.089700
     18 H9          3.4260    2.0460    4.2760 hc        1 AOO      0.044200
     19 H9A         4.9870    1.5450    3.5030 hc        1 AOO      0.044200
     20 H9B         3.5410    1.8950    2.4710 hc        1 AOO      0.044200
     21 H10         5.1370   -0.4510    4.8660 hc        1 AOO      0.044200
     22 H10A        3.8000   -1.6740    4.9450 hc        1 AOO      0.044200
     23 H10B        3.5950   -0.0510    5.7310 hc        1 AOO      0.044200
     24 HN11       -2.4930    0.0450    2.0270 hn        1 AOO      0.440800
     25 H12        -2.6130    0.7920   -0.7820 h1        1 AOO      0.052700
     26 H12A       -2.6480   -1.0050   -0.5030 h1        1 AOO      0.052700
     27 H13        -4.6750   -0.7340    0.9880 hc        1 AOO      0.045367
     28 H13A       -4.6470    1.0560    0.7040 hc        1 AOO      0.045367
     29 H13B       -4.9270   -0.0780   -0.6820 hc        1 AOO      0.045367
     30 H22         0.7700    0.9260   -2.5700 h1        1 AOO      0.052367
     31 H22A        0.6960   -0.9080   -2.6010 h1        1 AOO      0.052367
     32 H22B        2.1890   -0.0390   -3.2390 h1        1 AOO      0.052367
@<TRIPOS>BOND
     1    1    2 ar  
     2    1    6 ar  
     3    2    3 ar  
     4    2   14 1   
     5    3    4 ar  
     6    4    5 ar  
     7    4    7 1   
     8    5    6 ar  
     9    6   11 1   
    10    7    8 1   
    11    7   16 1   
    12    8    9 1   
    13    8   10 1   
    14    8   17 1   
    15    9   18 1   
    16    9   19 1   
    17    9   20 1   
    18   10   21 1   
    19   10   22 1   
    20   10   23 1   
    21   11   12 1   
    22   11   24 1   
    23   12   13 1   
    24   12   25 1   
    25   12   26 1   
    26   13   27 1   
    27   13   28 1   
    28   13   29 1   
    29   14   15 1   
    30   15   30 1   
    31   15   31 1   
    32   15   32 1   
@<TRIPOS>SUBSTRUCTURE
     1 AOO         1 TEMP              0 ****  ****    0 ROOT
