@<TRIPOS>MOLECULE
AOO
   32    32     1     0     0
SMALL
bcc


@<TRIPOS>ATOM
      1 N1         -1.4970    0.7510   -0.0310 nb        1 AOO     -0.865000
      2 C2         -0.3240    1.4530   -0.1300 ca        1 AOO      0.911300
      3 N3          0.9520    0.9580   -0.1920 nb        1 AOO     -0.805000
      4 C4          1.0090   -0.4340   -0.1710 ca        1 AOO      0.930900
      5 N5         -0.0920   -1.2710   -0.0440 nb        1 AOO     -0.863000
      6 C6         -1.3200   -0.6290    0.0300 ca        1 AOO      0.942900
      7 N7          2.2430   -1.0630   -0.3630 nh        1 AOO     -0.825900
      8 C8          3.4970   -0.3540   -0.1680 c3        1 AOO      0.212500
      9 C9          3.8080   -0.0280    1.2940 c3        1 AOO     -0.114100
     10 C10         4.6630   -1.1590   -0.7500 c3        1 AOO     -0.114100
     11 N11        -2.4360   -1.4380    0.2370 nh        1 AOO     -0.845900
     12 C12        -3.7720   -0.9230    0.0630 c3        1 AOO      0.213800
     13 C13        -4.8400   -1.9990    0.1860 c3        1 AOO     -0.112100
     14 O21        -0.3430    2.8330   -0.1770 os        1 AOO     -0.416100
     15 C22        -1.6190    3.4730   -0.1050 c3        1 AOO      0.126700
     16 HN7         2.2690   -2.0350   -0.1350 hn        1 AOO      0.429800
     17 H8          3.4300    0.6210   -0.7400 h1        1 AOO      0.089700
     18 H9          3.0030    0.6030    1.7410 hc        1 AOO      0.044200
     19 H9A         3.9150   -0.9590    1.9000 hc        1 AOO      0.044200
     20 H9B         4.7680    0.5400    1.3430 hc        1 AOO      0.044200
     21 H10         4.4940   -1.3850   -1.8300 hc        1 AOO      0.044200
     22 H10A        5.5940   -0.5510   -0.6540 hc        1 AOO      0.044200
     23 H10B        4.8060   -2.1190   -0.1990 hc        1 AOO      0.044200
     24 HN11       -2.3090   -2.4170    0.1030 hn        1 AOO      0.440800
     25 H12        -3.9480   -0.1330    0.8490 h1        1 AOO      0.052700
     26 H12A       -3.8730   -0.4230   -0.9450 h1        1 AOO      0.052700
     27 H13        -4.7220   -2.7820   -0.6010 hc        1 AOO      0.045367
     28 H13A       -4.8050   -2.4920    1.1870 hc        1 AOO      0.045367
     29 H13B       -5.8400   -1.5190    0.0620 hc        1 AOO      0.045367
     30 H22        -2.2570    3.1810   -0.9720 h1        1 AOO      0.052367
     31 H22A       -2.1280    3.2350    0.8590 h1        1 AOO      0.052367
     32 H22B       -1.3470    4.5580   -0.1560 h1        1 AOO      0.052367
@<TRIPOS>BOND
     1    1    2 ar  
     2    1    6 ar  
     3    2    3 ar  
     4    2   14 1   
     5    3    4 ar  
     6    4    5 ar  
     7    4    7 1   
     8    5    6 ar  
     9    6   11 1   
    10    7    8 1   
    11    7   16 1   
    12    8    9 1   
    13    8   10 1   
    14    8   17 1   
    15    9   18 1   
    16    9   19 1   
    17    9   20 1   
    18   10   21 1   
    19   10   22 1   
    20   10   23 1   
    21   11   12 1   
    22   11   24 1   
    23   12   13 1   
    24   12   25 1   
    25   12   26 1   
    26   13   27 1   
    27   13   28 1   
    28   13   29 1   
    29   14   15 1   
    30   15   30 1   
    31   15   31 1   
    32   15   32 1   
@<TRIPOS>SUBSTRUCTURE
     1 AOO         1 TEMP              0 ****  ****    0 ROOT
