@<TRIPOS>MOLECULE
AOO
   34    34     1     0     0
SMALL
bcc


@<TRIPOS>ATOM
      1 N1          0.1690    0.2410   -0.3950 nb        1 AOO     -0.739000
      2 C2          1.4740   -0.2390   -0.3710 ca        1 AOO      0.962300
      3 N3          2.1660   -0.6070    0.7860 nb        1 AOO     -0.666000
      4 C4          1.4540   -0.4530    1.9340 ca        1 AOO      0.822900
      5 N5          0.1540    0.0150    2.0450 nb        1 AOO     -0.749000
      6 C6         -0.4150    0.3390    0.8340 ca        1 AOO      0.830900
      7 N7          2.1340   -0.8410    3.2040 n4        1 AOO     -0.766700
      8 C8          3.3130    0.0760    3.5500 c3        1 AOO      0.149500
      9 C9          2.8330    1.4640    3.9310 c3        1 AOO     -0.143100
     10 C10         4.1080   -0.5530    4.6860 c3        1 AOO     -0.143100
     11 N11        -1.8200    0.8450    0.8710 n4        1 AOO     -0.759700
     12 C12        -2.8060   -0.2670    0.5950 c3        1 AOO      0.122800
     13 C13        -4.2310    0.2380    0.6450 c3        1 AOO     -0.149100
     14 O21         2.2020   -0.3970   -1.4880 os        1 AOO     -0.336100
     15 C22         1.6220   -0.0580   -2.7710 c3        1 AOO      0.112700
     16 HN7         1.4570   -0.8170    3.9820 hn        1 AOO      0.486800
     17 H8          3.9600    0.1260    2.6210 hx        1 AOO      0.131700
     18 H9          3.7360    2.1030    4.1160 hc        1 AOO      0.089867
     19 H9A         2.2250    1.4510    4.8700 hc        1 AOO      0.089867
     20 H9B         2.2390    1.9370    3.1130 hc        1 AOO      0.089867
     21 H10         3.5140   -0.6110    5.6300 hc        1 AOO      0.089867
     22 H10A        5.0000    0.1010    4.8790 hc        1 AOO      0.089867
     23 H10B        4.4880   -1.5710    4.4200 hc        1 AOO      0.089867
     24 HN11       -1.9330    1.5830    0.1550 hn        1 AOO      0.489800
     25 H12        -2.6400   -1.0650    1.3740 hx        1 AOO      0.118200
     26 H12A       -2.5700   -0.6850   -0.4270 hx        1 AOO      0.118200
     27 H13        -4.4300    1.0180   -0.1310 hc        1 AOO      0.097700
     28 H13A       -4.5020    0.6400    1.6520 hc        1 AOO      0.097700
     29 H13B       -4.9050   -0.6360    0.4310 hc        1 AOO      0.097700
     30 H22         2.4770   -0.3030   -3.4610 h1        1 AOO      0.099033
     31 H22A        1.3680    1.0270   -2.8010 h1        1 AOO      0.099033
     32 H22B        0.7350   -0.7050   -2.9720 h1        1 AOO      0.099033
     33 H72         2.4920   -1.8050    3.1000 hn        1 AOO      0.486800
     34 H112       -2.0180    1.2550    1.7980 hn        1 AOO      0.489800
@<TRIPOS>BOND
     1    1    2 ar  
     2    1    6 ar  
     3    2    3 ar  
     4    2   14 1   
     5    3    4 ar  
     6    4    5 ar  
     7    4    7 1   
     8    5    6 ar  
     9    6   11 1   
    10    7    8 1   
    11    7   16 1   
    12    7   33 1   
    13    8    9 1   
    14    8   10 1   
    15    8   17 1   
    16    9   18 1   
    17    9   19 1   
    18    9   20 1   
    19   10   21 1   
    20   10   22 1   
    21   10   23 1   
    22   11   12 1   
    23   11   24 1   
    24   11   34 1   
    25   12   13 1   
    26   12   25 1   
    27   12   26 1   
    28   13   27 1   
    29   13   28 1   
    30   13   29 1   
    31   14   15 1   
    32   15   30 1   
    33   15   31 1   
    34   15   32 1   
@<TRIPOS>SUBSTRUCTURE
     1 AOO         1 TEMP              0 ****  ****    0 ROOT
