@<TRIPOS>MOLECULE
AOO
   32    32     1     0     0
SMALL
bcc


@<TRIPOS>ATOM
      1 N1         -0.0540    0.0040   -0.1570 nb        1 AOO     -0.865000
      2 C2          1.3140   -0.0470   -0.0880 ca        1 AOO      0.911300
      3 N3          2.1020   -0.0850    1.0320 nb        1 AOO     -0.805000
      4 C4          1.3740   -0.0940    2.2210 ca        1 AOO      0.930900
      5 N5         -0.0100   -0.0170    2.3040 nb        1 AOO     -0.863000
      6 C6         -0.6750    0.0380    1.0890 ca        1 AOO      0.942900
      7 N7          2.0570   -0.2660    3.4290 nu        1 AOO     -0.825900
      8 C8          3.4860   -0.0210    3.5380 c3        1 AOO      0.212500
      9 C9          3.8740    1.4560    3.4450 c3        1 AOO     -0.114100
     10 C10         4.0270   -0.5890    4.8530 c3        1 AOO     -0.114100
     11 N11        -2.0590    0.1950    1.1410 nu        1 AOO     -0.845900
     12 C12        -2.8770   -0.0040   -0.0310 c3        1 AOO      0.213800
     13 C13        -4.3660    0.0660    0.2700 c3        1 AOO     -0.112100
     14 O21         2.0670   -0.0630   -1.2460 os        1 AOO     -0.416100
     15 C22         1.3600   -0.0120   -2.4870 c3        1 AOO      0.126700
     16 HN7         1.5300   -0.0600    4.2530 hn        1 AOO      0.429800
     17 H8          3.9930   -0.5720    2.6880 h1        1 AOO      0.089700
     18 H9          3.4230    2.0430    4.2810 hc        1 AOO      0.044200
     19 H9A         3.5390    1.8950    2.4750 hc        1 AOO      0.044200
     20 H9B         4.9850    1.5440    3.5080 hc        1 AOO      0.044200
     21 H10         5.1350   -0.4540    4.8670 hc        1 AOO      0.044200
     22 H10A        3.5930   -0.0560    5.7320 hc        1 AOO      0.044200
     23 H10B        3.7990   -1.6770    4.9440 hc        1 AOO      0.044200
     24 HN11       -2.4930    0.0430    2.0250 hn        1 AOO      0.440800
     25 H12        -2.6120    0.7960   -0.7820 h1        1 AOO      0.052700
     26 H12A       -2.6470   -1.0020   -0.5060 h1        1 AOO      0.052700
     27 H13        -4.6460    1.0560    0.7030 hc        1 AOO      0.045367
     28 H13A       -4.6750   -0.7350    0.9840 hc        1 AOO      0.045367
     29 H13B       -4.9260   -0.0750   -0.6850 hc        1 AOO      0.045367
     30 H22         0.7710    0.9320   -2.5690 h1        1 AOO      0.052367
     31 H22A        0.6980   -0.9030   -2.6020 h1        1 AOO      0.052367
     32 H22B        2.1910   -0.0310   -3.2380 h1        1 AOO      0.052367
@<TRIPOS>BOND
     1    1    2 ar  
     2    1    6 ar  
     3    2    3 ar  
     4    2   14 1   
     5    3    4 ar  
     6    4    5 ar  
     7    4    7 1   
     8    5    6 ar  
     9    6   11 1   
    10    7    8 1   
    11    7   16 1   
    12    8    9 1   
    13    8   10 1   
    14    8   17 1   
    15    9   18 1   
    16    9   19 1   
    17    9   20 1   
    18   10   21 1   
    19   10   22 1   
    20   10   23 1   
    21   11   12 1   
    22   11   24 1   
    23   12   13 1   
    24   12   25 1   
    25   12   26 1   
    26   13   27 1   
    27   13   28 1   
    28   13   29 1   
    29   14   15 1   
    30   15   30 1   
    31   15   31 1   
    32   15   32 1   
@<TRIPOS>SUBSTRUCTURE
     1 AOO         1 TEMP              0 ****  ****    0 ROOT
