@<TRIPOS>MOLECULE
AOP
   26    25     1     0     0
SMALL
bcc


@<TRIPOS>ATOM
      1 O1          0.3630   -0.8540    0.2490 o         1 AOP     -0.478100
      2 C1          0.9700    0.1750    0.5270 c         1 AOP      0.562900
      3 C2          2.3910    0.1410    1.0680 c3        1 AOP     -0.023200
      4 N3          2.9610   -1.2500    1.1320 ny        1 AOP     -0.532500
      5 O4          3.7680   -1.3140    2.2310 os        1 AOP     -0.228100
      6 C5          4.3570   -2.6220    2.5300 c3        1 AOP      0.100400
      7 C6          5.1750   -2.3650    3.7820 c3        1 AOP     -0.086400
      8 C7          5.8560   -3.6510    4.2080 c3        1 AOP     -0.079400
      9 C8          6.6820   -3.4250    5.4590 c3        1 AOP     -0.078400
     10 C9          7.3650   -4.6960    5.8940 c3        1 AOP     -0.098100
     11 H1          0.5600    1.2020    0.4250 h4        1 AOP      0.085200
     12 H21         3.0680    0.7730    0.4230 hx        1 AOP      0.146200
     13 H22         2.3980    0.5740    2.1150 hx        1 AOP      0.146200
     14 HN3         2.1830   -1.9370    1.2100 hn        1 AOP      0.465800
     15 H51         5.0020   -2.9390    1.6690 h1        1 AOP      0.073200
     16 H52         3.5350   -3.3620    2.7130 h1        1 AOP      0.073200
     17 H61         5.9400   -1.5700    3.5790 hc        1 AOP      0.075700
     18 H62         4.5070   -1.9910    4.6010 hc        1 AOP      0.075700
     19 H71         5.0860   -4.4430    4.4050 hc        1 AOP      0.052200
     20 H72         6.5190   -4.0220    3.3830 hc        1 AOP      0.052200
     21 H81         6.0190   -3.0510    6.2830 hc        1 AOP      0.047700
     22 H82         7.4500   -2.6310    5.2630 hc        1 AOP      0.047700
     23 H91         6.6160   -5.4930    6.1190 hc        1 AOP      0.044700
     24 H92         8.0500   -5.0710    5.0960 hc        1 AOP      0.044700
     25 H93         7.9680   -4.5090    6.8160 hc        1 AOP      0.044700
     26 H32         3.5070   -1.4540    0.2780 hn        1 AOP      0.465800
@<TRIPOS>BOND
     1    1    2 2   
     2    2    3 1   
     3    2   11 1   
     4    3    4 1   
     5    3   12 1   
     6    3   13 1   
     7    4    5 1   
     8    4   14 1   
     9    4   26 1   
    10    5    6 1   
    11    6    7 1   
    12    6   15 1   
    13    6   16 1   
    14    7    8 1   
    15    7   17 1   
    16    7   18 1   
    17    8    9 1   
    18    8   19 1   
    19    8   20 1   
    20    9   10 1   
    21    9   21 1   
    22    9   22 1   
    23   10   23 1   
    24   10   24 1   
    25   10   25 1   
@<TRIPOS>SUBSTRUCTURE
     1 AOP         1 TEMP              0 ****  ****    0 ROOT
