@<TRIPOS>MOLECULE
AOP
   26    25     1     0     0
SMALL
bcc


@<TRIPOS>ATOM
      1 O1          0.4320   -0.9890    0.0970 o         1 AOP     -0.478100
      2 C1          0.8670    0.0570    0.5660 c         1 AOP      0.562900
      3 C2          2.2360    0.1270    1.2250 c3        1 AOP     -0.023200
      4 N3          2.9890   -1.1730    1.1500 n4        1 AOP     -0.532500
      5 O4          3.7100   -1.2970    2.3030 os        1 AOP     -0.228100
      6 C5          4.4520   -2.5500    2.4740 c3        1 AOP      0.100400
      7 C6          5.1270   -2.3810    3.8230 c3        1 AOP     -0.086400
      8 C7          5.9470   -3.6180    4.1320 c3        1 AOP     -0.079400
      9 C8          6.6330   -3.4790    5.4750 c3        1 AOP     -0.078400
     10 C9          7.4520   -4.7030    5.7960 c3        1 AOP     -0.098100
     11 H1          0.3250    1.0270    0.5690 h4        1 AOP      0.085200
     12 H21         2.8620    0.9280    0.7360 hx        1 AOP      0.146200
     13 H22         2.1070    0.3990    2.3170 hx        1 AOP      0.146200
     14 HN3         2.3120   -1.9580    1.0580 hn        1 AOP      0.465800
     15 H51         5.1990   -2.6500    1.6440 h1        1 AOP      0.073200
     16 H52         3.7300   -3.4070    2.4740 h1        1 AOP      0.073200
     17 H61         5.7870   -1.4740    3.8050 hc        1 AOP      0.075700
     18 H62         4.3520   -2.2210    4.6170 hc        1 AOP      0.075700
     19 H71         5.2820   -4.5220    4.1420 hc        1 AOP      0.052200
     20 H72         6.7170   -3.7750    3.3310 hc        1 AOP      0.052200
     21 H81         5.8630   -3.3190    6.2760 hc        1 AOP      0.047700
     22 H82         7.2960   -2.5730    5.4660 hc        1 AOP      0.047700
     23 H91         6.8060   -5.6130    5.8350 hc        1 AOP      0.044700
     24 H92         8.2420   -4.8650    5.0240 hc        1 AOP      0.044700
     25 H93         7.9500   -4.5810    6.7890 hc        1 AOP      0.044700
     26 H32         3.6230   -1.1760    0.3340 hn        1 AOP      0.465800
@<TRIPOS>BOND
     1    1    2 2   
     2    2    3 1   
     3    2   11 1   
     4    3    4 1   
     5    3   12 1   
     6    3   13 1   
     7    4    5 1   
     8    4   14 1   
     9    4   26 1   
    10    5    6 1   
    11    6    7 1   
    12    6   15 1   
    13    6   16 1   
    14    7    8 1   
    15    7   17 1   
    16    7   18 1   
    17    8    9 1   
    18    8   19 1   
    19    8   20 1   
    20    9   10 1   
    21    9   21 1   
    22    9   22 1   
    23   10   23 1   
    24   10   24 1   
    25   10   25 1   
@<TRIPOS>SUBSTRUCTURE
     1 AOP         1 TEMP              0 ****  ****    0 ROOT
