@<TRIPOS>MOLECULE
AOP
   25    24     1     0     0
SMALL
bcc


@<TRIPOS>ATOM
      1 O1          0.0880    0.8080   -4.9680 o         1 AOP     -0.522100
      2 C1         -0.3010    0.0650   -4.0670 c         1 AOP      0.567900
      3 C2          0.2790    0.1600   -2.6760 c3        1 AOP     -0.012200
      4 N3         -0.1370   -0.9550   -1.8110 n3        1 AOP     -0.556700
      5 O4          0.4730   -0.8470   -0.6120 os        1 AOP     -0.262100
      6 C5         -0.4170   -0.4220    0.4540 c3        1 AOP      0.139400
      7 C6          0.4430   -0.4160    1.7040 c3        1 AOP     -0.088400
      8 C7         -0.3730    0.0210    2.9000 c3        1 AOP     -0.077400
      9 C8          0.4670    0.0330    4.1590 c3        1 AOP     -0.079400
     10 C9         -0.3380    0.4680    5.3560 c3        1 AOP     -0.093100
     11 H1         -1.1020   -0.6880   -4.2370 h4        1 AOP      0.011200
     12 H21        -0.1060    1.1100   -2.2050 h1        1 AOP      0.077700
     13 H22         1.4000    0.2600   -2.7480 h1        1 AOP      0.077700
     14 HN3         0.2220   -1.8200   -2.2160 hn        1 AOP      0.359800
     15 H51        -1.2700   -1.1430    0.5480 h1        1 AOP      0.041200
     16 H52        -0.8130    0.6010    0.2260 h1        1 AOP      0.041200
     17 H61         1.3140    0.2750    1.5560 hc        1 AOP      0.054200
     18 H62         0.8600   -1.4430    1.8740 hc        1 AOP      0.054200
     19 H71        -1.2450   -0.6720    3.0370 hc        1 AOP      0.041700
     20 H72        -0.7910    1.0470    2.7180 hc        1 AOP      0.041700
     21 H81         1.3390    0.7250    4.0190 hc        1 AOP      0.040700
     22 H82         0.8860   -0.9930    4.3380 hc        1 AOP      0.040700
     23 H91         0.2990    0.4700    6.2720 hc        1 AOP      0.034033
     24 H92        -0.7430    1.4980    5.2060 hc        1 AOP      0.034033
     25 H93        -1.1980   -0.2240    5.5260 hc        1 AOP      0.034033
@<TRIPOS>BOND
     1    1    2 2   
     2    2    3 1   
     3    2   11 1   
     4    3    4 1   
     5    3   12 1   
     6    3   13 1   
     7    4    5 1   
     8    4   14 1   
     9    5    6 1   
    10    6    7 1   
    11    6   15 1   
    12    6   16 1   
    13    7    8 1   
    14    7   17 1   
    15    7   18 1   
    16    8    9 1   
    17    8   19 1   
    18    8   20 1   
    19    9   10 1   
    20    9   21 1   
    21    9   22 1   
    22   10   23 1   
    23   10   24 1   
    24   10   25 1   
@<TRIPOS>SUBSTRUCTURE
     1 AOP         1 TEMP              0 ****  ****    0 ROOT
