@<TRIPOS>MOLECULE
AOP
   25    23     1     0     0
SMALL
bcc


@<TRIPOS>ATOM
      1 O1         -2.7680    2.5810   -4.1560 o         1 AOP     -0.283000
      2 C1         -1.5510    2.5810   -4.1560 c1        1 AOP      0.186000
      3 C2         -0.7950    2.5810   -2.8460 c2        1 AOP     -0.199000
      4 N3         -0.6260    1.2410   -2.3950 n3        1 AOP     -0.142000
      5 O4         -0.0170    1.2450   -1.1710 os        1 AOP     -0.242000
      6 C5         -0.2280    0.0100   -0.5280 c3        1 AOP     -0.011000
      7 C6          0.5390   -0.0170    0.7750 c3        1 AOP     -0.167000
      8 C7          0.2870   -1.3310    1.4810 c3        1 AOP     -0.156000
      9 C8          1.0860   -1.3760    2.7650 c3        1 AOP     -0.158000
     10 C9          0.8100   -2.6760    3.4870 c3        1 AOP     -0.211000
     11 H1         -1.0640    2.6100   -5.0010 ha        1 AOP      0.104000
     12 H21        -1.2980    3.0880   -2.1800 h4        1 AOP      0.117000
     13 H22         0.0800    2.9940   -2.9760 h4        1 AOP      0.117000
     14 HN3        -0.1100    0.7830   -2.9910 hn        1 AOP      0.155000
     15 H51         0.0830   -0.7140   -1.1040 h1        1 AOP      0.080500
     16 H52        -1.1800   -0.1040   -0.3480 h1        1 AOP      0.080500
     17 H61         0.2430    0.7190    1.3430 hc        1 AOP      0.093500
     18 H62         1.4940    0.0760    0.5930 hc        1 AOP      0.093500
     19 H71        -0.6640   -1.4130    1.6870 hc        1 AOP      0.081000
     20 H72         0.5600   -2.0690    0.9030 hc        1 AOP      0.081000
     21 H81         2.0380   -1.3150    2.5580 hc        1 AOP      0.080000
     22 H82         0.8290   -0.6260    3.3350 hc        1 AOP      0.080000
     23 H91         1.3340   -2.7100    4.3100 hc        1 AOP      0.073333
     24 H92        -0.1400   -2.7330    3.7040 hc        1 AOP      0.073333
     25 H93         1.0570   -3.4260    2.9130 hc        1 AOP      0.073333
@<TRIPOS>BOND
     1    1    2 1   
     2    2   11 1   
     3    3    4 1   
     4    3   12 1   
     5    3   13 1   
     6    4    5 1   
     7    4   14 1   
     8    5    6 1   
     9    6    7 1   
    10    6   15 1   
    11    6   16 1   
    12    7    8 1   
    13    7   17 1   
    14    7   18 1   
    15    8    9 1   
    16    8   19 1   
    17    8   20 1   
    18    9   10 1   
    19    9   21 1   
    20    9   22 1   
    21   10   23 1   
    22   10   24 1   
    23   10   25 1   
@<TRIPOS>SUBSTRUCTURE
     1 AOP         1 TEMP              0 ****  ****    0 ROOT
