@<TRIPOS>MOLECULE
AOP
   26    25     1     0     0
SMALL
bcc


@<TRIPOS>ATOM
      1 O1          0.3870   -0.8970    0.1900 o         1 AOP     -0.478100
      2 C1          0.9110    0.1420    0.5750 c         1 AOP      0.562900
      3 C2          2.3090    0.1550    1.1760 c3        1 AOP     -0.023200
      4 N3          2.9680   -1.1970    1.1550 n4        1 AOP     -0.532500
      5 O4          3.7350   -1.2980    2.2800 os        1 AOP     -0.228100
      6 C5          4.4010   -2.5850    2.5000 c3        1 AOP      0.100400
      7 C6          5.1530   -2.3770    3.8020 c3        1 AOP     -0.086400
      8 C7          5.9040   -3.6460    4.1540 c3        1 AOP     -0.079400
      9 C8          6.6660   -3.4690    5.4520 c3        1 AOP     -0.078400
     10 C9          7.4190   -4.7230    5.8150 c3        1 AOP     -0.098100
     11 H1          0.4380    1.1460    0.5350 h4        1 AOP      0.085200
     12 H21         2.2430    0.5010    2.2530 hx        1 AOP      0.146200
     13 H22         2.9660    0.8790    0.6150 hx        1 AOP      0.146200
     14 HN3         2.2350   -1.9360    1.1470 hn        1 AOP      0.465800
     15 H51         5.0970   -2.7880    1.6450 h1        1 AOP      0.073200
     16 H52         3.6250   -3.3890    2.5900 h1        1 AOP      0.073200
     17 H61         4.4300   -2.1160    4.6190 hc        1 AOP      0.075700
     18 H62         5.8680   -1.5200    3.6950 hc        1 AOP      0.075700
     19 H71         6.6220   -3.9040    3.3310 hc        1 AOP      0.052200
     20 H72         5.1840   -4.5000    4.2550 hc        1 AOP      0.052200
     21 H81         7.3840   -2.6130    5.3530 hc        1 AOP      0.047700
     22 H82         5.9480   -3.2080    6.2750 hc        1 AOP      0.047700
     23 H91         7.9730   -4.5740    6.7740 hc        1 AOP      0.044700
     24 H92         6.7180   -5.5830    5.9440 hc        1 AOP      0.044700
     25 H93         8.1570   -4.9870    5.0190 hc        1 AOP      0.044700
     26 H32         3.5580   -1.2970    0.3130 hn        1 AOP      0.465800
@<TRIPOS>BOND
     1    1    2 2   
     2    2    3 1   
     3    2   11 1   
     4    3    4 1   
     5    3   12 1   
     6    3   13 1   
     7    4    5 1   
     8    4   14 1   
     9    4   26 1   
    10    5    6 1   
    11    6    7 1   
    12    6   15 1   
    13    6   16 1   
    14    7    8 1   
    15    7   17 1   
    16    7   18 1   
    17    8    9 1   
    18    8   19 1   
    19    8   20 1   
    20    9   10 1   
    21    9   21 1   
    22    9   22 1   
    23   10   23 1   
    24   10   24 1   
    25   10   25 1   
@<TRIPOS>SUBSTRUCTURE
     1 AOP         1 TEMP              0 ****  ****    0 ROOT
