@<TRIPOS>MOLECULE
AOQ
   45    48     1     0     0
SMALL
bcc


@<TRIPOS>ATOM
      1 O1         -0.0610    0.0060   -0.1190 o         1 AOQ     -0.518100
      2 O2          5.3370   -0.0740    0.1140 o         1 AOQ     -0.524100
      3 C1          1.1770   -0.0120   -0.0550 c         1 AOQ      0.583900
      4 C2          1.9040   -0.0300    1.2310 cc        1 AOQ     -0.176400
      5 C3          3.2620   -0.0500    1.2400 cd        1 AOQ      0.046900
      6 C4          4.1020   -0.0560    0.0120 c         1 AOQ      0.556900
      7 C5          4.1150   -0.0410   -2.4660 ca        1 AOQ     -0.077000
      8 C6          3.4480   -0.0240   -3.6920 ca        1 AOQ     -0.121000
      9 C7          2.0550   -0.0040   -3.7250 ca        1 AOQ     -0.107000
     10 C8          1.3250    0.0000   -2.5350 ca        1 AOQ     -0.088000
     11 C9          1.9840   -0.0170   -1.3020 ca        1 AOQ     -0.125600
     12 C10         3.3890   -0.0370   -1.2710 ca        1 AOQ     -0.139600
     13 O6          3.9270   -0.0670    2.4410 oh        1 AOQ     -0.484100
     14 C11         0.2830    1.2370    2.6450 c3        1 AOQ     -0.076400
     15 C12        -0.4720    1.2400    3.9580 c3        1 AOQ     -0.068400
     16 C13        -1.3520    0.0010    4.0860 c3        1 AOQ     -0.024400
     17 C14        -0.5090   -1.2620    3.9430 c3        1 AOQ     -0.068400
     18 C15         0.2470   -1.2660    2.6310 c3        1 AOQ     -0.076400
     19 C16         1.1270   -0.0260    2.5110 c3        1 AOQ     -0.012500
     20 CL         -4.3890    0.0160    9.2540 cl        1 AOQ     -0.099400
     21 C17        -2.1000    0.0040    5.3800 ca        1 AOQ     -0.070300
     22 C18        -1.4230   -0.0130    6.6060 ca        1 AOQ     -0.119500
     23 C19        -2.1260   -0.0090    7.8080 ca        1 AOQ     -0.123500
     24 C20        -3.5240    0.0110    7.7890 ca        1 AOQ      0.013400
     25 C21        -4.2150    0.0290    6.5740 ca        1 AOQ     -0.123500
     26 C22        -3.5000    0.0250    5.3780 ca        1 AOQ     -0.119500
     27 H1          5.2170   -0.0580   -2.4260 ha        1 AOQ      0.160000
     28 H2          4.0250   -0.0270   -4.6290 ha        1 AOQ      0.145000
     29 H3          1.5260    0.0100   -4.6910 ha        1 AOQ      0.144000
     30 H4          0.2220    0.0170   -2.5540 ha        1 AOQ      0.164000
     31 H5          4.8840   -0.0800    2.2600 ho        1 AOQ      0.445000
     32 H6         -0.4410    1.2970    1.7910 hc        1 AOQ      0.052700
     33 H7          0.9490    2.1380    2.5960 hc        1 AOQ      0.052700
     34 H8          0.2520    1.2760    4.8130 hc        1 AOQ      0.044200
     35 H9         -1.1120    2.1590    4.0170 hc        1 AOQ      0.044200
     36 H10        -2.0940    0.0170    3.2350 hc        1 AOQ      0.059700
     37 H11        -1.1750   -2.1620    3.9920 hc        1 AOQ      0.044200
     38 H12         0.2140   -1.3290    4.7980 hc        1 AOQ      0.044200
     39 H13         0.8850   -2.1850    2.5710 hc        1 AOQ      0.052700
     40 H14        -0.4790   -1.2940    1.7760 hc        1 AOQ      0.052700
     41 H15         1.8590   -0.0420    3.3720 hc        1 AOQ      0.071700
     42 H16        -0.3220   -0.0290    6.6220 ha        1 AOQ      0.138000
     43 H17        -1.5830   -0.0230    8.7650 ha        1 AOQ      0.145500
     44 H18        -5.3150    0.0450    6.5590 ha        1 AOQ      0.145500
     45 H19        -4.0470    0.0380    4.4220 ha        1 AOQ      0.138000
@<TRIPOS>BOND
     1    1    3 2   
     2    2    6 2   
     3    3    4 1   
     4    3   11 1   
     5    4    5 2   
     6    4   19 1   
     7    5    6 1   
     8    5   13 1   
     9    6   12 1   
    10    7    8 ar  
    11    7   12 ar  
    12    7   27 1   
    13    8    9 ar  
    14    8   28 1   
    15    9   10 ar  
    16    9   29 1   
    17   10   11 ar  
    18   10   30 1   
    19   11   12 ar  
    20   13   31 1   
    21   14   15 1   
    22   14   19 1   
    23   14   32 1   
    24   14   33 1   
    25   15   16 1   
    26   15   34 1   
    27   15   35 1   
    28   16   17 1   
    29   16   21 1   
    30   16   36 1   
    31   17   18 1   
    32   17   37 1   
    33   17   38 1   
    34   18   19 1   
    35   18   39 1   
    36   18   40 1   
    37   19   41 1   
    38   20   24 1   
    39   21   22 ar  
    40   21   26 ar  
    41   22   23 ar  
    42   22   42 1   
    43   23   24 ar  
    44   23   43 1   
    45   24   25 ar  
    46   25   26 ar  
    47   25   44 1   
    48   26   45 1   
@<TRIPOS>SUBSTRUCTURE
     1 AOQ         1 TEMP              0 ****  ****    0 ROOT
