@<TRIPOS>MOLECULE
AOR
   27    26     1     0     0
SMALL
bcc


@<TRIPOS>ATOM
      1 CA          2.9830    1.1960    0.0240 c3        1 AOR     -0.026500
      2 C           2.4060   -0.2530   -0.1160 c         1 AOR      0.884600
      3 O           1.2050   -0.4060    0.2450 o         1 AOR     -0.784800
      4 OXT         3.2050   -1.1610   -0.4460 o         1 AOR     -0.784800
      5 CB          3.2710    1.4030    1.5170 c3        1 AOR     -0.093400
      6 CG          4.2010    0.3240    2.0460 c3        1 AOR     -0.105400
      7 CD          3.5380   -0.6980    2.9660 c3        1 AOR      0.112800
      8 NE          2.7420   -1.7450    2.2680 n4        1 AOR     -0.863600
      9 N1          1.9850    2.1790   -0.5050 n4        1 AOR     -0.672800
     10 C1          2.1270    2.3550   -2.0050 c         1 AOR      0.565100
     11 O1          2.5850    3.4330   -2.3510 o         1 AOR     -0.423100
     12 C2          1.6840    1.2100   -2.8460 c3        1 AOR     -0.186100
     13 HA          3.9340    1.2960   -0.5720 hx        1 AOR      0.119700
     14 HB1         3.7520    2.4060    1.6710 hc        1 AOR      0.067700
     15 HB2         2.3050    1.3970    2.0900 hc        1 AOR      0.067700
     16 HG1         4.7180   -0.1990    1.1930 hc        1 AOR      0.101700
     17 HG2         5.0040    0.8160    2.6640 hc        1 AOR      0.101700
     18 HD1         4.3500   -1.2280    3.5460 hx        1 AOR      0.100700
     19 HD2         2.8550   -0.1790    3.6990 hx        1 AOR      0.100700
     20 HNE1        3.2400   -2.0720    1.4170 hn        1 AOR      0.478133
     21 HNE2        1.8330   -1.3630    1.9430 hn        1 AOR      0.478133
     22 HN1         1.0460    1.7970   -0.2940 hn        1 AOR      0.462300
     23 H21         0.5770    1.0640   -2.7540 hc        1 AOR      0.120033
     24 H22         2.1940    0.2590   -2.5300 hc        1 AOR      0.120033
     25 H23         1.9390    1.4300   -3.9150 hc        1 AOR      0.120033
     26 HE3         2.5720   -2.5340    2.8920 hn        1 AOR      0.478133
     27 H12         2.0990    3.0840   -0.0380 hn        1 AOR      0.462300
@<TRIPOS>BOND
     1    1    2 1   
     2    1    5 1   
     3    1    9 1   
     4    1   13 1   
     5    2    3 1   
     6    2    4 1   
     7    5    6 1   
     8    5   14 1   
     9    5   15 1   
    10    6    7 1   
    11    6   16 1   
    12    6   17 1   
    13    7    8 1   
    14    7   18 1   
    15    7   19 1   
    16    8   20 1   
    17    8   21 1   
    18    8   26 1   
    19    9   10 1   
    20    9   22 1   
    21    9   27 1   
    22   10   11 2   
    23   10   12 1   
    24   12   23 1   
    25   12   24 1   
    26   12   25 1   
@<TRIPOS>SUBSTRUCTURE
     1 AOR         1 TEMP              0 ****  ****    0 ROOT
