@<TRIPOS>MOLECULE
AOR
   27    26     1     0     0
SMALL
bcc


@<TRIPOS>ATOM
      1 CA          2.9860    1.1350   -0.0610 c3        1 AOR     -0.026500
      2 C           2.2890   -0.2650   -0.0010 c         1 AOR      0.884600
      3 O           1.1280   -0.2840    0.4980 o         1 AOR     -0.784800
      4 OXT         2.9750   -1.2630   -0.3250 o         1 AOR     -0.784800
      5 CB          3.4550    1.4450    1.3670 c3        1 AOR     -0.093400
      6 CG          4.3550    0.3410    1.8960 c3        1 AOR     -0.105400
      7 CD          3.7240   -0.5380    2.9730 c3        1 AOR      0.112800
      8 NE          2.7780   -1.5690    2.4660 n4        1 AOR     -0.863600
      9 N1          2.0120    2.1510   -0.5740 n4        1 AOR     -0.672800
     10 C1          1.9970    2.1840   -2.0900 c         1 AOR      0.565100
     11 O1          2.4950    3.1840   -2.5830 o         1 AOR     -0.423100
     12 C2          1.3760    1.0130   -2.7660 c3        1 AOR     -0.186100
     13 HA          3.8690    1.1020   -0.7600 hx        1 AOR      0.119700
     14 HB1         4.0260    2.4130    1.3730 hc        1 AOR      0.067700
     15 HB2         2.5620    1.5710    2.0360 hc        1 AOR      0.067700
     16 HG1         4.7320   -0.2960    1.0460 hc        1 AOR      0.101700
     17 HG2         5.2570    0.8130    2.3760 hc        1 AOR      0.101700
     18 HD1         4.5540   -1.0830    3.5120 hx        1 AOR      0.100700
     19 HD2         3.1700    0.0990    3.7210 hx        1 AOR      0.100700
     20 HNE1        2.6200   -2.2840    3.1760 hn        1 AOR      0.478133
     21 HNE2        3.1500   -2.0100    1.6020 hn        1 AOR      0.478133
     22 HN1         2.2470    3.0800   -0.2100 hn        1 AOR      0.462300
     23 H21         0.2770    0.9750   -2.5470 hc        1 AOR      0.120033
     24 H22         1.8420    0.0520   -2.4160 hc        1 AOR      0.120033
     25 H23         1.5260    1.1160   -3.8730 hc        1 AOR      0.120033
     26 HE3         1.8700   -1.1400    2.2030 hn        1 AOR      0.478133
     27 H12         1.0770    1.8700   -0.2300 hn        1 AOR      0.462300
@<TRIPOS>BOND
     1    1    2 1   
     2    1    5 1   
     3    1    9 1   
     4    1   13 1   
     5    2    3 1   
     6    2    4 1   
     7    5    6 1   
     8    5   14 1   
     9    5   15 1   
    10    6    7 1   
    11    6   16 1   
    12    6   17 1   
    13    7    8 1   
    14    7   18 1   
    15    7   19 1   
    16    8   20 1   
    17    8   21 1   
    18    8   26 1   
    19    9   10 1   
    20    9   22 1   
    21    9   27 1   
    22   10   11 2   
    23   10   12 1   
    24   12   23 1   
    25   12   24 1   
    26   12   25 1   
@<TRIPOS>SUBSTRUCTURE
     1 AOR         1 TEMP              0 ****  ****    0 ROOT
