@<TRIPOS>MOLECULE
AOR
   27    26     1     0     0
SMALL
bcc


@<TRIPOS>ATOM
      1 CA          2.9910    1.1780    0.0010 c3        1 AOR     -0.026500
      2 C           2.3000   -0.2240   -0.0770 c         1 AOR      0.884600
      3 O           1.1310   -0.2910    0.3990 o         1 AOR     -0.784800
      4 OXT         2.9950   -1.1870   -0.4780 o         1 AOR     -0.784800
      5 CB          3.4360    1.3590    1.4590 c3        1 AOR     -0.093400
      6 CG          4.3320    0.2140    1.9010 c3        1 AOR     -0.105400
      7 CD          3.6880   -0.7600    2.8840 c3        1 AOR      0.112800
      8 NE          2.7550   -1.7430    2.2710 nz        1 AOR     -0.863600
      9 N1          2.0210    2.2330   -0.4340 ny        1 AOR     -0.672800
     10 C1          2.0310    2.4020   -1.9410 c         1 AOR      0.565100
     11 O1          2.5340    3.4440   -2.3340 o         1 AOR     -0.423100
     12 C2          1.4250    1.2970   -2.7310 c3        1 AOR     -0.186100
     13 HA          3.8850    1.2100   -0.6840 hx        1 AOR      0.119700
     14 HB1         4.0020    2.3240    1.5610 hc        1 AOR      0.067700
     15 HB2         2.5320    1.4220    2.1220 hc        1 AOR      0.067700
     16 HG1         5.2240    0.6450    2.4360 hc        1 AOR      0.101700
     17 HG2         4.7250   -0.3420    1.0030 hc        1 AOR      0.101700
     18 HD1         3.1180   -0.1950    3.6770 hx        1 AOR      0.100700
     19 HD2         4.5110   -1.3480    3.3860 hx        1 AOR      0.100700
     20 HNE1        1.8490   -1.2950    2.0330 hn        1 AOR      0.478133
     21 HNE2        2.5880   -2.5200    2.9110 hn        1 AOR      0.478133
     22 HN1         2.2460    3.1260    0.0160 hn        1 AOR      0.462300
     23 H21         1.8870    0.3080   -2.4590 hc        1 AOR      0.120033
     24 H22         1.5940    1.4980   -3.8200 hc        1 AOR      0.120033
     25 H23         0.3220    1.2380   -2.5350 hc        1 AOR      0.120033
     26 HE3         3.1430   -2.1040    1.3770 hn        1 AOR      0.478133
     27 H12         1.0820    1.9200   -0.1320 hn        1 AOR      0.462300
@<TRIPOS>BOND
     1    1    2 1   
     2    1    5 1   
     3    1    9 1   
     4    1   13 1   
     5    2    3 1   
     6    2    4 1   
     7    5    6 1   
     8    5   14 1   
     9    5   15 1   
    10    6    7 1   
    11    6   16 1   
    12    6   17 1   
    13    7    8 1   
    14    7   18 1   
    15    7   19 1   
    16    8   20 1   
    17    8   21 1   
    18    8   26 1   
    19    9   10 1   
    20    9   22 1   
    21    9   27 1   
    22   10   11 2   
    23   10   12 1   
    24   12   23 1   
    25   12   24 1   
    26   12   25 1   
@<TRIPOS>SUBSTRUCTURE
     1 AOR         1 TEMP              0 ****  ****    0 ROOT
