@<TRIPOS>MOLECULE
AOR
   25    24     1     0     0
SMALL
bcc


@<TRIPOS>ATOM
      1 CA         -0.5430    0.1160   -0.5870 c3        1 AOR     -0.041300
      2 C          -2.0510    0.2240   -0.5970 c         1 AOR      0.910600
      3 O          -2.6090    1.2770   -0.1890 o         1 AOR     -0.833300
      4 OXT        -2.7490   -0.7340   -1.0210 o         1 AOR     -0.833300
      5 CB         -0.0490    0.0880    0.8430 c3        1 AOR     -0.057400
      6 CG          0.1150   -1.3470    1.2920 c3        1 AOR     -0.131400
      7 CD          0.6300   -1.3740    2.7140 c3        1 AOR      0.143800
      8 NE          0.8080   -2.7270    3.1290 n3        1 AOR     -0.907800
      9 N1          0.0170    1.2340   -1.2590 n         1 AOR     -0.523900
     10 C1          0.0480    1.2660   -2.6770 c         1 AOR      0.641100
     11 O1         -0.4190    0.3440   -3.3160 o         1 AOR     -0.660100
     12 C2          0.6750    2.4420   -3.3940 c3        1 AOR     -0.175100
     13 HA         -0.2720   -0.7070   -1.0410 h1        1 AOR      0.061700
     14 HB1         0.8130    0.5480    0.8990 hc        1 AOR      0.028700
     15 HB2        -0.6970    0.5390    1.4200 hc        1 AOR      0.028700
     16 HG1        -0.7500   -1.8020    1.2500 hc        1 AOR      0.064200
     17 HG2         0.7520   -1.8020    0.7060 hc        1 AOR      0.064200
     18 HD1         1.4880   -0.9030    2.7600 h1        1 AOR      0.039700
     19 HD2        -0.0160   -0.9340    3.3040 h1        1 AOR      0.039700
     20 HNE1        1.6950   -2.8790    3.3040 hn        1 AOR      0.334300
     21 HNE2        0.3170   -2.8810    3.8870 hn        1 AOR      0.334300
     22 HN1         0.3660    1.9270   -0.7800 hn        1 AOR      0.326500
     23 H21         1.6460    2.4230   -3.2660 hc        1 AOR      0.048700
     24 H22         0.3140    3.2770   -3.0290 hc        1 AOR      0.048700
     25 H23         0.4700    2.3880   -4.3510 hc        1 AOR      0.048700
@<TRIPOS>BOND
     1    1    2 1   
     2    1    5 1   
     3    1    9 1   
     4    1   13 1   
     5    2    3 1   
     6    2    4 1   
     7    5    6 1   
     8    5   14 1   
     9    5   15 1   
    10    6    7 1   
    11    6   16 1   
    12    6   17 1   
    13    7    8 1   
    14    7   18 1   
    15    7   19 1   
    16    8   20 1   
    17    8   21 1   
    18    9   10 1   
    19    9   22 1   
    20   10   11 2   
    21   10   12 1   
    22   12   23 1   
    23   12   24 1   
    24   12   25 1   
@<TRIPOS>SUBSTRUCTURE
     1 AOR         1 TEMP              0 ****  ****    0 ROOT
