@<TRIPOS>MOLECULE
AOR
   25    24     1     0     0
SMALL
bcc


@<TRIPOS>ATOM
      1 CA          0.3610   -0.5450    0.0690 c3        1 AOR     -0.047300
      2 C           1.2000   -1.8490   -0.2100 c         1 AOR      0.911600
      3 O           2.1370   -1.7980   -1.0550 o         1 AOR     -0.831300
      4 OXT         0.8730   -2.8710    0.4490 o         1 AOR     -0.831300
      5 CB         -1.0870   -0.8170   -0.3560 c3        1 AOR     -0.067400
      6 CG         -2.0570    0.1500    0.2830 c3        1 AOR     -0.121400
      7 CD         -3.4750   -0.0720   -0.2400 c3        1 AOR      0.140800
      8 NE         -4.4990    0.7870    0.3110 n3        1 AOR     -0.907800
      9 N1          0.9430    0.6100   -0.5840 n         1 AOR     -0.516900
     10 C1          1.0120    1.8530   -0.0150 c         1 AOR      0.639100
     11 O1          0.3310    2.1960    0.9810 o         1 AOR     -0.665100
     12 C2          1.9170    2.8680   -0.6880 c3        1 AOR     -0.176100
     13 HA          0.3710   -0.3740    1.1850 h1        1 AOR      0.057700
     14 HB1        -1.1810   -0.7740   -1.4720 hc        1 AOR      0.049200
     15 HB2        -1.3290   -1.8670   -0.0350 hc        1 AOR      0.049200
     16 HG1        -2.0350    0.0140    1.3970 hc        1 AOR      0.045200
     17 HG2        -1.7310    1.2050    0.0810 hc        1 AOR      0.045200
     18 HD1        -3.4770    0.0700   -1.3580 h1        1 AOR      0.043200
     19 HD2        -3.7750   -1.1390   -0.0350 h1        1 AOR      0.043200
     20 HNE1       -4.5530    0.6630    1.3040 hn        1 AOR      0.333300
     21 HNE2       -4.2690    1.7480    0.1370 hn        1 AOR      0.333300
     22 HN1         1.6320    0.3660   -1.2700 hn        1 AOR      0.325500
     23 H21         2.9790    2.5270   -0.6410 hc        1 AOR      0.049367
     24 H22         1.6270    3.0070   -1.7560 hc        1 AOR      0.049367
     25 H23         1.8240    3.8440   -0.1550 hc        1 AOR      0.049367
@<TRIPOS>BOND
     1    1    2 1   
     2    1    5 1   
     3    1    9 1   
     4    1   13 1   
     5    2    3 1   
     6    2    4 1   
     7    5    6 1   
     8    5   14 1   
     9    5   15 1   
    10    6    7 1   
    11    6   16 1   
    12    6   17 1   
    13    7    8 1   
    14    7   18 1   
    15    7   19 1   
    16    8   20 1   
    17    8   21 1   
    18    9   10 1   
    19    9   22 1   
    20   10   11 2   
    21   10   12 1   
    22   12   23 1   
    23   12   24 1   
    24   12   25 1   
@<TRIPOS>SUBSTRUCTURE
     1 AOR         1 TEMP              0 ****  ****    0 ROOT
