@<TRIPOS>MOLECULE
AOS
   24    22     1     0     0
SMALL
bcc


@<TRIPOS>ATOM
      1 C1         -2.9550   -1.2160    1.1650 c1        1 AOS      0.172000
      2 O1         -3.5640   -0.5730    2.0000 o         1 AOS     -0.287000
      3 C2         -1.4430   -1.2160    1.1650 c2        1 AOS     -0.044000
      4 O2         -0.9740   -1.2160    2.4930 oh        1 AOS     -0.326000
      5 C3         -0.9390    0.0180    0.4530 c3        1 AOS     -0.014000
      6 O3         -1.8690    0.4030   -0.5330 oh        1 AOS     -0.340000
      7 C4          0.3900   -0.2840   -0.1990 c3        1 AOS      0.009000
      8 O4          1.2570   -0.8620    0.7480 oh        1 AOS     -0.335000
      9 C5          0.9980    0.9970   -0.7230 c3        1 AOS      0.030000
     10 O5          0.1970    1.5050   -1.7630 oh        1 AOS     -0.348000
     11 C6          2.3880    0.7180   -1.2470 c3        1 AOS     -0.048000
     12 O6          2.9190    1.8930   -1.8200 oh        1 AOS     -0.349000
     13 H1         -3.4430   -1.7680    0.5250 ha        1 AOS      0.129000
     14 H2         -1.1180   -2.0130    0.7050 h4        1 AOS      0.141000
     15 HO2        -0.9130   -2.0520    2.7850 ho        1 AOS      0.227000
     16 H3         -0.8290    0.7430    1.0970 h1        1 AOS      0.092000
     17 HO3        -2.2340    1.1800   -0.3070 ho        1 AOS      0.237000
     18 H4          0.2560   -0.9070   -0.9390 h1        1 AOS      0.102000
     19 HO4         1.5370   -1.6500    0.4520 ho        1 AOS      0.233000
     20 H5          1.0470    1.6520   -0.0010 h1        1 AOS      0.095000
     21 HO5         0.1850    2.3910   -1.7220 ho        1 AOS      0.233000
     22 H61         2.3460    0.0160   -1.9240 h1        1 AOS      0.089500
     23 H62         2.9610    0.4270   -0.5120 h1        1 AOS      0.089500
     24 HO6         3.8000    1.8130   -1.8960 ho        1 AOS      0.212000
@<TRIPOS>BOND
     1    1    2 1   
     2    1   13 1   
     3    3    4 1   
     4    3    5 1   
     5    3   14 1   
     6    4   15 1   
     7    5    6 1   
     8    5    7 1   
     9    5   16 1   
    10    6   17 1   
    11    7    8 1   
    12    7    9 1   
    13    7   18 1   
    14    8   19 1   
    15    9   10 1   
    16    9   11 1   
    17    9   20 1   
    18   10   21 1   
    19   11   12 1   
    20   11   22 1   
    21   11   23 1   
    22   12   24 1   
@<TRIPOS>SUBSTRUCTURE
     1 AOS         1 TEMP              0 ****  ****    0 ROOT
