@<TRIPOS>MOLECULE
AOS
   24    23     1     0     0
SMALL
bcc


@<TRIPOS>ATOM
      1 C1          0.5480   -5.0050    3.6910 c         1 AOS      0.546900
      2 O1         -0.3710   -5.7000    4.1230 o         1 AOS     -0.520100
      3 C2          0.9580   -3.7220    4.3800 c3        1 AOS     -0.003900
      4 O2          0.2700   -3.5020    5.6000 oh        1 AOS     -0.598800
      5 C3          0.7370   -2.4820    3.4920 c3        1 AOS      0.097100
      6 O3         -0.6510   -2.2120    3.3630 oh        1 AOS     -0.608800
      7 C4          1.2730   -2.6600    2.0610 c3        1 AOS      0.105100
      8 O4          2.4790   -3.4010    2.0590 oh        1 AOS     -0.592800
      9 C5          1.4670   -1.2990    1.3710 c3        1 AOS      0.074100
     10 O5          0.6020   -0.2990    1.8730 oh        1 AOS     -0.600800
     11 C6          1.2750   -1.4390   -0.1440 c3        1 AOS      0.104400
     12 O6          1.5920   -0.2340   -0.8060 oh        1 AOS     -0.592800
     13 H1          1.1400   -5.2650    2.7870 h4        1 AOS      0.038200
     14 H2          2.0510   -3.7920    4.6480 h1        1 AOS      0.091700
     15 HO2        -0.5370   -4.0400    5.5900 ho        1 AOS      0.428000
     16 H3          1.2440   -1.6030    3.9820 h1        1 AOS      0.067700
     17 HO3        -0.9750   -2.0130    4.2520 ho        1 AOS      0.428000
     18 H4          0.5520   -3.2970    1.4710 h1        1 AOS      0.095700
     19 HO4         3.1540   -2.8670    2.4980 ho        1 AOS      0.409000
     20 H5          2.5000   -0.8970    1.5830 h1        1 AOS      0.085700
     21 HO5        -0.2970   -0.6580    1.8800 ho        1 AOS      0.423000
     22 H61         0.2160   -1.7340   -0.3710 h1        1 AOS      0.054700
     23 H62         1.9830   -2.2040   -0.5580 h1        1 AOS      0.054700
     24 HO6         1.1110    0.4730   -0.3550 ho        1 AOS      0.413000
@<TRIPOS>BOND
     1    1    2 2   
     2    1    3 1   
     3    1   13 1   
     4    3    4 1   
     5    3    5 1   
     6    3   14 1   
     7    4   15 1   
     8    5    6 1   
     9    5    7 1   
    10    5   16 1   
    11    6   17 1   
    12    7    8 1   
    13    7    9 1   
    14    7   18 1   
    15    8   19 1   
    16    9   10 1   
    17    9   11 1   
    18    9   20 1   
    19   10   21 1   
    20   11   12 1   
    21   11   22 1   
    22   11   23 1   
    23   12   24 1   
@<TRIPOS>SUBSTRUCTURE
     1 AOS         1 TEMP              0 ****  ****    0 ROOT
