@<TRIPOS>MOLECULE
AOX
   51    54     1     0     0
SMALL
bcc


@<TRIPOS>ATOM
      1 C1         -2.3610   -1.5090    0.4630 c3        1 AOX     -0.068400
      2 C2         -3.8490   -1.4310    0.2000 c3        1 AOX     -0.113400
      3 C3         -4.4280   -0.0850    0.6220 c3        1 AOX      0.142100
      4 C4         -3.6710    1.0710   -0.0240 c3        1 AOX     -0.071400
      5 C5         -2.1910    0.9650    0.2940 c3        1 AOX     -0.055700
      6 C6         -1.4330    2.1640   -0.2490 c3        1 AOX     -0.072400
      7 C7          0.0130    2.1220    0.1960 c3        1 AOX     -0.073400
      8 C8          0.6780    0.8180   -0.2140 c3        1 AOX     -0.046700
      9 C9         -0.1150   -0.3950    0.3080 c3        1 AOX     -0.049700
     10 C10        -1.5750   -0.3640   -0.1910 c3        1 AOX     -0.036000
     11 C11         0.5860   -1.7130   -0.0020 c3        1 AOX     -0.076400
     12 C12         2.0520   -1.7500    0.4030 c3        1 AOX     -0.056400
     13 C13         2.7920   -0.5520   -0.1590 c3        1 AOX     -0.152000
     14 C14         2.0780    0.7190    0.3550 c3        1 AOX     -0.063700
     15 C15         3.0840    1.8410    0.1220 c3        1 AOX     -0.072400
     16 C16         4.4420    1.1860    0.3900 c3        1 AOX     -0.188400
     17 C17         4.2160   -0.3130    0.3330 c         1 AOX      0.577100
     18 C18         2.8840   -0.6420   -1.6770 c3        1 AOX     -0.082100
     19 C19        -1.6500   -0.5130   -1.7020 c3        1 AOX     -0.086100
     20 O3         -5.7840    0.0400    0.2070 oh        1 AOX     -0.600800
     21 O17         5.0450   -1.1710    0.6240 o         1 AOX     -0.520100
     22 H1         -2.1770   -1.4900    1.5700 hc        1 AOX      0.042700
     23 H2         -1.9820   -2.4890    0.0720 hc        1 AOX      0.042700
     24 H3         -4.0580   -1.5920   -0.8900 hc        1 AOX      0.046700
     25 H4         -4.3670   -2.2500    0.7640 hc        1 AOX      0.046700
     26 H5         -4.3800    0.0090    1.7450 h1        1 AOX      0.030700
     27 H6         -3.8490    1.0670   -1.1290 hc        1 AOX      0.056200
     28 H7         -4.0750    2.0380    0.3730 hc        1 AOX      0.056200
     29 H8         -2.0870    0.9780    1.4190 hc        1 AOX      0.045700
     30 H9         -1.4930    2.1810   -1.3680 hc        1 AOX      0.044200
     31 H10        -1.9120    3.1070    0.1250 hc        1 AOX      0.044200
     32 H11         0.5760    2.9800   -0.2560 hc        1 AOX      0.041200
     33 H12         0.0660    2.2360    1.3110 hc        1 AOX      0.041200
     34 H13         0.7280    0.7830   -1.3370 hc        1 AOX      0.057700
     35 H14        -0.1540   -0.3000    1.4330 hc        1 AOX      0.044700
     36 H15         0.0580   -2.5390    0.5440 hc        1 AOX      0.043700
     37 H16         0.5030   -1.9340   -1.0990 hc        1 AOX      0.043700
     38 H17         2.1390   -1.7520    1.5210 hc        1 AOX      0.050700
     39 H18         2.5200   -2.6980    0.0280 hc        1 AOX      0.050700
     40 H19         1.9720    0.6140    1.4760 hc        1 AOX      0.050700
     41 H20         3.0230    2.2250   -0.9260 hc        1 AOX      0.049700
     42 H21         2.9010    2.6990    0.8130 hc        1 AOX      0.049700
     43 H22         5.2000    1.4820   -0.3770 hc        1 AOX      0.074700
     44 H23         4.8380    1.4690    1.3960 hc        1 AOX      0.074700
     45 H24         1.8760   -0.7800   -2.1350 hc        1 AOX      0.043367
     46 H25         3.3380    0.2880   -2.0970 hc        1 AOX      0.043367
     47 H26         3.5220   -1.5140   -1.9600 hc        1 AOX      0.043367
     48 H27        -1.0030    0.2360   -2.2170 hc        1 AOX      0.037033
     49 H28        -1.3180   -1.5350   -2.0080 hc        1 AOX      0.037033
     50 H29        -2.6970   -0.3710   -2.0610 hc        1 AOX      0.037033
     51 H30        -6.2520   -0.7280    0.5540 ho        1 AOX      0.398000
@<TRIPOS>BOND
     1    1    2 1   
     2    1   10 1   
     3    1   22 1   
     4    1   23 1   
     5    2    3 1   
     6    2   24 1   
     7    2   25 1   
     8    3    4 1   
     9    3   20 1   
    10    3   26 1   
    11    4    5 1   
    12    4   27 1   
    13    4   28 1   
    14    5    6 1   
    15    5   10 1   
    16    5   29 1   
    17    6    7 1   
    18    6   30 1   
    19    6   31 1   
    20    7    8 1   
    21    7   32 1   
    22    7   33 1   
    23    8    9 1   
    24    8   14 1   
    25    8   34 1   
    26    9   10 1   
    27    9   11 1   
    28    9   35 1   
    29   10   19 1   
    30   11   12 1   
    31   11   36 1   
    32   11   37 1   
    33   12   13 1   
    34   12   38 1   
    35   12   39 1   
    36   13   14 1   
    37   13   17 1   
    38   13   18 1   
    39   14   15 1   
    40   14   40 1   
    41   15   16 1   
    42   15   41 1   
    43   15   42 1   
    44   16   17 1   
    45   16   43 1   
    46   16   44 1   
    47   17   21 2   
    48   18   45 1   
    49   18   46 1   
    50   18   47 1   
    51   19   48 1   
    52   19   49 1   
    53   19   50 1   
    54   20   51 1   
@<TRIPOS>SUBSTRUCTURE
     1 AOX         1 TEMP              0 ****  ****    0 ROOT
