@<TRIPOS>MOLECULE
AOX
   51    54     1     0     0
SMALL
bcc


@<TRIPOS>ATOM
      1 C1          0.0620   -0.0040    0.0330 c3        1 AOX     -0.068400
      2 C2          1.5500    0.2180    0.1900 c3        1 AOX     -0.113400
      3 C3          1.9850    0.1360    1.6490 c3        1 AOX      0.142100
      4 C4          1.5310   -1.1720    2.2880 c3        1 AOX     -0.071400
      5 C5          0.0300   -1.3340    2.1310 c3        1 AOX     -0.055700
      6 C6         -0.4590   -2.5770    2.8550 c3        1 AOX     -0.072400
      7 C7         -1.9700   -2.6520    2.8160 c3        1 AOX     -0.073400
      8 C8         -2.4870   -2.6060    1.3880 c3        1 AOX     -0.046700
      9 C9         -1.9590   -1.3630    0.6480 c3        1 AOX     -0.049700
     10 C10        -0.4160   -1.3230    0.6550 c3        1 AOX     -0.036000
     11 C11        -2.5450   -1.2400   -0.7550 c3        1 AOX     -0.076400
     12 C12        -4.0610   -1.3560   -0.8100 c3        1 AOX     -0.056400
     13 C13        -4.5270   -2.6090   -0.0930 c3        1 AOX     -0.152000
     14 C14        -4.0000   -2.5370    1.3590 c3        1 AOX     -0.063700
     15 C15        -4.8320   -3.5670    2.1160 c3        1 AOX     -0.072400
     16 C16        -6.2160   -3.4790    1.4660 c3        1 AOX     -0.188400
     17 C17        -6.0260   -2.7660    0.1410 c         1 AOX      0.577100
     18 C18        -4.0880   -3.8550   -0.8520 c3        1 AOX     -0.082100
     19 C19         0.1740   -2.4830   -0.1310 c3        1 AOX     -0.086100
     20 O3          3.4030    0.1690    1.7620 oh        1 AOX     -0.600800
     21 O17        -6.9280   -2.3970   -0.6050 o         1 AOX     -0.520100
     22 H1         -0.4930    0.8450    0.5100 hc        1 AOX      0.042700
     23 H2         -0.1850    0.0000   -1.0610 hc        1 AOX      0.042700
     24 H3          2.1200   -0.5440   -0.4040 hc        1 AOX      0.046700
     25 H4          1.8190    1.2280   -0.2200 hc        1 AOX      0.046700
     26 H5          1.5520    1.0080    2.2190 h1        1 AOX      0.030700
     27 H6          2.0810   -2.0300    1.8240 hc        1 AOX      0.056200
     28 H7          1.7990   -1.1570    3.3770 hc        1 AOX      0.056200
     29 H8         -0.4570   -0.4410    2.6230 hc        1 AOX      0.045700
     30 H9         -0.0140   -3.4930    2.3870 hc        1 AOX      0.044200
     31 H10        -0.1140   -2.5460    3.9220 hc        1 AOX      0.044200
     32 H11        -2.4040   -1.7970    3.4000 hc        1 AOX      0.041200
     33 H12        -2.3170   -3.6010    3.3030 hc        1 AOX      0.041200
     34 H13        -2.1460   -3.5360    0.8570 hc        1 AOX      0.057700
     35 H14        -2.3090   -0.4610    1.2320 hc        1 AOX      0.044700
     36 H15        -2.2610   -0.2390   -1.1770 hc        1 AOX      0.043700
     37 H16        -2.0930   -2.0210   -1.4210 hc        1 AOX      0.043700
     38 H17        -4.3960   -1.3820   -1.8790 hc        1 AOX      0.050700
     39 H18        -4.5300   -0.4570   -0.3320 hc        1 AOX      0.050700
     40 H19        -4.2920   -1.5260    1.7720 hc        1 AOX      0.050700
     41 H20        -4.8760   -3.3290    3.2060 hc        1 AOX      0.049700
     42 H21        -4.4000   -4.5920    2.0050 hc        1 AOX      0.049700
     43 H22        -6.6520   -4.4940    1.2900 hc        1 AOX      0.074700
     44 H23        -6.9280   -2.9020    2.1060 hc        1 AOX      0.074700
     45 H24        -4.3430   -4.7750   -0.2720 hc        1 AOX      0.043367
     46 H25        -2.9890   -3.8490   -1.0380 hc        1 AOX      0.043367
     47 H26        -4.6140   -3.8930   -1.8370 hc        1 AOX      0.043367
     48 H27         1.2850   -2.5110   -0.0200 hc        1 AOX      0.037033
     49 H28        -0.2330   -3.4610    0.2200 hc        1 AOX      0.037033
     50 H29        -0.0590   -2.3740   -1.2180 hc        1 AOX      0.037033
     51 H30         3.7000    0.9590    1.2960 ho        1 AOX      0.398000
@<TRIPOS>BOND
     1    1    2 1   
     2    1   10 1   
     3    1   22 1   
     4    1   23 1   
     5    2    3 1   
     6    2   24 1   
     7    2   25 1   
     8    3    4 1   
     9    3   20 1   
    10    3   26 1   
    11    4    5 1   
    12    4   27 1   
    13    4   28 1   
    14    5    6 1   
    15    5   10 1   
    16    5   29 1   
    17    6    7 1   
    18    6   30 1   
    19    6   31 1   
    20    7    8 1   
    21    7   32 1   
    22    7   33 1   
    23    8    9 1   
    24    8   14 1   
    25    8   34 1   
    26    9   10 1   
    27    9   11 1   
    28    9   35 1   
    29   10   19 1   
    30   11   12 1   
    31   11   36 1   
    32   11   37 1   
    33   12   13 1   
    34   12   38 1   
    35   12   39 1   
    36   13   14 1   
    37   13   17 1   
    38   13   18 1   
    39   14   15 1   
    40   14   40 1   
    41   15   16 1   
    42   15   41 1   
    43   15   42 1   
    44   16   17 1   
    45   16   43 1   
    46   16   44 1   
    47   17   21 2   
    48   18   45 1   
    49   18   46 1   
    50   18   47 1   
    51   19   48 1   
    52   19   49 1   
    53   19   50 1   
    54   20   51 1   
@<TRIPOS>SUBSTRUCTURE
     1 AOX         1 TEMP              0 ****  ****    0 ROOT
