@<TRIPOS>MOLECULE
AOX
   51    54     1     0     0
SMALL
bcc


@<TRIPOS>ATOM
      1 C1          1.7790    1.7760   -1.0310 c3        1 AOX     -0.068400
      2 C2          3.3880    1.7760   -1.0310 c3        1 AOX     -0.113400
      3 C3          3.9380    1.7760    0.3070 c3        1 AOX      0.142100
      4 C4          3.3300    0.6300    1.2050 c3        1 AOX     -0.071400
      5 C5          1.6890    0.6370    1.1790 c3        1 AOX     -0.055700
      6 C6          1.1690   -0.3630    1.9320 c3        1 AOX     -0.072400
      7 C7         -0.5080   -0.3820    1.8550 c3        1 AOX     -0.073400
      8 C8         -0.9180   -0.3940    0.7560 c3        1 AOX     -0.046700
      9 C9         -0.3760    0.6230   -0.0920 c3        1 AOX     -0.049700
     10 C10         1.1770    0.6140   -0.1000 c3        1 AOX     -0.036000
     11 C11        -0.9470    0.5090   -1.6790 c3        1 AOX     -0.076400
     12 C12        -2.2310    0.4300   -1.7160 c3        1 AOX     -0.056400
     13 C13        -2.6800   -0.5560   -0.9020 c3        1 AOX     -0.152000
     14 C14        -2.0210   -0.4420    0.7340 c3        1 AOX     -0.063700
     15 C15        -2.5360   -1.5860    1.3310 c3        1 AOX     -0.072400
     16 C16        -4.2070   -1.6070    0.7580 c3        1 AOX     -0.188400
     17 C17        -4.0180   -0.5110   -0.6740 c         1 AOX      0.577100
     18 C18        -2.3110   -1.9300   -1.5090 c3        1 AOX     -0.082100
     19 C19         1.6120   -0.7320   -0.7310 c3        1 AOX     -0.086100
     20 O3          5.3550    1.5960    0.2250 oh        1 AOX     -0.600800
     21 O17        -4.8800   -0.2580   -1.5040 o         1 AOX     -0.520100
     22 H1          1.4620    2.6390   -0.7050 hc        1 AOX      0.042700
     23 H2          1.4620    1.6460   -1.9450 hc        1 AOX      0.042700
     24 H3          3.7040    2.5700   -1.5020 hc        1 AOX      0.046700
     25 H4          3.7040    0.9810   -1.5020 hc        1 AOX      0.046700
     26 H5          3.7520    2.6380    0.7260 h1        1 AOX      0.030700
     27 H6          3.6490   -0.2320    0.8780 hc        1 AOX      0.056200
     28 H7          3.6330    0.7530    2.1250 hc        1 AOX      0.056200
     29 H8          1.4020    1.4770    1.5850 hc        1 AOX      0.045700
     30 H9          1.5130   -1.2170    1.6090 hc        1 AOX      0.044200
     31 H10         1.4440   -0.2390    2.8600 hc        1 AOX      0.044200
     32 H11        -0.8340   -1.1760    2.3200 hc        1 AOX      0.041200
     33 H12        -0.8520    0.4110    2.3090 hc        1 AOX      0.041200
     34 H13        -0.6120   -1.2390    0.3740 hc        1 AOX      0.057700
     35 H14        -0.6640    1.4860    0.2630 hc        1 AOX      0.044700
     36 H15        -0.5670   -0.2860   -2.0980 hc        1 AOX      0.043700
     37 H16        -0.6620    1.2990   -2.1770 hc        1 AOX      0.043700
     38 H17        -2.5140    0.2440   -2.6320 hc        1 AOX      0.050700
     39 H18        -2.6130    1.2810   -1.4300 hc        1 AOX      0.050700
     40 H19        -2.3880    0.3470    1.1760 hc        1 AOX      0.050700
     41 H20        -2.5050   -1.5130    2.3040 hc        1 AOX      0.049700
     42 H21        -2.0570   -2.3800    1.0270 hc        1 AOX      0.049700
     43 H22        -4.6410   -2.4650    0.5930 hc        1 AOX      0.074700
     44 H23        -4.7940   -1.2150    1.4330 hc        1 AOX      0.074700
     45 H24        -2.4020   -1.8910   -2.4810 hc        1 AOX      0.043367
     46 H25        -1.3890   -2.1510   -1.2780 hc        1 AOX      0.043367
     47 H26        -2.9090   -2.6140   -1.1540 hc        1 AOX      0.043367
     48 H27         1.1060   -1.4610   -0.3250 hc        1 AOX      0.037033
     49 H28         2.5660   -0.8720   -0.5750 hc        1 AOX      0.037033
     50 H29         1.4400   -0.7120   -1.6920 hc        1 AOX      0.037033
     51 H30         5.7630    2.2880    0.6010 ho        1 AOX      0.398000
@<TRIPOS>BOND
     1    1    2 1   
     2    1   10 1   
     3    1   22 1   
     4    1   23 1   
     5    2    3 1   
     6    2   24 1   
     7    2   25 1   
     8    3    4 1   
     9    3   20 1   
    10    3   26 1   
    11    4    5 1   
    12    4   27 1   
    13    4   28 1   
    14    5    6 1   
    15    5   10 1   
    16    5   29 1   
    17    6    7 1   
    18    6   30 1   
    19    6   31 1   
    20    7    8 1   
    21    7   32 1   
    22    7   33 1   
    23    8    9 1   
    24    8   14 1   
    25    8   34 1   
    26    9   10 1   
    27    9   11 1   
    28    9   35 1   
    29   10   19 1   
    30   11   12 1   
    31   11   36 1   
    32   11   37 1   
    33   12   13 1   
    34   12   38 1   
    35   12   39 1   
    36   13   14 1   
    37   13   17 1   
    38   13   18 1   
    39   14   15 1   
    40   14   40 1   
    41   15   16 1   
    42   15   41 1   
    43   15   42 1   
    44   16   17 1   
    45   16   43 1   
    46   16   44 1   
    47   17   21 2   
    48   18   45 1   
    49   18   46 1   
    50   18   47 1   
    51   19   48 1   
    52   19   49 1   
    53   19   50 1   
    54   20   51 1   
@<TRIPOS>SUBSTRUCTURE
     1 AOX         1 TEMP              0 ****  ****    0 ROOT
