@<TRIPOS>MOLECULE
AOX
   51    54     1     0     0
SMALL
bcc


@<TRIPOS>ATOM
      1 C1          0.0760   -0.0210    0.0320 c3        1 AOX     -0.068400
      2 C2          1.5650    0.1920    0.1930 c3        1 AOX     -0.113400
      3 C3          1.9940    0.1120    1.6540 c3        1 AOX      0.142100
      4 C4          1.5290   -1.1900    2.2970 c3        1 AOX     -0.071400
      5 C5          0.0280   -1.3430    2.1360 c3        1 AOX     -0.055700
      6 C6         -0.4720   -2.5790    2.8630 c3        1 AOX     -0.072400
      7 C7         -1.9840   -2.6440    2.8190 c3        1 AOX     -0.073400
      8 C8         -2.4960   -2.6010    1.3890 c3        1 AOX     -0.046700
      9 C9         -1.9570   -1.3640    0.6460 c3        1 AOX     -0.049700
     10 C10        -0.4130   -1.3350    0.6580 c3        1 AOX     -0.036000
     11 C11        -2.5370   -1.2420   -0.7590 c3        1 AOX     -0.076400
     12 C12        -4.0540   -1.3480   -0.8180 c3        1 AOX     -0.056400
     13 C13        -4.5300   -2.5950   -0.0980 c3        1 AOX     -0.152000
     14 C14        -4.0080   -2.5220    1.3550 c3        1 AOX     -0.063700
     15 C15        -4.8490   -3.5430    2.1140 c3        1 AOX     -0.072400
     16 C16        -6.2300   -3.4490    1.4590 c3        1 AOX     -0.188400
     17 C17        -6.0310   -2.7410    0.1320 c         1 AOX      0.577100
     18 C18        -4.0980   -3.8470   -0.8510 c3        1 AOX     -0.082100
     19 C19         0.1710   -2.5020   -0.1210 c3        1 AOX     -0.086100
     20 O3          3.4120    0.1350    1.7720 oh        1 AOX     -0.600800
     21 O17        -6.9280   -2.3690   -0.6190 o         1 AOX     -0.520100
     22 H1         -0.4750    0.8340    0.5050 hc        1 AOX      0.042700
     23 H2         -0.1680   -0.0200   -1.0630 hc        1 AOX      0.042700
     24 H3          1.8410    1.1980   -0.2190 hc        1 AOX      0.046700
     25 H4          2.1320   -0.5770   -0.3960 hc        1 AOX      0.046700
     26 H5          1.5660    0.9890    2.2190 h1        1 AOX      0.030700
     27 H6          2.0750   -2.0540    1.8380 hc        1 AOX      0.056200
     28 H7          1.7940   -1.1730    3.3860 hc        1 AOX      0.056200
     29 H8         -0.4550   -0.4440    2.6230 hc        1 AOX      0.045700
     30 H9         -0.0320   -3.5000    2.4000 hc        1 AOX      0.044200
     31 H10        -0.1310   -2.5470    3.9310 hc        1 AOX      0.044200
     32 H11        -2.4130   -1.7840    3.3980 hc        1 AOX      0.041200
     33 H12        -2.3390   -3.5890    3.3080 hc        1 AOX      0.041200
     34 H13        -2.1590   -3.5350    0.8630 hc        1 AOX      0.057700
     35 H14        -2.3030   -0.4570    1.2250 hc        1 AOX      0.044700
     36 H15        -2.2450   -0.2450   -1.1830 hc        1 AOX      0.043700
     37 H16        -2.0880   -2.0280   -1.4210 hc        1 AOX      0.043700
     38 H17        -4.3850   -1.3760   -1.8890 hc        1 AOX      0.050700
     39 H18        -4.5180   -0.4440   -0.3450 hc        1 AOX      0.050700
     40 H19        -4.2950   -1.5060    1.7640 hc        1 AOX      0.050700
     41 H20        -4.4240   -4.5720    2.0070 hc        1 AOX      0.049700
     42 H21        -4.8960   -3.3010    3.2020 hc        1 AOX      0.049700
     43 H22        -6.9410   -2.8640    2.0940 hc        1 AOX      0.074700
     44 H23        -6.6730   -4.4600    1.2850 hc        1 AOX      0.074700
     45 H24        -2.9980   -3.8490   -1.0340 hc        1 AOX      0.043367
     46 H25        -4.6200   -3.8850   -1.8380 hc        1 AOX      0.043367
     47 H26        -4.3610   -4.7630   -0.2690 hc        1 AOX      0.043367
     48 H27        -0.2430   -3.4750    0.2330 hc        1 AOX      0.037033
     49 H28         1.2820   -2.5370   -0.0060 hc        1 AOX      0.037033
     50 H29        -0.0580   -2.3950   -1.2090 hc        1 AOX      0.037033
     51 H30         3.7160    0.9210    1.3040 ho        1 AOX      0.398000
@<TRIPOS>BOND
     1    1    2 1   
     2    1   10 1   
     3    1   22 1   
     4    1   23 1   
     5    2    3 1   
     6    2   24 1   
     7    2   25 1   
     8    3    4 1   
     9    3   20 1   
    10    3   26 1   
    11    4    5 1   
    12    4   27 1   
    13    4   28 1   
    14    5    6 1   
    15    5   10 1   
    16    5   29 1   
    17    6    7 1   
    18    6   30 1   
    19    6   31 1   
    20    7    8 1   
    21    7   32 1   
    22    7   33 1   
    23    8    9 1   
    24    8   14 1   
    25    8   34 1   
    26    9   10 1   
    27    9   11 1   
    28    9   35 1   
    29   10   19 1   
    30   11   12 1   
    31   11   36 1   
    32   11   37 1   
    33   12   13 1   
    34   12   38 1   
    35   12   39 1   
    36   13   14 1   
    37   13   17 1   
    38   13   18 1   
    39   14   15 1   
    40   14   40 1   
    41   15   16 1   
    42   15   41 1   
    43   15   42 1   
    44   16   17 1   
    45   16   43 1   
    46   16   44 1   
    47   17   21 2   
    48   18   45 1   
    49   18   46 1   
    50   18   47 1   
    51   19   48 1   
    52   19   49 1   
    53   19   50 1   
    54   20   51 1   
@<TRIPOS>SUBSTRUCTURE
     1 AOX         1 TEMP              0 ****  ****    0 ROOT
