@<TRIPOS>MOLECULE
AP
   28    31     1     0     0
SMALL
bcc


@<TRIPOS>ATOM
      1 N1         -0.1260    0.0810    0.1360 nv        1 AP      -0.822200
      2 C1          1.2660    0.0020    0.0900 ca        1 AP       0.169600
      3 C2          1.9960   -0.0270    1.3040 ca        1 AP      -0.199000
      4 C3          3.3790   -0.0300    1.3100 ca        1 AP      -0.070000
      5 C3A         4.1040   -0.0180    0.1120 ca        1 AP      -0.082000
      6 C4          5.5420   -0.0330    0.1030 ca        1 AP      -0.098000
      7 C5          6.2390   -0.0240   -1.0600 ca        1 AP      -0.133000
      8 C5A         5.5620    0.0030   -2.3290 ca        1 AP      -0.021000
      9 C6          6.2680    0.0120   -3.5390 ca        1 AP      -0.125000
     10 C7          5.5880    0.0400   -4.7530 ca        1 AP      -0.120000
     11 C8          4.1960    0.0600   -4.7850 ca        1 AP      -0.126000
     12 C8A         3.4610    0.0520   -3.5920 ca        1 AP      -0.023000
     13 C9          2.0240    0.0770   -3.5840 ca        1 AP      -0.130000
     14 C10         1.3250    0.0650   -2.4220 ca        1 AP      -0.102000
     15 C1A         1.9800    0.0230   -1.1410 ca        1 AP      -0.092000
     16 C11         3.4010    0.0090   -1.1180 ca        1 AP       0.025000
     17 C12         4.1420    0.0210   -2.3490 ca        1 AP      -0.024000
     18 HN1        -0.5300   -0.2060    0.9990 hn        1 AP       0.396300
     19 HN2        -0.6040   -0.2700   -0.6630 hn        1 AP       0.396300
     20 H2          1.4570   -0.0380    2.2640 ha        1 AP       0.132000
     21 H3          3.9200   -0.0480    2.2700 ha        1 AP       0.133000
     22 H4          6.0580   -0.0520    1.0760 ha        1 AP       0.130000
     23 H5          7.3400   -0.0360   -1.0660 ha        1 AP       0.132000
     24 H6          7.3680   -0.0020   -3.5240 ha        1 AP       0.133000
     25 H7          6.1550    0.0470   -5.6960 ha        1 AP       0.132000
     26 H8          3.6660    0.0840   -5.7490 ha        1 AP       0.133000
     27 H9          1.5080    0.1120   -4.5560 ha        1 AP       0.132000
     28 H10         0.2260    0.1040   -2.4660 ha        1 AP       0.124000
@<TRIPOS>BOND
     1    1    2 1   
     2    1   18 1   
     3    1   19 1   
     4    2    3 ar  
     5    2   15 ar  
     6    3    4 ar  
     7    3   20 1   
     8    4    5 ar  
     9    4   21 1   
    10    5    6 ar  
    11    5   16 ar  
    12    6    7 ar  
    13    6   22 1   
    14    7    8 ar  
    15    7   23 1   
    16    8    9 ar  
    17    8   17 ar  
    18    9   10 ar  
    19    9   24 1   
    20   10   11 ar  
    21   10   25 1   
    22   11   12 ar  
    23   11   26 1   
    24   12   13 ar  
    25   12   17 ar  
    26   13   14 ar  
    27   13   27 1   
    28   14   15 ar  
    29   14   28 1   
    30   15   16 ar  
    31   16   17 ar  
@<TRIPOS>SUBSTRUCTURE
     1 AP          1 TEMP              0 ****  ****    0 ROOT
