@<TRIPOS>MOLECULE
AP
   29    32     1     0     0
SMALL
bcc


@<TRIPOS>ATOM
      1 N1         -0.1400    0.0020    0.1330 n4        1 AP      -0.688000
      2 C1          1.3210   -0.0040    0.1050 ca        1 AP      -0.118400
      3 C2          2.0220   -0.0110    1.3280 ca        1 AP      -0.086000
      4 C3          3.4040   -0.0170    1.3280 ca        1 AP      -0.116000
      5 C3A         4.1240   -0.0170    0.1180 ca        1 AP       0.044000
      6 C4          5.5590   -0.0230    0.1050 ca        1 AP      -0.149000
      7 C5          6.2500   -0.0230   -1.0660 ca        1 AP      -0.049000
      8 C5A         5.5690   -0.0170   -2.3320 ca        1 AP      -0.057000
      9 C6          6.2690   -0.0170   -3.5480 ca        1 AP      -0.059000
     10 C7          5.5820   -0.0110   -4.7590 ca        1 AP      -0.125000
     11 C8          4.1880   -0.0050   -4.7850 ca        1 AP      -0.061000
     12 C8A         3.4590   -0.0040   -3.5870 ca        1 AP      -0.076000
     13 C9          2.0240    0.0020   -3.5720 ca        1 AP      -0.009000
     14 C10         1.3250    0.0020   -2.4050 ca        1 AP      -0.213000
     15 C1A         1.9960   -0.0040   -1.1350 ca        1 AP       0.045000
     16 C11         3.4190   -0.0110   -1.1140 ca        1 AP      -0.027000
     17 C12         4.1500   -0.0110   -2.3470 ca        1 AP      -0.001000
     18 HN1        -0.4870    0.8410   -0.3460 hn        1 AP       0.457467
     19 HN2        -0.4950   -0.8310   -0.3510 hn        1 AP       0.457467
     20 H2          1.4840   -0.0110    2.2910 ha        1 AP       0.149000
     21 H3          3.9530   -0.0210    2.2840 ha        1 AP       0.169000
     22 H4          6.0830   -0.0280    1.0740 ha        1 AP       0.158000
     23 H5          7.3530   -0.0280   -1.0730 ha        1 AP       0.158000
     24 H6          7.3720   -0.0220   -3.5390 ha        1 AP       0.156000
     25 H7          6.1450   -0.0110   -5.7070 ha        1 AP       0.160000
     26 H8          3.6550    0.0000   -5.7490 ha        1 AP       0.153000
     27 H9          1.4990    0.0070   -4.5430 ha        1 AP       0.155000
     28 H10         0.2270    0.0070   -2.4470 ha        1 AP       0.116000
     29 H13        -0.4740    0.0010    1.1020 hn        1 AP       0.457467
@<TRIPOS>BOND
     1    1    2 1   
     2    1   18 1   
     3    1   19 1   
     4    1   29 1   
     5    2    3 ar  
     6    2   15 ar  
     7    3    4 ar  
     8    3   20 1   
     9    4    5 ar  
    10    4   21 1   
    11    5    6 ar  
    12    5   16 ar  
    13    6    7 ar  
    14    6   22 1   
    15    7    8 ar  
    16    7   23 1   
    17    8    9 ar  
    18    8   17 ar  
    19    9   10 ar  
    20    9   24 1   
    21   10   11 ar  
    22   10   25 1   
    23   11   12 ar  
    24   11   26 1   
    25   12   13 ar  
    26   12   17 ar  
    27   13   14 ar  
    28   13   27 1   
    29   14   15 ar  
    30   14   28 1   
    31   15   16 ar  
    32   16   17 ar  
@<TRIPOS>SUBSTRUCTURE
     1 AP          1 TEMP              0 ****  ****    0 ROOT
