@<TRIPOS>MOLECULE
AP
   28    31     1     0     0
SMALL
bcc


@<TRIPOS>ATOM
      1 N1         -0.1270   -0.0940    0.1300 nh        1 AP      -0.822200
      2 C1          1.2650   -0.0100    0.0850 ca        1 AP       0.169600
      3 C2          1.9930    0.0210    1.3000 ca        1 AP      -0.199000
      4 C3          3.3760    0.0290    1.3080 ca        1 AP      -0.070000
      5 C3A         4.1030    0.0190    0.1100 ca        1 AP      -0.082000
      6 C4          5.5400    0.0390    0.1020 ca        1 AP      -0.098000
      7 C5          6.2390    0.0320   -1.0600 ca        1 AP      -0.133000
      8 C5A         5.5630    0.0030   -2.3290 ca        1 AP      -0.021000
      9 C6          6.2700   -0.0040   -3.5390 ca        1 AP      -0.125000
     10 C7          5.5910   -0.0340   -4.7540 ca        1 AP      -0.120000
     11 C8          4.1990   -0.0580   -4.7870 ca        1 AP      -0.126000
     12 C8A         3.4630   -0.0520   -3.5950 ca        1 AP      -0.023000
     13 C9          2.0260   -0.0830   -3.5890 ca        1 AP      -0.130000
     14 C10         1.3250   -0.0730   -2.4260 ca        1 AP      -0.102000
     15 C1A         1.9800   -0.0290   -1.1460 ca        1 AP      -0.092000
     16 C11         3.4000   -0.0100   -1.1210 ca        1 AP       0.025000
     17 C12         4.1430   -0.0200   -2.3510 ca        1 AP      -0.024000
     18 HN1        -0.5330    0.1920    0.9930 hn        1 AP       0.396300
     19 HN2        -0.6060    0.2550   -0.6690 hn        1 AP       0.396300
     20 H2          1.4530    0.0310    2.2600 ha        1 AP       0.132000
     21 H3          3.9160    0.0480    2.2670 ha        1 AP       0.133000
     22 H4          6.0550    0.0590    1.0750 ha        1 AP       0.130000
     23 H5          7.3390    0.0480   -1.0650 ha        1 AP       0.132000
     24 H6          7.3700    0.0140   -3.5230 ha        1 AP       0.133000
     25 H7          6.1590   -0.0390   -5.6960 ha        1 AP       0.132000
     26 H8          3.6700   -0.0840   -5.7510 ha        1 AP       0.133000
     27 H9          1.5110   -0.1190   -4.5610 ha        1 AP       0.132000
     28 H10         0.2270   -0.1160   -2.4720 ha        1 AP       0.124000
@<TRIPOS>BOND
     1    1    2 1   
     2    1   18 1   
     3    1   19 1   
     4    2    3 ar  
     5    2   15 ar  
     6    3    4 ar  
     7    3   20 1   
     8    4    5 ar  
     9    4   21 1   
    10    5    6 ar  
    11    5   16 ar  
    12    6    7 ar  
    13    6   22 1   
    14    7    8 ar  
    15    7   23 1   
    16    8    9 ar  
    17    8   17 ar  
    18    9   10 ar  
    19    9   24 1   
    20   10   11 ar  
    21   10   25 1   
    22   11   12 ar  
    23   11   26 1   
    24   12   13 ar  
    25   12   17 ar  
    26   13   14 ar  
    27   13   27 1   
    28   14   15 ar  
    29   14   28 1   
    30   15   16 ar  
    31   16   17 ar  
@<TRIPOS>SUBSTRUCTURE
     1 AP          1 TEMP              0 ****  ****    0 ROOT
