@<TRIPOS>MOLECULE
AP
   28    31     1     0     0
SMALL
bcc


@<TRIPOS>ATOM
      1 N1          1.4030    0.1130    3.7790 nh        1 AP      -0.822200
      2 C1          0.4360    0.0340    2.7770 ca        1 AP       0.169600
      3 C2         -0.9340    0.0290    3.1390 ca        1 AP      -0.199000
      4 C3         -1.9300    0.0260    2.1790 ca        1 AP      -0.070000
      5 C3A        -1.6150    0.0150    0.8150 ca        1 AP      -0.082000
      6 C4         -2.6390    0.0000   -0.1930 ca        1 AP      -0.098000
      7 C5         -2.3290   -0.0130   -1.5130 ca        1 AP      -0.133000
      8 C5A        -0.9590   -0.0110   -1.9510 ca        1 AP      -0.021000
      9 C6         -0.6210   -0.0250   -3.3110 ca        1 AP      -0.125000
     10 C7          0.7140   -0.0210   -3.7080 ca        1 AP      -0.120000
     11 C8          1.7340   -0.0020   -2.7600 ca        1 AP      -0.126000
     12 C8A         1.4290    0.0120   -1.3930 ca        1 AP      -0.023000
     13 C9          2.4540    0.0380   -0.3860 ca        1 AP      -0.130000
     14 C10         2.1450    0.0490    0.9350 ca        1 AP      -0.102000
     15 C1A         0.7820    0.0310    1.3960 ca        1 AP      -0.092000
     16 C11        -0.2520    0.0180    0.4230 ca        1 AP       0.025000
     17 C12         0.0730    0.0060   -0.9760 ca        1 AP      -0.024000
     18 HN1         2.2970   -0.2530    3.5450 hn        1 AP       0.396300
     19 HN2         1.0870   -0.1570    4.6840 hn        1 AP       0.396300
     20 H2         -1.2170    0.0350    4.2040 ha        1 AP       0.132000
     21 H3         -2.9870    0.0270    2.4900 ha        1 AP       0.133000
     22 H4         -3.6870    0.0000    0.1440 ha        1 AP       0.130000
     23 H5         -3.1130   -0.0250   -2.2850 ha        1 AP       0.132000
     24 H6         -1.4200   -0.0390   -4.0670 ha        1 AP       0.133000
     25 H7          0.9640   -0.0330   -4.7790 ha        1 AP       0.132000
     26 H8          2.7860    0.0030   -3.0820 ha        1 AP       0.133000
     27 H9          3.5020    0.0530   -0.7230 ha        1 AP       0.132000
     28 H10         2.9650    0.0860    1.6690 ha        1 AP       0.124000
@<TRIPOS>BOND
     1    1    2 1   
     2    1   18 1   
     3    1   19 1   
     4    2    3 ar  
     5    2   15 ar  
     6    3    4 ar  
     7    3   20 1   
     8    4    5 ar  
     9    4   21 1   
    10    5    6 ar  
    11    5   16 ar  
    12    6    7 ar  
    13    6   22 1   
    14    7    8 ar  
    15    7   23 1   
    16    8    9 ar  
    17    8   17 ar  
    18    9   10 ar  
    19    9   24 1   
    20   10   11 ar  
    21   10   25 1   
    22   11   12 ar  
    23   11   26 1   
    24   12   13 ar  
    25   12   17 ar  
    26   13   14 ar  
    27   13   27 1   
    28   14   15 ar  
    29   14   28 1   
    30   15   16 ar  
    31   16   17 ar  
@<TRIPOS>SUBSTRUCTURE
     1 AP          1 TEMP              0 ****  ****    0 ROOT
