@<TRIPOS>MOLECULE
AP
   28    26     1     0     0
SMALL
bcc


@<TRIPOS>ATOM
      1 N1         -3.8310    0.0010    1.2420 n3        1 AP      -0.331000
      2 C1         -2.4120    0.0010    1.2420 c2        1 AP       0.088000
      3 C2         -1.9480    0.0010    2.5650 c2        1 AP      -0.199000
      4 C3         -0.5650    0.0010    2.8260 c1        1 AP      -0.070000
      5 C3A         0.3580    0.0010    1.7540 c1        1 AP      -0.082000
      6 C4          1.7430    0.0010    2.0170 c2        1 AP      -0.098000
      7 C5          2.6500    0.0010    0.9650 c1        1 AP      -0.133000
      8 C5A         2.1830    0.0010   -0.3690 c1        1 AP      -0.021000
      9 C6          3.1030    0.0010   -1.4370 c2        1 AP      -0.125000
     10 C7          2.6390    0.0010   -2.7660 c1        1 AP      -0.120000
     11 C8          1.2560    0.0010   -3.0300 c1        1 AP      -0.126000
     12 C8A         0.3340    0.0010   -1.9630 c1        1 AP      -0.023000
     13 C9         -1.0440    0.0010   -2.2260 c1        1 AP      -0.116000
     14 C10        -1.9470    0.0010   -1.1790 c1        1 AP      -0.116000
     15 C1A        -1.4820    0.0010    0.1590 c1        1 AP      -0.092000
     16 C11        -0.1090    0.0010    0.4180 c2        1 AP       0.025000
     17 C12         0.7960    0.0010   -0.6320 c2        1 AP      -0.024000
     18 HN1        -4.2870    0.7910    1.2480 hn        1 AP       0.191500
     19 HN2        -4.2870   -0.7890    1.2480 hn        1 AP       0.191500
     20 H2         -2.5840    0.0010    3.3050 ha        1 AP       0.132000
     21 H3         -0.2430    0.0010    3.7480 ha        1 AP       0.133000
     22 H4          2.0650   -0.0180    2.9380 ha        1 AP       0.130000
     23 H5          3.6080    0.0170    1.1470 ha        1 AP       0.132000
     24 H6          4.0620    0.0010   -1.2550 ha        1 AP       0.133000
     25 H7          3.2770    0.0010   -3.5050 ha        1 AP       0.132000
     26 H8          0.9350    0.0010   -3.9520 ha        1 AP       0.133000
     27 H9         -1.3650   -0.0280   -3.1470 ha        1 AP       0.128000
     28 H10        -2.9060    0.0040   -1.3620 ha        1 AP       0.128000
@<TRIPOS>BOND
     1    1    2 1   
     2    1   18 1   
     3    1   19 1   
     4    2    3 1   
     5    2   15 1   
     6    3    4 1   
     7    3   20 1   
     8    4   21 1   
     9    5    6 1   
    10    5   16 1   
    11    6    7 1   
    12    6   22 1   
    13    7   23 1   
    14    8    9 1   
    15    8   17 1   
    16    9   10 1   
    17    9   24 1   
    18   10   25 1   
    19   11   12 1   
    20   11   26 1   
    21   12   17 1   
    22   13   14 1   
    23   13   27 1   
    24   14   28 1   
    25   15   16 1   
    26   16   17 1   
@<TRIPOS>SUBSTRUCTURE
     1 AP          1 TEMP              0 ****  ****    0 ROOT
