@<TRIPOS>MOLECULE
AP1
   96    90     1     0     0
SMALL
bcc


@<TRIPOS>ATOM
      1 C1         -0.1550    0.5840    1.8220 c1        1 AP1      0.332000
      2 C2          1.3360    0.6610    1.8700 c2        1 AP1      0.036000
      3 C3          1.8540    0.7500    3.3140 c3        1 AP1     -0.175000
      4 C4          3.3300    0.9420    3.3900 c3        1 AP1     -0.156000
      5 C5          3.7960    2.0830    2.5780 c3        1 AP1     -0.183000
      6 C6          3.3060    2.0360    1.1700 c3        1 AP1     -0.028000
      7 C8          0.9920    2.7470    0.2910 c1        1 AP1      0.322000
      8 C9          1.5650    4.0690   -0.2850 c2        1 AP1     -0.073000
      9 C10         1.3540    4.1010   -1.8000 c2        1 AP1     -0.076000
     10 C11         0.3960    4.9440   -2.3470 c2        1 AP1     -0.141000
     11 C12         0.1010    4.8760   -3.7000 c1        1 AP1      0.055000
     12 C13         0.7620    3.9670   -4.5080 c1        1 AP1      0.055000
     13 C14         1.7200    3.1250   -3.9620 c1        1 AP1      0.040000
     14 O15         2.2610    2.0710   -4.7470 o         1 AP1     -0.229000
     15 C16         3.5270    5.5930   -0.2560 c3        1 AP1     -0.216000
     16 O17        -0.9710    5.6340   -4.2260 os        1 AP1     -0.242000
     17 C18         3.5110    2.3760   -5.3340 c3        1 AP1     -0.074000
     18 C19         0.9240    4.5810   -6.7710 c3        1 AP1     -0.098000
     19 C20        -0.6690    6.9980   -4.4130 c3        1 AP1     -0.098000
     20 C21        -3.9200   -8.4550    5.7980 c3        1 AP1     -0.075000
     21 C22        -0.2640   -2.0680    0.3890 c1        1 AP1     -0.177000
     22 C23         0.1470   -2.3950   -0.9060 c1        1 AP1     -0.160500
     23 C24        -0.6660   -2.0790   -1.9980 c1        1 AP1     -0.160500
     24 C25        -1.4820   -1.4270    0.5910 c1        1 AP1     -0.058000
     25 C26        -1.9130   -1.0350    2.0000 c2        1 AP1      0.089000
     26 C27        -2.2880   -2.2840    2.7850 c3        1 AP1     -0.176000
     27 C28        -2.5360   -3.4450    1.8140 c3        1 AP1     -0.124000
     28 C29        -2.7800   -4.7480    2.6190 c2        1 AP1     -0.077000
     29 C30        -1.7020   -5.4790    3.0970 c2        1 AP1     -0.110000
     30 C31        -1.9170   -6.6930    3.7500 c1        1 AP1      0.024000
     31 C32        -3.2130   -7.1700    3.9210 c1        1 AP1      0.041000
     32 C33        -4.2920   -6.4370    3.4420 c1        1 AP1     -0.190000
     33 C34        -4.0770   -5.2270    2.7910 c1        1 AP1     -0.105000
     34 C35        -1.8830   -1.4380   -1.7960 c1        1 AP1      0.102000
     35 O36        -2.7350   -1.1730   -2.8950 os        1 AP1     -0.171000
     36 C37        -2.0780   -0.5780   -4.0010 c3        1 AP1     -0.097000
     37 C38        -3.0850   -0.2630   -5.0750 c2        1 AP1      0.339000
     38 O39        -3.1070   -0.9390   -6.1330 o         1 AP1     -0.569500
     39 O40        -3.9270    0.6470   -4.8950 o         1 AP1     -0.569500
     40 C41        -2.2940   -1.1110   -0.5000 c2        1 AP1     -0.146000
     41 C42        -0.3510   -7.3730    5.3690 c3        1 AP1     -0.073000
     42 N7          1.8680    1.8500    1.0820 n3        1 AP1     -0.319000
     43 O43        -0.8530   -0.3690    2.6530 os        1 AP1     -0.262000
     44 O44        -0.7790    1.3620    1.1430 o         1 AP1     -0.366000
     45 O45        -0.2090    2.5410    0.2550 o         1 AP1     -0.373000
     46 C46         3.0260    4.1570    0.0190 c3        1 AP1     -0.156000
     47 C47         2.0140    3.1950   -2.6040 c2        1 AP1     -0.135000
     48 O48         0.3150    3.7530   -5.8250 os        1 AP1     -0.222000
     49 O49        -0.8270   -7.5200    4.0550 os        1 AP1     -0.216000
     50 O50        -3.4240   -8.4640    4.4670 os        1 AP1     -0.211000
     51 H2          1.5850   -0.1850    1.4510 h4        1 AP1      0.116000
     52 H31         1.4140    1.5060    3.7610 hc        1 AP1      0.101500
     53 H32         1.6170   -0.0790    3.7880 hc        1 AP1      0.101500
     54 H41A        3.7730    0.1240    3.0710 hc        1 AP1      0.078500
     55 H42         3.5820    1.0950    4.3280 hc        1 AP1      0.078500
     56 H51         4.7810    2.0850    2.5700 hc        1 AP1      0.086500
     57 H52         3.4840    2.9090    2.9900 hc        1 AP1      0.086500
     58 H61         3.7510    1.2910    0.7060 h1        1 AP1      0.106000
     59 H62         3.5430    2.8650    0.7290 h1        1 AP1      0.106000
     60 H9          1.0990    4.8330    0.1250 ha        1 AP1      0.155000
     61 H11        -0.0750    5.5910   -1.7730 ha        1 AP1      0.141000
     62 H161        4.4320    5.7050    0.1250 hc        1 AP1      0.077667
     63 H162        3.5580    5.7490   -1.2260 hc        1 AP1      0.077667
     64 H163        2.9120    6.2410    0.1600 hc        1 AP1      0.077667
     65 H181        3.9060    1.5580   -5.7050 h1        1 AP1      0.082000
     66 H182        4.1090    2.7480   -4.6540 h1        1 AP1      0.082000
     67 H183        3.3830    3.0350   -6.0560 h1        1 AP1      0.082000
     68 H191        1.5870    5.1480   -6.3280 h1        1 AP1      0.100000
     69 H192        0.2420    5.1460   -7.1990 h1        1 AP1      0.100000
     70 H193        1.3650    4.0320   -7.4480 h1        1 AP1      0.100000
     71 H201        0.1400    7.0820   -4.9550 h1        1 AP1      0.100667
     72 H202       -0.5240    7.4230   -3.5400 h1        1 AP1      0.100667
     73 H203       -1.4160    7.4380   -4.8710 h1        1 AP1      0.100667
     74 H211       -3.2470   -8.0730    6.3950 h1        1 AP1      0.080000
     75 H212       -4.1220   -9.3800    6.0800 h1        1 AP1      0.080000
     76 H213       -4.7400   -7.9130    5.8400 h1        1 AP1      0.080000
     77 H22         0.3050   -2.2890    1.1530 ha        1 AP1      0.120000
     78 H23         1.0070   -2.8480   -1.0490 ha        1 AP1      0.127000
     79 H24        -0.3460   -2.2510   -2.9170 ha        1 AP1      0.127000
     80 H26        -2.6890   -0.4390    1.9490 h4        1 AP1      0.124000
     81 H271       -1.5550   -2.5190    3.3950 hc        1 AP1      0.095500
     82 H272       -3.1020   -2.1110    3.3040 hc        1 AP1      0.095500
     83 H281       -1.7570   -3.5590    1.2370 hc        1 AP1      0.099500
     84 H282       -3.3210   -3.2500    1.2670 hc        1 AP1      0.099500
     85 H30        -0.7910   -5.1420    2.9760 ha        1 AP1      0.151000
     86 H33        -5.2070   -6.7740    3.5630 ha        1 AP1      0.134000
     87 H34        -4.8400   -4.7040    2.4640 ha        1 AP1      0.145000
     88 H371       -1.4090   -1.1960   -4.3530 h1        1 AP1      0.066000
     89 H372       -1.6420    0.2430   -3.7160 h1        1 AP1      0.066000
     90 H41        -3.1540   -0.6580   -0.3580 ha        1 AP1      0.170000
     91 H421        0.3830   -8.0050    5.5230 h1        1 AP1      0.079000
     92 H422       -1.0760   -7.5530    6.0010 h1        1 AP1      0.079000
     93 H423       -0.0260   -6.4590    5.4980 h1        1 AP1      0.079000
     94 H461        3.1770    3.9330    0.9650 hc        1 AP1      0.083500
     95 H462        3.5140    3.5290   -0.5440 hc        1 AP1      0.083500
     96 H47         2.6830    2.6020   -2.2200 ha        1 AP1      0.150000
@<TRIPOS>BOND
     1    1   43 1   
     2    1   44 1   
     3    2    3 1   
     4    2   42 1   
     5    2   51 1   
     6    3    4 1   
     7    3   52 1   
     8    3   53 1   
     9    4    5 1   
    10    4   54 1   
    11    4   55 1   
    12    5    6 1   
    13    5   56 1   
    14    5   57 1   
    15    6   42 1   
    16    6   58 1   
    17    6   59 1   
    18    7   42 1   
    19    7   45 1   
    20    8    9 1   
    21    8   46 1   
    22    8   60 1   
    23    9   10 1   
    24    9   47 1   
    25   10   11 1   
    26   10   61 1   
    27   11   16 1   
    28   12   13 1   
    29   12   48 1   
    30   13   47 1   
    31   14   17 1   
    32   15   46 1   
    33   15   62 1   
    34   15   63 1   
    35   15   64 1   
    36   16   19 1   
    37   17   65 1   
    38   17   66 1   
    39   17   67 1   
    40   18   48 1   
    41   18   68 1   
    42   18   69 1   
    43   18   70 1   
    44   19   71 1   
    45   19   72 1   
    46   19   73 1   
    47   20   50 1   
    48   20   74 1   
    49   20   75 1   
    50   20   76 1   
    51   21   24 1   
    52   21   77 1   
    53   22   23 1   
    54   22   78 1   
    55   23   79 1   
    56   24   40 1   
    57   25   26 1   
    58   25   43 1   
    59   25   80 1   
    60   26   27 1   
    61   26   81 1   
    62   26   82 1   
    63   27   28 1   
    64   27   83 1   
    65   27   84 1   
    66   28   29 1   
    67   28   33 1   
    68   29   30 1   
    69   29   85 1   
    70   30   49 1   
    71   31   32 1   
    72   31   50 1   
    73   32   86 1   
    74   33   87 1   
    75   34   35 1   
    76   34   40 1   
    77   35   36 1   
    78   36   37 1   
    79   36   88 1   
    80   36   89 1   
    81   37   38 1   
    82   37   39 1   
    83   40   90 1   
    84   41   49 1   
    85   41   91 1   
    86   41   92 1   
    87   41   93 1   
    88   46   94 1   
    89   46   95 1   
    90   47   96 1   
@<TRIPOS>SUBSTRUCTURE
     1 AP1         1 TEMP              0 ****  ****    0 ROOT
