@<TRIPOS>MOLECULE
AP1
   96    92     1     0     0
SMALL
bcc


@<TRIPOS>ATOM
      1 C1         -1.0340    0.8230    1.1280 c2        1 AP1      0.256000
      2 C2          0.3130    1.0640    1.5820 c1        1 AP1      0.017000
      3 C3          1.0100    2.3160    1.5230 c3        1 AP1     -0.215000
      4 C4          2.1020    2.4300    2.5740 c3        1 AP1     -0.135000
      5 C5          2.7080    3.8090    2.5670 c3        1 AP1     -0.225000
      6 C6          1.1520    0.8950   -1.3510 c1        1 AP1     -0.180000
      7 C9          1.4210    2.7910   -3.4810 c3        1 AP1     -0.077000
      8 C10         0.7870    4.1390   -3.3360 ca        1 AP1     -0.056000
      9 C11         1.1870    4.9930   -2.3410 ca        1 AP1     -0.120000
     10 C12         0.5840    6.2780   -2.1930 ca        1 AP1     -0.084000
     11 C13        -0.4600    6.6710   -3.0770 ca        1 AP1     -0.075000
     12 C14        -0.8400    5.7520   -4.1090 ca        1 AP1     -0.020000
     13 O15        -1.8330    6.2210   -5.0120 os        1 AP1     -0.027000
     14 O17         1.0190    7.2090   -1.3080 os        1 AP1      0.021000
     15 C18        -2.7100    5.4620   -5.5470 c1        1 AP1     -0.021000
     16 C19        -1.0530    8.7350   -2.1090 c2        1 AP1     -0.233000
     17 C20         2.1920    7.0960   -0.6970 c2        1 AP1     -0.322000
     18 C21        -1.2650    7.9330    2.8770 c1        1 AP1      0.043000
     19 C22        -1.9250   -1.3900    3.3120 c3        1 AP1     -0.116000
     20 C23        -2.0270   -2.7490    3.8890 c2        1 AP1     -0.148000
     21 C24        -3.1850   -3.4170    4.0120 c2        1 AP1     -0.170000
     22 C25        -3.1950   -0.8440    2.7450 c2        1 AP1      0.035000
     23 C26        -3.1780    0.3480    2.0790 c2        1 AP1     -0.105000
     24 C27        -4.3680    0.9740    1.4480 c3        1 AP1     -0.097000
     25 C28        -4.0740    2.1010    0.4790 c3        1 AP1     -0.148000
     26 C29        -3.7230    3.3700    1.1560 c2        1 AP1     -0.068000
     27 C30        -3.9690    4.5740    0.6160 c2        1 AP1     -0.214000
     28 C31        -3.5790    5.8450    1.1800 c2        1 AP1     -0.025000
     29 C32        -2.4580    6.1470    1.8690 c2        1 AP1     -0.024000
     30 C33        -1.3550    5.2960    2.2620 c2        1 AP1     -0.427000
     31 C34        -0.2700    5.7020    2.9050 c1        1 AP1      0.041000
     32 C35        -4.4210   -2.8050    3.5530 c2        1 AP1      0.174000
     33 O36        -5.6390   -3.4020    3.6880 os        1 AP1     -0.195000
     34 C37        -5.7560   -4.5320    4.5690 c3        1 AP1     -0.105000
     35 C38        -5.3050   -5.8730    3.9390 c2        1 AP1      0.317000
     36 O39        -6.1250   -6.4810    3.2050 o         1 AP1     -0.555500
     37 O40        -4.1570   -6.2990    4.2560 o         1 AP1     -0.555500
     38 C41        -4.4130   -1.5770    2.9400 c2        1 AP1     -0.290000
     39 C42        -4.9930    7.2370   -0.1490 c1        1 AP1     -0.015000
     40 N7          0.2890    0.8230   -2.3360 ns        1 AP1     -0.212000
     41 O43        -1.9930    1.0960    2.0820 os        1 AP1     -0.233000
     42 O44        -1.3690    0.3210    0.0430 o         1 AP1     -0.389000
     43 C46         2.1970    2.6610   -4.7910 c3        1 AP1     -0.149000
     44 C47        -0.2370    4.5350   -4.2520 ca        1 AP1     -0.173000
     45 O48        -1.1790    7.8170   -3.0470 os        1 AP1      0.061000
     46 O49        -4.5080    6.9220    0.9860 os        1 AP1     -0.023000
     47 O50        -2.2950    7.5290    2.2540 os        1 AP1     -0.045000
     48 H2         -0.4820    0.1720   -2.3650 hn        1 AP1      0.219000
     49 H31         1.4880    2.3210    0.4830 hc        1 AP1      0.141000
     50 H32         0.3410    3.2220    1.5730 hc        1 AP1      0.141000
     51 H41A        2.8870    1.6540    2.3800 hc        1 AP1      0.095000
     52 H42         1.6650    2.2140    3.5850 hc        1 AP1      0.095000
     53 H51         1.9310    4.5840    2.7920 hc        1 AP1      0.079333
     54 H52         3.5090    3.8790    3.3420 hc        1 AP1      0.079333
     55 H61         1.0120    0.1380   -0.5460 ha        1 AP1      0.078000
     56 H62         3.1580    4.0380    1.5720 hc        1 AP1      0.079333
     57 H9          2.1390    2.6240   -2.6220 hc        1 AP1      0.156000
     58 H11         1.9570    4.6890   -1.6150 ha        1 AP1      0.146000
     59 H161        3.9720    3.4130   -5.7640 hc        1 AP1      0.077667
     60 H162        4.1520    3.1440   -3.9810 hc        1 AP1      0.077667
     61 H163        3.2110    4.5680   -4.5900 hc        1 AP1      0.077667
     62 H181       -2.7530    4.3760   -5.3160 ha        1 AP1      0.047000
     63 H182       -1.5280    5.0670   -7.5900 ha        1 AP1      0.003250
     64 H183       -1.2690    4.5290   -7.2660 ha        1 AP1      0.003250
     65 H191       -1.8670    7.6250   -7.7600 ha        1 AP1      0.003250
     66 H192       -1.6540    9.6240   -2.3450 h4        1 AP1      0.168500
     67 H193       -2.1070    7.2420   -7.2550 ha        1 AP1      0.003250
     68 H201        2.2730    7.7610    0.1660 h4        1 AP1      0.154000
     69 H202        2.9450    6.3700   -0.9910 h4        1 AP1      0.154000
     70 H203       -0.4710    8.6260   -1.1960 h4        1 AP1      0.168500
     71 H211       -0.0020    8.8800    1.0840 ha        1 AP1      0.003250
     72 H212        0.2270    8.2570    0.9430 ha        1 AP1      0.003250
     73 H213       -0.3980    7.1750    3.1850 ha        1 AP1      0.107000
     74 H22        -1.5590   -0.6810    4.1090 hc        1 AP1      0.105000
     75 H23        -1.0770   -3.1960    4.2160 ha        1 AP1      0.126000
     76 H24        -3.2350   -4.4550    4.4080 ha        1 AP1      0.220000
     77 H26        -1.1390   -1.3890    2.5020 hc        1 AP1      0.105000
     78 H271       -5.0500    1.3450    2.2620 hc        1 AP1      0.097000
     79 H272       -4.9240    0.1710    0.8870 hc        1 AP1      0.097000
     80 H281       -4.9650    2.2470   -0.1900 hc        1 AP1      0.106500
     81 H282       -3.2080    1.7990   -0.1770 hc        1 AP1      0.106500
     82 H30        -4.5280    4.6510   -0.3360 ha        1 AP1      0.135000
     83 H33        -1.4590    4.2270    1.9850 ha        1 AP1      0.218000
     84 H34        -3.2300    3.2530    2.1380 ha        1 AP1      0.147000
     85 H371       -6.8640   -4.5600    4.7530 h1        1 AP1      0.080500
     86 H372       -5.2050   -4.3320    5.5210 h1        1 AP1      0.080500
     87 H41        -5.3560   -1.1430    2.5800 ha        1 AP1      0.138000
     88 H421       -6.7360    5.5710   -0.2530 ha        1 AP1      0.003250
     89 H422       -7.1030    6.1090   -0.0630 ha        1 AP1      0.003250
     90 H423       -4.7080    6.7000   -1.0780 ha        1 AP1      0.039000
     91 H461        1.5360    2.9680   -5.6440 hc        1 AP1      0.093000
     92 H462        2.4630    1.5820   -4.9460 hc        1 AP1      0.093000
     93 H47        -0.5340    3.8390   -5.0550 ha        1 AP1      0.166000
     94 C8          0.3450    1.7110   -3.4540 c2        1 AP1      0.315000
     95 C16         3.4520    3.4930   -4.7790 c3        1 AP1     -0.212000
     96 O45        -0.4790    1.5450   -4.3640 o         1 AP1     -0.312000
@<TRIPOS>BOND
     1    1    2 1   
     2    1   41 1   
     3    1   42 1   
     4    2    3 1   
     5    3    4 1   
     6    3   49 1   
     7    3   50 1   
     8    4    5 1   
     9    4   51 1   
    10    4   52 1   
    11    5   53 1   
    12    5   54 1   
    13    5   56 1   
    14    6   40 1   
    15    6   55 1   
    16    7    8 1   
    17    7   43 1   
    18    7   57 1   
    19    7   94 1   
    20    8    9 1   
    21    8   44 1   
    22    9   10 1   
    23    9   58 1   
    24   10   11 1   
    25   10   14 1   
    26   11   12 1   
    27   11   45 1   
    28   12   13 1   
    29   12   44 1   
    30   13   15 1   
    31   14   17 1   
    32   15   62 1   
    33   16   45 1   
    34   16   66 1   
    35   16   70 1   
    36   17   68 1   
    37   17   69 1   
    38   18   47 1   
    39   18   73 1   
    40   19   20 1   
    41   19   22 1   
    42   19   74 1   
    43   19   77 1   
    44   20   21 1   
    45   20   75 1   
    46   21   32 1   
    47   21   76 1   
    48   22   23 1   
    49   22   38 1   
    50   23   24 1   
    51   23   41 1   
    52   24   25 1   
    53   24   78 1   
    54   24   79 1   
    55   25   26 1   
    56   25   80 1   
    57   25   81 1   
    58   26   27 1   
    59   26   84 1   
    60   27   28 1   
    61   27   82 1   
    62   28   29 1   
    63   28   46 1   
    64   29   30 1   
    65   29   47 1   
    66   30   31 1   
    67   30   83 1   
    68   32   33 1   
    69   32   38 1   
    70   33   34 1   
    71   34   35 1   
    72   34   85 1   
    73   34   86 1   
    74   35   36 1   
    75   35   37 1   
    76   38   87 1   
    77   39   46 1   
    78   39   90 1   
    79   40   48 1   
    80   40   94 1   
    81   43   91 1   
    82   43   92 1   
    83   43   95 1   
    84   44   93 1   
    85   59   95 1   
    86   60   95 1   
    87   61   95 1   
    88   63   64 1   
    89   65   67 1   
    90   71   72 1   
    91   88   89 1   
    92   94   96 1   
@<TRIPOS>SUBSTRUCTURE
     1 AP1         1 TEMP              0 ****  ****    0 ROOT
