@<TRIPOS>MOLECULE
AP1
   96    92     1     0     0
SMALL
bcc


@<TRIPOS>ATOM
      1 C1         -1.3450    0.1790    0.8920 c2        1 AP1      0.370000
      2 C2         -1.1680   -1.1240    0.6250 c1        1 AP1     -0.470000
      3 C3         -1.1790   -2.3450    0.2030 c2        1 AP1     -0.097000
      4 C4         -0.2820   -3.4300    0.7130 c3        1 AP1      0.088000
      5 C5         -0.7370   -4.8090    0.2740 c3        1 AP1     -0.240000
      6 C6          1.6690    2.1740   -0.9890 c1        1 AP1     -0.200000
      7 C9          1.7930    2.7740   -3.7570 c3        1 AP1     -0.085000
      8 C10         1.1360    4.1180   -3.6820 ca        1 AP1     -0.008000
      9 C11         1.2400    4.8270   -2.4750 ca        1 AP1     -0.181000
     10 C12         0.6370    6.0810   -2.3380 ca        1 AP1      0.087000
     11 C13        -0.0650    6.6420   -3.4260 ca        1 AP1      0.028000
     12 C14        -0.1620    5.9240   -4.6190 ca        1 AP1     -0.047000
     13 O15        -0.8400    6.5380   -5.7080 os        1 AP1     -0.028000
     14 O17         0.6550    6.8400   -1.1880 os        1 AP1     -0.216000
     15 C18        -1.6170    5.8970   -6.4940 c1        1 AP1     -0.021000
     16 C19        -0.1070    8.9560   -3.6300 c1        1 AP1     -0.002000
     17 C20         1.3190    6.2590   -0.0660 c3        1 AP1     -0.083000
     18 C21        -5.0370    9.7330    0.7500 c1        1 AP1     -0.038000
     19 C22        -2.7960    1.0930    5.2880 ca        1 AP1     -0.160000
     20 C23        -2.8840    0.3140    6.4420 ca        1 AP1     -0.122000
     21 C24        -2.4720   -1.0150    6.4390 ca        1 AP1     -0.160000
     22 C25        -2.3010    0.5450    4.1020 ca        1 AP1     -0.045000
     23 C26        -2.1740    1.3400    2.8290 c3        1 AP1      0.078000
     24 C27        -3.1410    2.5250    2.7570 c3        1 AP1     -0.153000
     25 C28        -3.1000    3.1290    1.3690 c3        1 AP1     -0.166000
     26 C29        -3.6970    4.4700    1.2370 c2        1 AP1     -0.056000
     27 C30        -4.4380    5.0950    2.1670 c2        1 AP1     -0.231000
     28 C31        -4.9990    6.4170    2.0220 c2        1 AP1      0.001000
     29 C32        -4.5920    7.4340    1.2230 c2        1 AP1     -0.019000
     30 C33        -3.4850    7.4340    0.3640 c1        1 AP1     -0.182000
     31 C34        -2.5330    7.4370   -0.3640 c1        1 AP1     -0.141000
     32 C35        -1.9700   -1.5590    5.2460 ca        1 AP1      0.052000
     33 O36        -1.6240   -2.9050    5.2960 os        1 AP1     -0.203000
     34 C37        -0.5650   -3.2960    4.4330 c3        1 AP1     -0.021000
     35 C38        -1.0400   -3.6270    3.0320 c2        1 AP1      0.284000
     36 O39        -2.1100   -4.1290    2.6940 o         1 AP1     -0.335000
     37 O40        -0.0490   -3.3810    2.1350 os        1 AP1     -0.282000
     38 C41        -1.8810   -0.7910    4.0830 ca        1 AP1     -0.155000
     39 C42        -7.0190    5.8780    3.1590 c1        1 AP1     -0.027000
     40 N7          0.8170    1.5470   -1.7690 n         1 AP1     -0.210000
     41 O43        -2.4500    0.4740    1.7320 os        1 AP1     -0.305000
     42 O44        -0.6930    1.2160    0.5590 o         1 AP1     -0.586000
     43 C46         2.2150    2.3430   -5.1540 c3        1 AP1     -0.154000
     44 C47         0.4290    4.6660   -4.7550 ca        1 AP1     -0.168000
     45 O48        -0.7480    7.8590   -3.2600 os        1 AP1     -0.131000
     46 O49        -6.0960    6.7190    2.8950 os        1 AP1     -0.030000
     47 O50        -5.3870    8.6290    1.2760 os        1 AP1     -0.012000
     48 H2          0.0800    0.9420   -1.4170 hn        1 AP1      0.254000
     49 H31         0.3840    3.7180    1.7030 ha        1 AP1      0.002800
     50 H32         0.2030    3.1010    1.4830 ha        1 AP1      0.002800
     51 H41A        0.7710   -3.2410    0.3390 h1        1 AP1      0.096000
     52 H42        -1.8350   -2.6860   -0.6200 ha        1 AP1      0.080000
     53 H51        -1.8070   -4.9730    0.5480 hc        1 AP1      0.080000
     54 H52        -0.6280   -4.8990   -0.8330 hc        1 AP1      0.080000
     55 H61         1.5400    1.9650    0.0950 ha        1 AP1      0.096000
     56 H62        -0.1170   -5.5960    0.7660 hc        1 AP1      0.080000
     57 H9          2.7200    2.8040   -3.1050 hc        1 AP1      0.155000
     58 H11         1.7890    4.3600   -1.6330 ha        1 AP1      0.197000
     59 H161        4.1710    3.2810   -5.0960 hc        1 AP1      0.075333
     60 H162        2.8650    4.2990   -5.8290 hc        1 AP1      0.075333
     61 H163        3.5530    2.9010   -6.7570 hc        1 AP1      0.075333
     62 H181       -1.8090    4.8120   -6.3510 ha        1 AP1      0.042000
     63 H182       -0.0220    5.5200   -8.2350 ha        1 AP1      0.002800
     64 H183        0.0830    4.9180   -7.9370 ha        1 AP1      0.002800
     65 H191       -0.4850    7.7120   -7.8650 ha        1 AP1      0.002800
     66 H192       -0.1220    8.0760   -8.3060 ha        1 AP1      0.002800
     67 H193       -0.8180    9.8020   -3.4200 ha        1 AP1      0.025000
     68 H201        1.1800    7.0260    0.7370 h1        1 AP1      0.096000
     69 H202        2.4040    6.1110   -0.2900 h1        1 AP1      0.096000
     70 H203        0.8390    5.2900    0.2220 h1        1 AP1      0.096000
     71 H211       -6.4160    9.7270   -1.1930 ha        1 AP1      0.002800
     72 H212       -5.8710    9.5200   -1.5410 ha        1 AP1      0.002800
     73 H213       -4.0720    9.8410    0.2100 ha        1 AP1      0.040000
     74 H22        -3.1290    2.1400    5.3190 ha        1 AP1      0.125000
     75 H23        -3.2830    0.7540    7.3670 ha        1 AP1      0.119000
     76 H24        -2.5460   -1.6400    7.3380 ha        1 AP1      0.134000
     77 H26        -1.1160    1.7360    2.7580 h1        1 AP1      0.114000
     78 H271       -2.8320    3.2860    3.5190 hc        1 AP1      0.076000
     79 H272       -4.1780    2.1850    3.0020 hc        1 AP1      0.076000
     80 H281       -3.6190    2.4250    0.6560 hc        1 AP1      0.136500
     81 H282       -2.0240    3.1630    1.0210 hc        1 AP1      0.136500
     82 H30        -4.6620    4.6050    3.1330 ha        1 AP1      0.141000
     83 H33        -1.6840    7.4300   -1.0110 ha        1 AP1      0.248000
     84 H34        -3.4970    4.9600    0.2650 ha        1 AP1      0.127000
     85 H371       -0.1730   -4.2410    4.9020 h1        1 AP1      0.118000
     86 H372        0.2360   -2.5130    4.3890 h1        1 AP1      0.118000
     87 H41        -1.5100   -1.2250    3.1340 ha        1 AP1      0.188000
     88 H421       -5.9820    4.6000    4.9680 ha        1 AP1      0.002800
     89 H422       -6.2880    5.1120    5.2920 ha        1 AP1      0.002800
     90 H423       -7.0190    4.8650    2.7040 ha        1 AP1      0.041000
     91 H461        2.6260    1.2990   -5.0850 hc        1 AP1      0.093000
     92 H462        1.3180    2.2880   -5.8260 hc        1 AP1      0.093000
     93 H47         0.3330    4.1230   -5.7080 ha        1 AP1      0.152000
     94 C8          0.8350    1.7300   -3.1790 c2        1 AP1      0.308000
     95 C16         3.2590    3.2570   -5.7400 c3        1 AP1     -0.214000
     96 O45         0.0850    1.0500   -3.8930 o         1 AP1     -0.315000
@<TRIPOS>BOND
     1    1    2 1   
     2    1   41 1   
     3    1   42 1   
     4    2    3 1   
     5    3    4 1   
     6    3   52 1   
     7    4    5 1   
     8    4   37 1   
     9    4   51 1   
    10    5   53 1   
    11    5   54 1   
    12    5   56 1   
    13    6   40 1   
    14    6   55 1   
    15    7    8 1   
    16    7   43 1   
    17    7   57 1   
    18    7   94 1   
    19    8    9 1   
    20    8   44 1   
    21    9   10 1   
    22    9   58 1   
    23   10   11 1   
    24   10   14 1   
    25   11   12 1   
    26   11   45 1   
    27   12   13 1   
    28   12   44 1   
    29   13   15 1   
    30   14   17 1   
    31   15   62 1   
    32   16   45 1   
    33   16   67 1   
    34   17   68 1   
    35   17   69 1   
    36   17   70 1   
    37   18   47 1   
    38   18   73 1   
    39   19   20 1   
    40   19   22 1   
    41   19   74 1   
    42   20   21 1   
    43   20   75 1   
    44   21   32 1   
    45   21   76 1   
    46   22   23 1   
    47   22   38 1   
    48   23   24 1   
    49   23   41 1   
    50   23   77 1   
    51   24   25 1   
    52   24   78 1   
    53   24   79 1   
    54   25   26 1   
    55   25   80 1   
    56   25   81 1   
    57   26   27 1   
    58   26   84 1   
    59   27   28 1   
    60   27   82 1   
    61   28   29 1   
    62   28   46 1   
    63   29   30 1   
    64   29   47 1   
    65   30   31 1   
    66   31   83 1   
    67   32   33 1   
    68   32   38 1   
    69   33   34 1   
    70   34   35 1   
    71   34   85 1   
    72   34   86 1   
    73   35   36 1   
    74   35   37 1   
    75   38   87 1   
    76   39   46 1   
    77   39   90 1   
    78   40   48 1   
    79   40   94 1   
    80   43   91 1   
    81   43   92 1   
    82   43   95 1   
    83   44   93 1   
    84   49   50 1   
    85   59   95 1   
    86   60   95 1   
    87   61   95 1   
    88   63   64 1   
    89   65   66 1   
    90   71   72 1   
    91   88   89 1   
    92   94   96 1   
@<TRIPOS>SUBSTRUCTURE
     1 AP1         1 TEMP              0 ****  ****    0 ROOT
