@<TRIPOS>MOLECULE
AP1
   96    99     1     0     0
SMALL
bcc


@<TRIPOS>ATOM
      1 C1          2.2070    0.2980   -1.3560 c         1 AP1      0.655100
      2 C2          3.4610   -0.4040   -0.8590 c3        1 AP1      0.043700
      3 C3          3.3580   -1.9330   -0.9700 c3        1 AP1     -0.101400
      4 C4          4.6790   -2.5760   -0.5970 c3        1 AP1     -0.080400
      5 C5          5.1980   -2.0810    0.7380 c3        1 AP1     -0.111400
      6 C6          5.1820   -0.5510    0.8000 c3        1 AP1      0.072000
      7 C9          3.3970    0.6510    2.8690 c3        1 AP1     -0.076400
      8 C10         2.2890    0.6260    3.8780 ca        1 AP1     -0.041300
      9 C11         2.4690   -0.0910    5.0640 ca        1 AP1     -0.165000
     10 C12         1.4740   -0.0720    6.0500 ca        1 AP1      0.112100
     11 C13         0.2810    0.6440    5.8530 ca        1 AP1      0.044100
     12 C14         0.1050    1.3510    4.6410 ca        1 AP1      0.112100
     13 O15        -1.0710    2.0640    4.5270 os        1 AP1     -0.336400
     14 O17         1.7570   -0.7050    7.2520 os        1 AP1     -0.336400
     15 C18        -1.4070    2.5080    3.2130 c3        1 AP1      0.111200
     16 C19        -1.0140    1.7720    7.4700 c3        1 AP1      0.117700
     17 C20         0.9160   -1.8240    7.5340 c3        1 AP1      0.111200
     18 C21        -4.7730   -2.0540    4.0310 c3        1 AP1      0.111700
     19 C22         0.5620   -1.8870   -4.3630 ca        1 AP1     -0.174000
     20 C23         0.5310   -2.4010   -5.6560 ca        1 AP1     -0.103000
     21 C24         0.1900   -1.5920   -6.7370 ca        1 AP1     -0.213000
     22 C25         0.2500   -0.5390   -4.1420 ca        1 AP1     -0.080300
     23 C26         0.2500    0.0260   -2.7520 c3        1 AP1      0.195400
     24 C27        -0.9970   -0.3990   -1.9800 c3        1 AP1     -0.085400
     25 C28        -1.1980    0.4690   -0.7530 c3        1 AP1     -0.050100
     26 C29        -2.2160   -0.1030    0.1690 ca        1 AP1     -0.068300
     27 C30        -3.5670   -0.1280   -0.2040 ca        1 AP1     -0.178000
     28 C31        -4.5240   -0.6510    0.6640 ca        1 AP1      0.099100
     29 C32        -4.1270   -1.1590    1.9290 ca        1 AP1      0.087100
     30 C33        -2.7800   -1.1320    2.2920 ca        1 AP1     -0.178000
     31 C34        -1.8320   -0.6060    1.4130 ca        1 AP1     -0.135000
     32 C35        -0.1220   -0.2400   -6.5190 ca        1 AP1      0.160100
     33 O36        -0.4700    0.6520   -7.4950 os        1 AP1     -0.286900
     34 C37        -0.5360    0.1380   -8.8310 c3        1 AP1     -0.011600
     35 C38        -0.9800    1.3140   -9.7520 c         1 AP1      0.926600
     36 O39        -2.2120    1.5580   -9.8230 o         1 AP1     -0.818800
     37 O40        -0.0710    1.8890  -10.4080 o         1 AP1     -0.818800
     38 C41        -0.0850    0.2890   -5.2090 ca        1 AP1     -0.167000
     39 C42        -6.2650   -0.3520   -0.9240 c3        1 AP1      0.110700
     40 N7          3.8920    0.0310    0.4730 n         1 AP1     -0.430800
     41 O43         1.4010   -0.5340   -2.0680 os        1 AP1     -0.431900
     42 O44         1.9300    1.4920   -1.2430 o         1 AP1     -0.538000
     43 C46         4.0200    2.0450    2.7900 c3        1 AP1     -0.075400
     44 C47         1.1060    1.3410    3.6640 ca        1 AP1     -0.165000
     45 O48        -0.7300    0.5450    6.7950 os        1 AP1     -0.333900
     46 O49        -5.8800   -0.7080    0.3990 os        1 AP1     -0.312900
     47 O50        -5.1470   -1.6630    2.7160 os        1 AP1     -0.309900
     48 H2          4.2720   -0.0530   -1.5740 h1        1 AP1      0.086700
     49 H31         3.0810   -2.1990   -2.0240 hc        1 AP1      0.075200
     50 H32         2.5350   -2.3020   -0.3050 hc        1 AP1      0.075200
     51 H41A        5.4370   -2.3510   -1.3940 hc        1 AP1      0.045700
     52 H42         4.5520   -3.6890   -0.5610 hc        1 AP1      0.045700
     53 H51         6.2500   -2.4340    0.8930 hc        1 AP1      0.048200
     54 H52         4.5720   -2.5010    1.5670 hc        1 AP1      0.048200
     55 H61         5.9240   -0.1510    0.0490 h1        1 AP1      0.057200
     56 H62         5.5200   -0.2040    1.8130 h1        1 AP1      0.057200
     57 H9          4.1840   -0.0810    3.2150 hc        1 AP1      0.066700
     58 H11         3.3900   -0.6610    5.2510 ha        1 AP1      0.155000
     59 H161        5.1650    3.4290    3.9920 hc        1 AP1      0.037033
     60 H162        4.1460    2.2690    4.9460 hc        1 AP1      0.037033
     61 H163        5.6710    1.6970    4.1550 hc        1 AP1      0.037033
     62 H181       -2.4470    2.9020    3.3340 h1        1 AP1      0.048700
     63 H182       -0.7120    3.3220    2.8930 h1        1 AP1      0.048700
     64 H183       -1.3860    1.6580    2.4860 h1        1 AP1      0.048700
     65 H191       -1.8440    1.5000    8.1680 h1        1 AP1      0.043033
     66 H192       -0.1160    2.1190    8.0360 h1        1 AP1      0.043033
     67 H193       -1.3450    2.5520    6.7420 h1        1 AP1      0.043033
     68 H201        1.2700   -2.1730    8.5350 h1        1 AP1      0.048700
     69 H202       -0.1560   -1.5120    7.5740 h1        1 AP1      0.048700
     70 H203        1.0630   -2.6190    6.7630 h1        1 AP1      0.048700
     71 H211       -5.7440   -2.3570    4.4980 h1        1 AP1      0.040033
     72 H212       -4.0670   -2.9200    3.9990 h1        1 AP1      0.040033
     73 H213       -4.3170   -1.2000    4.5890 h1        1 AP1      0.040033
     74 H22         0.8350   -2.5250   -3.5100 ha        1 AP1      0.125000
     75 H23         0.7780   -3.4590   -5.8280 ha        1 AP1      0.115000
     76 H24         0.1660   -2.0110   -7.7530 ha        1 AP1      0.143000
     77 H26         0.3340    1.1490   -2.7810 h1        1 AP1      0.086700
     78 H271       -1.8850   -0.3180   -2.6600 hc        1 AP1      0.061200
     79 H272       -0.8900   -1.4740   -1.6810 hc        1 AP1      0.061200
     80 H281       -0.2120    0.5810   -0.2190 hc        1 AP1      0.063700
     81 H282       -1.5200    1.4970   -1.0730 hc        1 AP1      0.063700
     82 H30        -3.8570    0.2680   -1.1880 ha        1 AP1      0.145000
     83 H33        -2.4550   -1.5200    3.2670 ha        1 AP1      0.138000
     84 H34        -0.7670   -0.5910    1.7010 ha        1 AP1      0.154000
     85 H371        0.4750   -0.2340   -9.1340 h1        1 AP1      0.021200
     86 H372       -1.2890   -0.6880   -8.8750 h1        1 AP1      0.021200
     87 H41        -0.3250    1.3520   -5.0620 ha        1 AP1      0.149000
     88 H421       -7.3670   -0.5490   -0.9350 h1        1 AP1      0.043700
     89 H422       -6.0580    0.7290   -1.1150 h1        1 AP1      0.043700
     90 H423       -5.7430   -0.9890   -1.6780 h1        1 AP1      0.043700
     91 H461        3.2050    2.7990    2.6310 hc        1 AP1      0.060200
     92 H462        4.7080    2.1050    1.9050 hc        1 AP1      0.060200
     93 H47         0.9610    1.8650    2.7050 ha        1 AP1      0.155000
     94 C8          2.9230    0.2170    1.4780 c         1 AP1      0.653100
     95 C16         4.7930    2.3770    4.0410 c3        1 AP1     -0.097100
     96 O45         1.7130    0.1170    1.2050 o         1 AP1     -0.580100
@<TRIPOS>BOND
     1    1    2 1   
     2    1   41 1   
     3    1   42 2   
     4    2    3 1   
     5    2   40 1   
     6    2   48 1   
     7    3    4 1   
     8    3   49 1   
     9    3   50 1   
    10    4    5 1   
    11    4   51 1   
    12    4   52 1   
    13    5    6 1   
    14    5   53 1   
    15    5   54 1   
    16    6   40 1   
    17    6   55 1   
    18    6   56 1   
    19    7    8 1   
    20    7   43 1   
    21    7   57 1   
    22    7   94 1   
    23    8    9 ar  
    24    8   44 ar  
    25    9   10 ar  
    26    9   58 1   
    27   10   11 ar  
    28   10   14 1   
    29   11   12 ar  
    30   11   45 1   
    31   12   13 1   
    32   12   44 ar  
    33   13   15 1   
    34   14   17 1   
    35   15   62 1   
    36   15   63 1   
    37   15   64 1   
    38   16   45 1   
    39   16   65 1   
    40   16   66 1   
    41   16   67 1   
    42   17   68 1   
    43   17   69 1   
    44   17   70 1   
    45   18   47 1   
    46   18   71 1   
    47   18   72 1   
    48   18   73 1   
    49   19   20 ar  
    50   19   22 ar  
    51   19   74 1   
    52   20   21 ar  
    53   20   75 1   
    54   21   32 ar  
    55   21   76 1   
    56   22   23 1   
    57   22   38 ar  
    58   23   24 1   
    59   23   41 1   
    60   23   77 1   
    61   24   25 1   
    62   24   78 1   
    63   24   79 1   
    64   25   26 1   
    65   25   80 1   
    66   25   81 1   
    67   26   27 ar  
    68   26   31 ar  
    69   27   28 ar  
    70   27   82 1   
    71   28   29 ar  
    72   28   46 1   
    73   29   30 ar  
    74   29   47 1   
    75   30   31 ar  
    76   30   83 1   
    77   31   84 1   
    78   32   33 1   
    79   32   38 ar  
    80   33   34 1   
    81   34   35 1   
    82   34   85 1   
    83   34   86 1   
    84   35   36 1   
    85   35   37 1   
    86   38   87 1   
    87   39   46 1   
    88   39   88 1   
    89   39   89 1   
    90   39   90 1   
    91   40   94 1   
    92   43   91 1   
    93   43   92 1   
    94   43   95 1   
    95   44   93 1   
    96   59   95 1   
    97   60   95 1   
    98   61   95 1   
    99   94   96 2   
@<TRIPOS>SUBSTRUCTURE
     1 AP1         1 TEMP              0 ****  ****    0 ROOT
