@<TRIPOS>MOLECULE
AP3
   35    35     1     0     0
SMALL
bcc


@<TRIPOS>ATOM
      1 C1         -0.1630    0.1020    0.2500 c         1 AP3      0.928600
      2 O1         -0.6780    0.9490    1.0380 o         1 AP3     -0.851300
      3 OXT        -0.7980   -0.8750   -0.2370 o         1 AP3     -0.851300
      4 C2          1.3560    0.2280   -0.0950 c3        1 AP3     -0.202700
      5 C21         2.1510   -0.3500    1.0920 c3        1 AP3      0.180800
      6 O22         3.4660   -0.7580    0.7010 oh        1 AP3     -0.655800
      7 C3          1.6330    1.6920   -0.4450 c3        1 AP3      0.380600
      8 S4          3.4420    2.2050   -0.2300 ss        1 AP3     -0.614200
      9 C5          3.7050    2.5580   -1.9830 c3        1 AP3      0.076100
     10 C51         4.8790    1.7640   -2.5000 c3        1 AP3     -0.074100
     11 C52         3.9500    4.0390   -2.1340 c3        1 AP3     -0.074100
     12 C6          2.3970    2.1080   -2.6990 c3        1 AP3      0.050500
     13 C8          2.1710    3.0230   -3.9480 c         1 AP3      0.924600
     14 O81         1.4210    4.0340   -3.8470 o         1 AP3     -0.847300
     15 O82         2.7950    2.7040   -5.0000 o         1 AP3     -0.847300
     16 N7          1.2670    2.0560   -1.7910 n3        1 AP3     -0.778200
     17 C9          1.4810   -1.6390    1.5740 c3        1 AP3     -0.103600
     18 C10         2.2360    0.6370    2.2520 c3        1 AP3     -0.103600
     19 H2          1.5650   -0.4270   -0.9830 hc        1 AP3      0.070700
     20 HOM         3.8540   -0.0120    0.2160 ho        1 AP3      0.421000
     21 H3          1.0920    2.3240    0.3160 h2        1 AP3      0.089700
     22 H511        5.8390    2.1630   -2.0910 hc        1 AP3      0.034533
     23 H512        4.9000    1.8360   -3.6180 hc        1 AP3      0.034533
     24 H513        4.7860    0.6900   -2.2090 hc        1 AP3      0.034533
     25 H521        3.0220    4.6090   -1.8850 hc        1 AP3      0.034533
     26 H522        4.7810    4.3730   -1.4660 hc        1 AP3      0.034533
     27 H523        4.2200    4.2710   -3.1960 hc        1 AP3      0.034533
     28 H6          2.5570    1.0580   -3.0790 h1        1 AP3      0.061700
     29 HN7         0.7700    2.9310   -1.8120 hn        1 AP3      0.386800
     30 H91         0.5340   -1.3850    2.1070 hc        1 AP3      0.037200
     31 H92         1.2320   -2.2840    0.6980 hc        1 AP3      0.037200
     32 H93         2.1660   -2.1910    2.2590 hc        1 AP3      0.037200
     33 H101        2.9340    1.4740    2.0080 hc        1 AP3      0.037200
     34 H102        1.2140    1.0520    2.4410 hc        1 AP3      0.037200
     35 H103        2.6110    0.1230    3.1680 hc        1 AP3      0.037200
@<TRIPOS>BOND
     1    1    2 1   
     2    1    3 1   
     3    1    4 1   
     4    4    5 1   
     5    4    7 1   
     6    4   19 1   
     7    5    6 1   
     8    5   17 1   
     9    5   18 1   
    10    6   20 1   
    11    7    8 1   
    12    7   16 1   
    13    7   21 1   
    14    8    9 1   
    15    9   10 1   
    16    9   11 1   
    17    9   12 1   
    18   10   22 1   
    19   10   23 1   
    20   10   24 1   
    21   11   25 1   
    22   11   26 1   
    23   11   27 1   
    24   12   13 1   
    25   12   16 1   
    26   12   28 1   
    27   13   14 1   
    28   13   15 1   
    29   16   29 1   
    30   17   30 1   
    31   17   31 1   
    32   17   32 1   
    33   18   33 1   
    34   18   34 1   
    35   18   35 1   
@<TRIPOS>SUBSTRUCTURE
     1 AP3         1 TEMP              0 ****  ****    0 ROOT
