@<TRIPOS>MOLECULE
AP3
   35    35     1     0     0
SMALL
bcc


@<TRIPOS>ATOM
      1 C1          0.5260   -0.6260   -0.4830 c         1 AP3      0.929600
      2 O1         -0.5320   -0.6550    0.2070 o         1 AP3     -0.848800
      3 OXT         0.5980   -1.1270   -1.6450 o         1 AP3     -0.848800
      4 C2          1.8360   -0.0110    0.0860 c3        1 AP3     -0.212700
      5 C21         1.8420    0.1200    1.6200 c3        1 AP3      0.179800
      6 O22         3.1500    0.4560    2.1100 oh        1 AP3     -0.653800
      7 C3          2.2230    1.2990   -0.5930 c3        1 AP3      0.408600
      8 S4          4.0950    1.1650   -1.0230 ss        1 AP3     -0.651200
      9 C5          3.9070    2.1210   -2.5450 c3        1 AP3      0.086100
     10 C51         4.2500    1.2140   -3.7050 c3        1 AP3     -0.076100
     11 C52         4.8250    3.3160   -2.5140 c3        1 AP3     -0.076100
     12 C6          2.4030    2.5420   -2.6180 c3        1 AP3      0.060500
     13 C8          2.2480    4.0670   -2.2900 c         1 AP3      0.930600
     14 O81         2.2800    4.4780   -1.1000 o         1 AP3     -0.848300
     15 O82         2.1190    4.8260   -3.2960 o         1 AP3     -0.848300
     16 N7          1.5690    1.6740   -1.8000 n7        1 AP3     -0.771200
     17 C9          1.5300   -1.2340    2.2580 c3        1 AP3     -0.102100
     18 C10         0.8530    1.1650    2.1210 c3        1 AP3     -0.102100
     19 H2          2.6380   -0.7640   -0.1730 hc        1 AP3      0.069700
     20 HOM         3.5530    1.0630    1.4750 ho        1 AP3      0.414000
     21 H3          2.2090    2.1830    0.1000 h2        1 AP3      0.101700
     22 H511        4.1730    1.7750   -4.6700 hc        1 AP3      0.031367
     23 H512        3.5490    0.3450   -3.7380 hc        1 AP3      0.031367
     24 H513        5.2930    0.8260   -3.6070 hc        1 AP3      0.031367
     25 H521        5.8940    2.9930   -2.5600 hc        1 AP3      0.031367
     26 H522        4.6560    3.9030   -1.5770 hc        1 AP3      0.031367
     27 H523        4.6070    3.9830   -3.3860 hc        1 AP3      0.031367
     28 H6          2.0620    2.4300   -3.6890 h1        1 AP3      0.047700
     29 HN7         1.2440    0.8720   -2.3160 hn        1 AP3      0.396800
     30 H91         1.6310   -1.1630    3.3670 hc        1 AP3      0.037700
     31 H92         0.4870   -1.5270    1.9870 hc        1 AP3      0.037700
     32 H93         2.2440   -2.0050    1.8850 hc        1 AP3      0.037700
     33 H101        1.1910    2.1930    1.8520 hc        1 AP3      0.037700
     34 H102       -0.1460    0.9680    1.6570 hc        1 AP3      0.037700
     35 H103        0.7690    1.1060    3.2330 hc        1 AP3      0.037700
@<TRIPOS>BOND
     1    1    2 1   
     2    1    3 1   
     3    1    4 1   
     4    4    5 1   
     5    4    7 1   
     6    4   19 1   
     7    5    6 1   
     8    5   17 1   
     9    5   18 1   
    10    6   20 1   
    11    7    8 1   
    12    7   16 1   
    13    7   21 1   
    14    8    9 1   
    15    9   10 1   
    16    9   11 1   
    17    9   12 1   
    18   10   22 1   
    19   10   23 1   
    20   10   24 1   
    21   11   25 1   
    22   11   26 1   
    23   11   27 1   
    24   12   13 1   
    25   12   16 1   
    26   12   28 1   
    27   13   14 1   
    28   13   15 1   
    29   16   29 1   
    30   17   30 1   
    31   17   31 1   
    32   17   32 1   
    33   18   33 1   
    34   18   34 1   
    35   18   35 1   
@<TRIPOS>SUBSTRUCTURE
     1 AP3         1 TEMP              0 ****  ****    0 ROOT
