@<TRIPOS>MOLECULE
AP3
   35    34     1     0     0
SMALL
bcc


@<TRIPOS>ATOM
      1 C1         -2.1600   -0.2630    0.7630 c1        1 AP3      0.344000
      2 O1         -2.7470   -1.3540    0.5430 o         1 AP3     -0.589000
      3 OXT        -2.8280    0.7960    0.8980 os        1 AP3     -0.588000
      4 C2         -0.6840   -0.2240    0.8650 c3        1 AP3     -0.184000
      5 C21        -0.2890   -0.1400    2.2880 c3        1 AP3      0.106000
      6 O22         0.9630    0.4930    2.3900 oh        1 AP3     -0.374000
      7 C3         -0.1260    1.0590    0.0760 c3        1 AP3     -0.012000
      8 S4          1.4110    0.7320   -0.5340 ss        1 AP3     -0.191000
      9 C5          1.2210    0.0170   -1.7020 c3        1 AP3     -0.110000
     10 C51         1.2260   -1.4680   -1.4120 c3        1 AP3     -0.194000
     11 C52         2.3010    0.3580   -2.7050 c3        1 AP3     -0.194000
     12 C6         -0.2250    0.4700   -2.2650 c3        1 AP3     -0.089000
     13 C8         -0.0720    1.1680   -3.3160 c2        1 AP3      0.347000
     14 O81        -0.2260    0.6420   -4.4500 o         1 AP3     -0.587500
     15 O82         0.2320    2.3860   -3.2240 o         1 AP3     -0.587500
     16 N7         -0.8940    1.3190   -0.9490 n3        1 AP3     -0.264000
     17 C9         -1.3230    0.6590    3.0520 c3        1 AP3     -0.223000
     18 C10        -0.1980   -1.5340    2.8690 c3        1 AP3     -0.223000
     19 H2         -0.3100   -1.0350    0.4710 hc        1 AP3      0.100000
     20 HOM         1.2810    0.3890    3.2140 ho        1 AP3      0.213000
     21 H3         -0.0920    1.8320    0.6740 h2        1 AP3      0.123000
     22 H511        1.6170   -1.6260   -0.5270 hc        1 AP3      0.071000
     23 H512        1.7580   -1.9320   -2.0920 hc        1 AP3      0.071000
     24 H513        0.3070   -1.8070   -1.4290 hc        1 AP3      0.071000
     25 H521        2.1220   -0.1060   -3.5490 hc        1 AP3      0.071000
     26 H522        2.3100    1.3260   -2.8590 hc        1 AP3      0.071000
     27 H523        3.1720    0.0750   -2.3550 hc        1 AP3      0.071000
     28 H6         -0.8340   -0.2260   -2.5840 h1        1 AP3      0.086000
     29 HN7        -1.7380    1.0090   -0.7840 hn        1 AP3      0.195000
     30 H91        -1.4410    1.5330    2.6250 hc        1 AP3      0.078167
     31 H92        -1.0200    0.7850    3.9760 hc        1 AP3      0.078167
     32 H93        -2.1750    0.1760    3.0500 hc        1 AP3      0.078167
     33 H101       -1.0360   -2.0140    2.6980 hc        1 AP3      0.078167
     34 H102       -0.0470   -1.4750    3.8360 hc        1 AP3      0.078167
     35 H103        0.5460   -2.0150    2.4500 hc        1 AP3      0.078167
@<TRIPOS>BOND
     1    1    2 1   
     2    1    4 1   
     3    4    5 1   
     4    4    7 1   
     5    4   19 1   
     6    5    6 1   
     7    5   17 1   
     8    5   18 1   
     9    6   20 1   
    10    7    8 1   
    11    7   16 1   
    12    7   21 1   
    13    8    9 1   
    14    9   10 1   
    15    9   11 1   
    16    9   12 1   
    17   10   22 1   
    18   10   23 1   
    19   10   24 1   
    20   11   25 1   
    21   11   26 1   
    22   11   27 1   
    23   12   13 1   
    24   12   16 1   
    25   12   28 1   
    26   13   14 1   
    27   13   15 1   
    28   16   29 1   
    29   17   30 1   
    30   17   31 1   
    31   17   32 1   
    32   18   33 1   
    33   18   34 1   
    34   18   35 1   
@<TRIPOS>SUBSTRUCTURE
     1 AP3         1 TEMP              0 ****  ****    0 ROOT
