@<TRIPOS>MOLECULE
AP3
   35    35     1     0     0
SMALL
bcc


@<TRIPOS>ATOM
      1 C1         -0.1950    0.2010    0.2870 c         1 AP3      0.928600
      2 O1         -0.6820    1.0820    1.0560 o         1 AP3     -0.851300
      3 OXT        -0.8600   -0.7680   -0.1740 o         1 AP3     -0.851300
      4 C2          1.3250    0.2750   -0.0670 c3        1 AP3     -0.202700
      5 C21         2.1080   -0.2950    1.1310 c3        1 AP3      0.180800
      6 O22         3.4090   -0.7510    0.7450 oh        1 AP3     -0.655800
      7 C3          1.6420    1.7220   -0.4530 c3        1 AP3      0.380600
      8 S4          3.4660    2.1880   -0.2580 ss        1 AP3     -0.614200
      9 C5          3.7310    2.4910   -2.0200 c3        1 AP3      0.076100
     10 C51         4.8800    1.6520   -2.5210 c3        1 AP3     -0.074100
     11 C52         4.0180    3.9600   -2.2080 c3        1 AP3     -0.074100
     12 C6          2.4080    2.0620   -2.7190 c3        1 AP3      0.050500
     13 C8          2.2020    2.9520   -3.9900 c         1 AP3      0.924600
     14 O81         1.4810    3.9860   -3.9110 o         1 AP3     -0.847300
     15 O82         2.8130    2.5900   -5.0360 o         1 AP3     -0.847300
     16 N7          1.2810    2.0640   -1.8060 n3        1 AP3     -0.778200
     17 C9          1.4030   -1.5530    1.6470 c3        1 AP3     -0.103600
     18 C10         2.2260    0.7160    2.2660 c3        1 AP3     -0.103600
     19 H2          1.5110   -0.4070   -0.9390 hc        1 AP3      0.070700
     20 HOM         3.8160   -0.0280    0.2410 ho        1 AP3      0.421000
     21 H3          1.1230    2.3880    0.2930 h2        1 AP3      0.089700
     22 H511        4.8980    1.6960   -3.6410 hc        1 AP3      0.034533
     23 H512        5.8520    2.0330   -2.1260 hc        1 AP3      0.034533
     24 H513        4.7580    0.5880   -2.2040 hc        1 AP3      0.034533
     25 H521        4.2890    4.1580   -3.2760 hc        1 AP3      0.034533
     26 H522        3.1070    4.5630   -1.9700 hc        1 AP3      0.034533
     27 H523        4.8600    4.2860   -1.5510 hc        1 AP3      0.034533
     28 H6          2.5370    0.9980   -3.0750 h1        1 AP3      0.061700
     29 HN7         0.8090    2.9510   -1.8470 hn        1 AP3      0.386800
     30 H91         2.0760   -2.1080    2.3430 hc        1 AP3      0.037200
     31 H92         1.1330   -2.2120    0.7880 hc        1 AP3      0.037200
     32 H93         0.4670   -1.2590    2.1770 hc        1 AP3      0.037200
     33 H101        1.2180    1.1650    2.4490 hc        1 AP3      0.037200
     34 H102        2.9480    1.5270    1.9990 hc        1 AP3      0.037200
     35 H103        2.5900    0.2140    3.1940 hc        1 AP3      0.037200
@<TRIPOS>BOND
     1    1    2 1   
     2    1    3 1   
     3    1    4 1   
     4    4    5 1   
     5    4    7 1   
     6    4   19 1   
     7    5    6 1   
     8    5   17 1   
     9    5   18 1   
    10    6   20 1   
    11    7    8 1   
    12    7   16 1   
    13    7   21 1   
    14    8    9 1   
    15    9   10 1   
    16    9   11 1   
    17    9   12 1   
    18   10   22 1   
    19   10   23 1   
    20   10   24 1   
    21   11   25 1   
    22   11   26 1   
    23   11   27 1   
    24   12   13 1   
    25   12   16 1   
    26   12   28 1   
    27   13   14 1   
    28   13   15 1   
    29   16   29 1   
    30   17   30 1   
    31   17   31 1   
    32   17   32 1   
    33   18   33 1   
    34   18   34 1   
    35   18   35 1   
@<TRIPOS>SUBSTRUCTURE
     1 AP3         1 TEMP              0 ****  ****    0 ROOT
