@<TRIPOS>MOLECULE
AP3
   35    35     1     0     0
SMALL
bcc


@<TRIPOS>ATOM
      1 C1         -1.5560   -0.2120    2.4290 c         1 AP3      0.928600
      2 O1         -1.9520    0.9620    2.6930 o         1 AP3     -0.851300
      3 OXT        -2.1110   -1.2540    2.8760 o         1 AP3     -0.851300
      4 C2         -0.2720   -0.3890    1.5540 c3        1 AP3     -0.202700
      5 C21         0.9470   -0.1510    2.4660 c3        1 AP3      0.180800
      6 O22         2.1270   -0.7690    1.9440 oh        1 AP3     -0.655800
      7 C3         -0.4040    0.5400    0.3450 c3        1 AP3      0.380600
      8 S4          1.2490    1.0000   -0.4540 ss        1 AP3     -0.614200
      9 C5          0.8820    0.1930   -2.0290 c3        1 AP3      0.076100
     10 C51         1.9660   -0.8000   -2.3670 c3        1 AP3     -0.074100
     11 C52         0.7800    1.2590   -3.0920 c3        1 AP3     -0.074100
     12 C6         -0.4720   -0.5450   -1.8120 c3        1 AP3      0.050500
     13 C8         -1.2470   -0.5780   -3.1720 c         1 AP3      0.924600
     14 O81        -2.1070    0.3130   -3.4170 o         1 AP3     -0.847300
     15 O82        -0.9310   -1.5010   -3.9770 o         1 AP3     -0.847300
     16 N7         -1.2320    0.0190   -0.7130 n3        1 AP3     -0.778200
     17 C9          0.7190   -0.8450    3.8120 c3        1 AP3     -0.103600
     18 C10         1.1980    1.3350    2.7020 c3        1 AP3     -0.103600
     19 H2         -0.2290   -1.4590    1.2160 hc        1 AP3      0.070700
     20 HOM         2.1950   -0.4950    1.0150 ho        1 AP3      0.421000
     21 H3         -0.7910    1.5280    0.7240 h2        1 AP3      0.089700
     22 H511        2.9100   -0.2760   -2.6500 hc        1 AP3      0.034533
     23 H512        2.1750   -1.4660   -1.4950 hc        1 AP3      0.034533
     24 H513        1.6240   -1.4290   -3.2290 hc        1 AP3      0.034533
     25 H521        1.6980    1.8960   -3.1030 hc        1 AP3      0.034533
     26 H522        0.6570    0.7790   -4.0960 hc        1 AP3      0.034533
     27 H523       -0.1160    1.9010   -2.9080 hc        1 AP3      0.034533
     28 H6         -0.2410   -1.6140   -1.5340 h1        1 AP3      0.061700
     29 HN7        -1.8690    0.7170   -1.0590 hn        1 AP3      0.386800
     30 H91         1.6750   -0.8900    4.3840 hc        1 AP3      0.037200
     31 H92        -0.0460   -0.2770    4.3940 hc        1 AP3      0.037200
     32 H93         0.3380   -1.8790    3.6420 hc        1 AP3      0.037200
     33 H101        0.2260    1.8220    2.9670 hc        1 AP3      0.037200
     34 H102        1.9300    1.4740    3.5320 hc        1 AP3      0.037200
     35 H103        1.6130    1.8150    1.7820 hc        1 AP3      0.037200
@<TRIPOS>BOND
     1    1    2 1   
     2    1    3 1   
     3    1    4 1   
     4    4    5 1   
     5    4    7 1   
     6    4   19 1   
     7    5    6 1   
     8    5   17 1   
     9    5   18 1   
    10    6   20 1   
    11    7    8 1   
    12    7   16 1   
    13    7   21 1   
    14    8    9 1   
    15    9   10 1   
    16    9   11 1   
    17    9   12 1   
    18   10   22 1   
    19   10   23 1   
    20   10   24 1   
    21   11   25 1   
    22   11   26 1   
    23   11   27 1   
    24   12   13 1   
    25   12   16 1   
    26   12   28 1   
    27   13   14 1   
    28   13   15 1   
    29   16   29 1   
    30   17   30 1   
    31   17   31 1   
    32   17   32 1   
    33   18   33 1   
    34   18   34 1   
    35   18   35 1   
@<TRIPOS>SUBSTRUCTURE
     1 AP3         1 TEMP              0 ****  ****    0 ROOT
