@<TRIPOS>MOLECULE
AP4
   25    24     1     0     0
SMALL
bcc


@<TRIPOS>ATOM
      1 N1          0.5170   -0.1410   -2.3790 n1        1 AP4     -0.297000
      2 C2          1.9120   -0.1410   -2.3790 c1        1 AP4      0.259000
      3 N2          2.6190   -0.1440   -3.6090 n2        1 AP4     -0.337000
      4 N3          2.6280   -0.1410   -1.1470 n3        1 AP4     -0.344000
      5 C4          1.9480   -0.1410    0.0470 c1        1 AP4      0.376000
      6 O4          2.5610   -0.1620    1.0960 o         1 AP4     -0.317000
      7 N5         -0.2100   -0.1410    1.3280 n         1 AP4     -0.179000
      8 C6         -1.5570   -0.1410    1.2050 c3        1 AP4     -0.048000
      9 C7         -2.1280    0.6320    0.0520 c3        1 AP4     -0.056000
     10 N8         -1.6400    0.3570   -1.1380 n3        1 AP4     -0.292000
     11 C10        -0.1490   -0.1410   -1.2270 c1        1 AP4      0.188000
     12 C9          0.5940   -0.1410    0.0540 c1        1 AP4     -0.236000
     13 C11        -2.1480   -0.1410    2.6430 c3        1 AP4     -0.035000
     14 O12        -1.0810   -0.1410    3.5220 os        1 AP4     -0.244000
     15 C13         0.0510    0.3760    2.6880 c2        1 AP4      0.359000
     16 O14         1.1130    0.3330    3.2760 o         1 AP4     -0.275000
     17 HN21        2.8350   -0.9340   -4.0090 hn        1 AP4      0.222000
     18 HN22        2.8370    0.6460   -4.0110 hn        1 AP4      0.222000
     19 HN3         3.5400   -0.1410   -1.1500 hn        1 AP4      0.252000
     20 H6         -1.7390   -1.0570    0.9200 h1        1 AP4      0.140000
     21 H71        -1.9630    1.5790    0.2240 h1        1 AP4      0.092500
     22 H72        -3.0860    0.4500    0.0240 h1        1 AP4      0.092500
     23 HN8        -2.1860   -0.2380   -1.5600 hn        1 AP4      0.238000
     24 H111       -2.6340    0.6960    2.7660 h1        1 AP4      0.110000
     25 H112       -2.6340   -0.9790    2.7660 h1        1 AP4      0.110000
@<TRIPOS>BOND
     1    1    2 1   
     2    2    4 1   
     3    3   17 1   
     4    3   18 1   
     5    4    5 1   
     6    4   19 1   
     7    5    6 1   
     8    7    8 1   
     9    7   12 1   
    10    7   15 1   
    11    8    9 1   
    12    8   13 1   
    13    8   20 1   
    14    9   10 1   
    15    9   21 1   
    16    9   22 1   
    17   10   11 1   
    18   10   23 1   
    19   11   12 1   
    20   13   14 1   
    21   13   24 1   
    22   13   25 1   
    23   14   15 1   
    24   15   16 1   
@<TRIPOS>SUBSTRUCTURE
     1 AP4         1 TEMP              0 ****  ****    0 ROOT
