@<TRIPOS>MOLECULE
AP4
   25    27     1     0     0
SMALL
bcc


@<TRIPOS>ATOM
      1 N1          1.2080    0.2060    2.2550 nc        1 AP4     -0.725300
      2 C2          0.0820    0.0430    2.9810 cd        1 AP4      0.704800
      3 N2          0.1650    0.1350    4.3850 nh        1 AP4     -0.897800
      4 N3         -1.1590   -0.2710    2.4150 n         1 AP4     -0.503400
      5 C4         -1.2960   -0.4850    1.0180 c         1 AP4      0.737700
      6 O4         -2.4130   -0.8460    0.6200 o         1 AP4     -0.592500
      7 N5         -0.1810   -0.4220   -1.1830 n         1 AP4     -0.286000
      8 C6          1.0890   -0.6140   -1.8970 c3        1 AP4      0.028700
      9 C7          2.2850    0.1370   -1.2640 c3        1 AP4      0.182800
     10 N8          2.3300    0.0010    0.1660 nh        1 AP4     -0.739000
     11 C10         1.1290    0.0090    0.8760 cc        1 AP4      0.412600
     12 C9         -0.0920   -0.2530    0.2170 cd        1 AP4     -0.253600
     13 C11         0.8140   -0.0730   -3.3250 c3        1 AP4      0.115400
     14 O12        -0.4370    0.6340   -3.2370 os        1 AP4     -0.406900
     15 C13        -0.9750    0.4800   -1.9570 c         1 AP4      0.792600
     16 O14        -2.0310    1.0640   -1.7410 o         1 AP4     -0.551500
     17 HN21        1.0320    0.4770    4.7380 hn        1 AP4      0.425300
     18 HN22       -0.6410    0.4870    4.8500 hn        1 AP4      0.425300
     19 HN3        -1.9550   -0.4540    2.9870 hn        1 AP4      0.338500
     20 H6          1.3010   -1.7180   -1.9160 h1        1 AP4      0.101700
     21 H71         3.2390   -0.2930   -1.6820 h1        1 AP4      0.053200
     22 H72         2.2300    1.2250   -1.5630 h1        1 AP4      0.053200
     23 HN8         3.1440    0.3570    0.6170 hn        1 AP4      0.443800
     24 H111        1.5810    0.6580   -3.6760 h1        1 AP4      0.070200
     25 H112        0.6820   -0.9010   -4.0640 h1        1 AP4      0.070200
@<TRIPOS>BOND
     1    1    2 2   
     2    1   11 1   
     3    2    3 1   
     4    2    4 1   
     5    3   17 1   
     6    3   18 1   
     7    4    5 1   
     8    4   19 1   
     9    5    6 2   
    10    5   12 1   
    11    7    8 1   
    12    7   12 1   
    13    7   15 1   
    14    8    9 1   
    15    8   13 1   
    16    8   20 1   
    17    9   10 1   
    18    9   21 1   
    19    9   22 1   
    20   10   11 1   
    21   10   23 1   
    22   11   12 2   
    23   13   14 1   
    24   13   24 1   
    25   13   25 1   
    26   14   15 1   
    27   15   16 2   
@<TRIPOS>SUBSTRUCTURE
     1 AP4         1 TEMP              0 ****  ****    0 ROOT
