@<TRIPOS>MOLECULE
AP4
   25    27     1     0     0
SMALL
bcc


@<TRIPOS>ATOM
      1 N1         -0.0100    0.2170   -0.0360 nc        1 AP4     -0.725300
      2 C2          1.3320    0.0640   -0.0320 cd        1 AP4      0.705800
      3 N2          2.0430    0.3210   -1.2200 nv        1 AP4     -0.898800
      4 N3          2.0600   -0.2890    1.1090 ns        1 AP4     -0.504400
      5 C4          1.4250   -0.4330    2.3710 c         1 AP4      0.737700
      6 O4          2.1440   -0.7950    3.3140 o         1 AP4     -0.592500
      7 N5         -0.6880   -0.2510    3.6340 n         1 AP4     -0.286000
      8 C6         -2.1510   -0.3770    3.5670 c3        1 AP4      0.028700
      9 C7         -2.7910    0.3650    2.3700 c3        1 AP4      0.180800
     10 N8         -2.0780    0.1510    1.1400 nu        1 AP4     -0.737000
     11 C10        -0.6830    0.1020    1.1810 cc        1 AP4      0.410600
     12 C9         -0.0120   -0.1510    2.3970 cd        1 AP4     -0.252600
     13 C11        -2.6520    0.2320    4.9030 c3        1 AP4      0.115400
     14 O12        -1.5140    0.9030    5.4740 os        1 AP4     -0.405900
     15 C13        -0.3850    0.6700    4.6850 c         1 AP4      0.791600
     16 O14         0.6510    1.2140    5.0490 o         1 AP4     -0.550500
     17 HN21        1.4830    0.4410   -2.0360 hn        1 AP4      0.426800
     18 HN22        2.8770   -0.2030   -1.3580 hn        1 AP4      0.426800
     19 HN3         3.0510   -0.3960    1.0790 hn        1 AP4      0.338500
     20 H6         -2.3910   -1.4740    3.5060 h1        1 AP4      0.100700
     21 H71        -3.8410   -0.0190    2.2300 h1        1 AP4      0.053200
     22 H72        -2.8510    1.4670    2.6140 h1        1 AP4      0.053200
     23 HN8        -2.5070    0.5130    0.3170 hn        1 AP4      0.442800
     24 H111       -2.9750   -0.5590    5.6240 h1        1 AP4      0.070700
     25 H112       -3.4520    1.0000    4.7660 h1        1 AP4      0.070700
@<TRIPOS>BOND
     1    1    2 2   
     2    1   11 1   
     3    2    3 1   
     4    2    4 1   
     5    3   17 1   
     6    3   18 1   
     7    4    5 1   
     8    4   19 1   
     9    5    6 2   
    10    5   12 1   
    11    7    8 1   
    12    7   12 1   
    13    7   15 1   
    14    8    9 1   
    15    8   13 1   
    16    8   20 1   
    17    9   10 1   
    18    9   21 1   
    19    9   22 1   
    20   10   11 1   
    21   10   23 1   
    22   11   12 2   
    23   13   14 1   
    24   13   24 1   
    25   13   25 1   
    26   14   15 1   
    27   15   16 2   
@<TRIPOS>SUBSTRUCTURE
     1 AP4         1 TEMP              0 ****  ****    0 ROOT
