@<TRIPOS>MOLECULE
AP4
   26    28     1     0     0
SMALL
bcc


@<TRIPOS>ATOM
      1 N1         -0.0080    0.1350   -0.0360 nc        1 AP4     -0.596300
      2 C2          1.3120    0.0290    0.0150 cd        1 AP4      0.531800
      3 N2          2.0220    0.1480   -1.3040 n4        1 AP4     -0.801600
      4 N3          2.0840   -0.1670    1.1490 n         1 AP4     -0.490400
      5 C4          1.4340   -0.2870    2.4220 c         1 AP4      0.721700
      6 O4          2.1670   -0.5400    3.3760 o         1 AP4     -0.497500
      7 N5         -0.7110   -0.2050    3.6250 n         1 AP4     -0.327000
      8 C6         -2.1670   -0.3920    3.5740 c3        1 AP4      0.029700
      9 C7         -2.8290    0.2780    2.3460 c3        1 AP4      0.178800
     10 N8         -2.1010    0.0320    1.1270 nh        1 AP4     -0.725000
     11 C10        -0.7110    0.0520    1.1800 cc        1 AP4      0.342600
     12 C9         -0.0290   -0.1050    2.4080 cd        1 AP4     -0.111600
     13 C11        -2.6800    0.2350    4.8960 c3        1 AP4      0.115400
     14 O12        -1.5350    0.8840    5.4930 os        1 AP4     -0.369900
     15 C13        -0.4070    0.6700    4.7230 c         1 AP4      0.804600
     16 O14         0.6450    1.1910    5.0670 o         1 AP4     -0.522500
     17 HN21        2.6670    0.9480   -1.2750 hn        1 AP4      0.483467
     18 HN22        2.5430   -0.7160   -1.4920 hn        1 AP4      0.483467
     19 HN3         3.0750   -0.2880    1.1210 hn        1 AP4      0.355500
     20 H6         -2.3660   -1.5010    3.5540 h1        1 AP4      0.114700
     21 H71        -2.9240    1.3870    2.5370 h1        1 AP4      0.077200
     22 H72        -3.8640   -0.1500    2.2170 h1        1 AP4      0.077200
     23 HN8        -2.5550    0.2720    0.2740 hn        1 AP4      0.459800
     24 H111       -3.0320   -0.5440    5.6180 h1        1 AP4      0.091700
     25 H112       -3.4560    1.0240    4.7420 h1        1 AP4      0.091700
     26 H23         1.3330    0.2970   -2.0580 hn        1 AP4      0.483467
@<TRIPOS>BOND
     1    1    2 2   
     2    1   11 1   
     3    2    3 1   
     4    2    4 1   
     5    3   17 1   
     6    3   18 1   
     7    3   26 1   
     8    4    5 1   
     9    4   19 1   
    10    5    6 2   
    11    5   12 1   
    12    7    8 1   
    13    7   12 1   
    14    7   15 1   
    15    8    9 1   
    16    8   13 1   
    17    8   20 1   
    18    9   10 1   
    19    9   21 1   
    20    9   22 1   
    21   10   11 1   
    22   10   23 1   
    23   11   12 2   
    24   13   14 1   
    25   13   24 1   
    26   13   25 1   
    27   14   15 1   
    28   15   16 2   
@<TRIPOS>SUBSTRUCTURE
     1 AP4         1 TEMP              0 ****  ****    0 ROOT
