@<TRIPOS>MOLECULE
AP6
   32    34     1     0     0
SMALL
bcc


@<TRIPOS>ATOM
      1 N1         -1.2460   -0.0160    3.0140 nb        1 AP6     -0.812000
      2 C2         -0.1780   -0.0860    3.8860 ca        1 AP6      0.892900
      3 N2         -0.4740   -0.3120    5.2450 nh        1 AP6     -0.913500
      4 N3          1.1530    0.0030    3.5360 nb        1 AP6     -0.819000
      5 C4          1.4450    0.0370    2.2030 ca        1 AP6      0.669200
      6 N4          2.8000    0.0080    1.8130 nh        1 AP6     -0.916500
      7 C9          0.4170    0.0330    1.2020 ca        1 AP6     -0.263000
      8 C10        -0.9430    0.0740    1.6850 ca        1 AP6      0.703200
      9 N5          0.7030    0.0850   -0.1870 nh        1 AP6     -0.663600
     10 C6         -0.3890   -0.4440   -1.0090 c3        1 AP6      0.203800
     11 C7         -1.7380    0.2230   -0.6260 c3        1 AP6      0.213800
     12 N8         -1.9930    0.2610    0.7870 nh        1 AP6     -0.861900
     13 C11        -0.1380   -0.2220   -2.4770 ca        1 AP6     -0.096300
     14 C12        -0.2330   -1.3010   -3.3630 ca        1 AP6     -0.112500
     15 C16         0.1770    1.0500   -2.9670 ca        1 AP6     -0.112500
     16 C13        -0.0230   -1.1050   -4.7280 ca        1 AP6     -0.134000
     17 C15         0.3900    1.2400   -4.3320 ca        1 AP6     -0.134000
     18 C14         0.2890    0.1640   -5.2130 ca        1 AP6     -0.123000
     19 HN21        0.2470   -0.0600    5.8830 hn        1 AP6      0.414800
     20 HN22       -1.3920   -0.0490    5.5290 hn        1 AP6      0.414800
     21 HN41        3.4500    0.0450    2.5710 hn        1 AP6      0.400300
     22 HN42        3.0120    0.6730    1.0990 hn        1 AP6      0.400300
     23 HN5         1.5480   -0.4140   -0.4040 hn        1 AP6      0.382800
     24 H6         -0.5090   -1.5600   -0.8350 h1        1 AP6      0.035700
     25 H71        -1.7370    1.2860   -1.0090 h1        1 AP6      0.055700
     26 H72        -2.5640   -0.3390   -1.1470 h1        1 AP6      0.055700
     27 HN8        -2.9090    0.0160    1.0880 hn        1 AP6      0.438800
     28 H12        -0.4740   -2.3060   -2.9860 ha        1 AP6      0.140000
     29 H16         0.2610    1.8990   -2.2710 ha        1 AP6      0.140000
     30 H13        -0.1010   -1.9560   -5.4200 ha        1 AP6      0.133500
     31 H15         0.6380    2.2420   -4.7120 ha        1 AP6      0.133500
     32 H14         0.4560    0.3160   -6.2900 ha        1 AP6      0.133000
@<TRIPOS>BOND
     1    1    2 ar  
     2    1    8 ar  
     3    2    3 1   
     4    2    4 ar  
     5    3   19 1   
     6    3   20 1   
     7    4    5 ar  
     8    5    6 1   
     9    5    7 ar  
    10    6   21 1   
    11    6   22 1   
    12    7    8 ar  
    13    7    9 1   
    14    8   12 1   
    15    9   10 1   
    16    9   23 1   
    17   10   11 1   
    18   10   13 1   
    19   10   24 1   
    20   11   12 1   
    21   11   25 1   
    22   11   26 1   
    23   12   27 1   
    24   13   14 ar  
    25   13   15 ar  
    26   14   16 ar  
    27   14   28 1   
    28   15   17 ar  
    29   15   29 1   
    30   16   18 ar  
    31   16   30 1   
    32   17   18 ar  
    33   17   31 1   
    34   18   32 1   
@<TRIPOS>SUBSTRUCTURE
     1 AP6         1 TEMP              0 ****  ****    0 ROOT
