@<TRIPOS>MOLECULE
AP6
   32    29     1     0     0
SMALL
bcc


@<TRIPOS>ATOM
      1 N1          1.2820   -0.3430   -3.3670 n1        1 AP6     -0.278000
      2 C2          2.6740   -0.3430   -3.3670 c1        1 AP6      0.170000
      3 N2          3.3840   -0.2650   -4.6010 n3        1 AP6     -0.312000
      4 N3          3.3880   -0.3430   -2.1380 n1        1 AP6     -0.286000
      5 C4          2.7080   -0.3430   -0.9450 c1        1 AP6      0.144000
      6 N4          3.4210   -0.4720    0.2760 n3        1 AP6     -0.313000
      7 C9          1.3460   -0.3430   -0.9390 c1        1 AP6     -0.193000
      8 C10         0.6110   -0.3430   -2.2080 c1        1 AP6      0.158000
      9 N5          0.5660   -0.3430    0.3410 n3        1 AP6     -0.232000
     10 C6         -0.7750    0.4190    0.1010 c3        1 AP6      0.017000
     11 C7         -1.4660   -0.3430   -0.9330 c3        1 AP6     -0.042000
     12 N8         -0.9100   -0.3430   -2.1430 n3        1 AP6     -0.285000
     13 C11        -1.5830    0.4720    1.5230 c2        1 AP6     -0.088000
     14 C12        -2.0060    1.6900    2.0350 c2        1 AP6     -0.122000
     15 C16        -1.8450   -0.6980    2.2160 c1        1 AP6     -0.102000
     16 C13        -2.6920    1.7360    3.2430 c1        1 AP6     -0.133000
     17 C15        -2.5320   -0.6520    3.4250 c1        1 AP6     -0.129500
     18 C14        -2.9540    0.5660    3.9350 c1        1 AP6     -0.129500
     19 HN21        3.2840    0.4640   -5.1390 hn        1 AP6      0.210000
     20 HN22        3.9570   -0.9330   -4.8400 hn        1 AP6      0.210000
     21 HN41        3.1200   -1.0400    0.9230 hn        1 AP6      0.195500
     22 HN42        4.1900    0.0010    0.4080 hn        1 AP6      0.195500
     23 HN5         1.0460    0.0830    0.9890 hn        1 AP6      0.179000
     24 H6         -0.5930    1.3240   -0.2150 h1        1 AP6      0.084000
     25 H71        -1.5100   -1.2710   -0.6320 h1        1 AP6      0.092500
     26 H72        -2.3620    0.0330   -1.0240 h1        1 AP6      0.092500
     27 HN8        -1.2360   -1.0440   -2.6270 hn        1 AP6      0.223000
     28 H12        -1.8210    2.5150    1.5470 ha        1 AP6      0.132000
     29 H16        -1.5480   -1.5560    1.8560 ha        1 AP6      0.146000
     30 H13        -2.9900    2.5930    3.6030 ha        1 AP6      0.133000
     31 H15        -2.7170   -1.4760    3.9130 ha        1 AP6      0.132500
     32 H14        -3.4360    0.5990    4.7840 ha        1 AP6      0.132500
@<TRIPOS>BOND
     1    1    8 1   
     2    2    3 1   
     3    2    4 1   
     4    3   19 1   
     5    3   20 1   
     6    5    6 1   
     7    5    7 1   
     8    6   21 1   
     9    6   22 1   
    10    7    9 1   
    11    8   12 1   
    12    9   10 1   
    13    9   23 1   
    14   10   11 1   
    15   10   13 1   
    16   10   24 1   
    17   11   12 1   
    18   11   25 1   
    19   11   26 1   
    20   12   27 1   
    21   13   14 1   
    22   13   15 1   
    23   14   16 1   
    24   14   28 1   
    25   15   29 1   
    26   16   30 1   
    27   17   18 1   
    28   17   31 1   
    29   18   32 1   
@<TRIPOS>SUBSTRUCTURE
     1 AP6         1 TEMP              0 ****  ****    0 ROOT
