@<TRIPOS>MOLECULE
AP6
   34    36     1     0     0
SMALL
bcc


@<TRIPOS>ATOM
      1 N1         -0.0210   -0.2340   -0.0460 nb        1 AP6     -0.744000
      2 C2          1.3600   -0.2920    0.0350 ca        1 AP6      0.737900
      3 N2          2.0480   -0.5370   -1.2680 n4        1 AP6     -0.808300
      4 N3          2.1330   -0.1730    1.1250 nb        1 AP6     -0.669000
      5 C4          1.4650    0.0770    2.3080 ca        1 AP6      0.328200
      6 N4          2.3230    0.2240    3.4930 n4        1 AP6     -0.796300
      7 C9          0.0540    0.2050    2.4080 ca        1 AP6      0.054000
      8 C10        -0.6870   -0.0030    1.1110 ca        1 AP6      0.723200
      9 N5         -0.6200    0.5520    3.5260 nh        1 AP6     -0.712600
     10 C6         -2.0570    0.8440    3.4960 c3        1 AP6      0.261800
     11 C7         -2.7850    0.0790    2.3620 c3        1 AP6      0.177800
     12 N8         -2.0480    0.0560    1.1210 nh        1 AP6     -0.814900
     13 C11        -2.7100    0.5400    4.8120 ca        1 AP6     -0.183300
     14 C12        -3.3240    1.5780    5.5220 ca        1 AP6     -0.109000
     15 C16        -2.7280   -0.7640    5.3230 ca        1 AP6     -0.109000
     16 C13        -3.9640    1.3070    6.7320 ca        1 AP6     -0.113000
     17 C15        -3.3650   -1.0270    6.5340 ca        1 AP6     -0.113000
     18 C14        -3.9860    0.0070    7.2380 ca        1 AP6     -0.075000
     19 HN21        1.8280    0.2380   -1.9110 hn        1 AP6      0.491800
     20 HN22        3.0670   -0.5960   -1.1350 hn        1 AP6      0.491800
     21 HN41        2.0840   -0.4970    4.1840 hn        1 AP6      0.478467
     22 HN42        2.1860    1.1590    3.8980 hn        1 AP6      0.478467
     23 HN5        -0.2120    0.4750    4.4320 hn        1 AP6      0.460800
     24 H6         -2.1380    1.9580    3.2830 h1        1 AP6      0.102700
     25 H71        -3.7740    0.5930    2.1770 h1        1 AP6      0.110700
     26 H72        -2.9950   -0.9820    2.6910 h1        1 AP6      0.110700
     27 HN8        -2.5640   -0.0570    0.2690 hn        1 AP6      0.499800
     28 H12        -3.3170    2.6070    5.1290 ha        1 AP6      0.135000
     29 H16        -2.2550   -1.5880    4.7700 ha        1 AP6      0.135000
     30 H13        -4.4570    2.1240    7.2850 ha        1 AP6      0.165000
     31 H15        -3.3870   -2.0550    6.9320 ha        1 AP6      0.165000
     32 H14        -4.4960   -0.2050    8.1930 ha        1 AP6      0.169000
     33 H23         1.7000   -1.4200   -1.6700 hn        1 AP6      0.491800
     34 H43         3.3190    0.1190    3.2380 hn        1 AP6      0.478467
@<TRIPOS>BOND
     1    1    2 ar  
     2    1    8 ar  
     3    2    3 1   
     4    2    4 ar  
     5    3   19 1   
     6    3   20 1   
     7    3   33 1   
     8    4    5 ar  
     9    5    6 1   
    10    5    7 ar  
    11    6   21 1   
    12    6   22 1   
    13    6   34 1   
    14    7    8 ar  
    15    7    9 1   
    16    8   12 1   
    17    9   10 1   
    18    9   23 1   
    19   10   11 1   
    20   10   13 1   
    21   10   24 1   
    22   11   12 1   
    23   11   25 1   
    24   11   26 1   
    25   12   27 1   
    26   13   14 ar  
    27   13   15 ar  
    28   14   16 ar  
    29   14   28 1   
    30   15   17 ar  
    31   15   29 1   
    32   16   18 ar  
    33   16   30 1   
    34   17   18 ar  
    35   17   31 1   
    36   18   32 1   
@<TRIPOS>SUBSTRUCTURE
     1 AP6         1 TEMP              0 ****  ****    0 ROOT
