@<TRIPOS>MOLECULE
AP6
   32    34     1     0     0
SMALL
bcc


@<TRIPOS>ATOM
      1 N1         -0.0390   -0.1840   -0.0440 nb        1 AP6     -0.804000
      2 C2          1.3370   -0.3010   -0.0210 ca        1 AP6      0.888900
      3 N2          1.9720   -0.6580   -1.2280 nv        1 AP6     -0.914500
      4 N3          2.1330   -0.1790    1.0980 nb        1 AP6     -0.812000
      5 C4          1.5070    0.0620    2.2880 ca        1 AP6      0.665200
      6 N4          2.3080    0.2540    3.4330 nv        1 AP6     -0.915500
      7 C9          0.0800    0.2020    2.3810 ca        1 AP6     -0.242000
      8 C10        -0.6520    0.0710    1.1460 ca        1 AP6      0.679200
      9 N5         -0.5680    0.3530    3.6330 nu        1 AP6     -0.676600
     10 C6         -1.9610    0.7940    3.5630 c3        1 AP6      0.221800
     11 C7         -2.7230    0.1030    2.4020 c3        1 AP6      0.194800
     12 N8         -2.0420    0.2800    1.1440 nu        1 AP6     -0.840900
     13 C11        -2.6930    0.5080    4.8500 ca        1 AP6     -0.095300
     14 C12        -3.4130    1.5340    5.4730 ca        1 AP6     -0.112000
     15 C16        -2.6750   -0.7680    5.4210 ca        1 AP6     -0.112000
     16 C13        -4.1140    1.2820    6.6510 ca        1 AP6     -0.134500
     17 C15        -3.3740   -1.0160    6.6030 ca        1 AP6     -0.134500
     18 C14        -4.0950    0.0080    7.2180 ca        1 AP6     -0.123000
     19 HN21        1.4590   -0.4460   -2.0540 hn        1 AP6      0.414800
     20 HN22        2.9430   -0.4440   -1.2730 hn        1 AP6      0.414800
     21 HN41        3.2840    0.0970    3.2860 hn        1 AP6      0.400300
     22 HN42        1.9630   -0.2320    4.2330 hn        1 AP6      0.400300
     23 HN5        -0.0580    0.9810    4.2300 hn        1 AP6      0.383800
     24 H6         -2.0080    1.9130    3.3730 h1        1 AP6      0.044700
     25 H71        -2.8650   -0.9880    2.6550 h1        1 AP6      0.053200
     26 H72        -3.7390    0.5800    2.3110 h1        1 AP6      0.053200
     27 HN8        -2.5360   -0.0680    0.3480 hn        1 AP6      0.427800
     28 H12        -3.4290    2.5430    5.0330 ha        1 AP6      0.139000
     29 H16        -2.1020   -1.5760    4.9400 ha        1 AP6      0.139000
     30 H13        -4.6800    2.0910    7.1350 ha        1 AP6      0.133000
     31 H15        -3.3550   -2.0210    7.0490 ha        1 AP6      0.133000
     32 H14        -4.6460   -0.1890    8.1490 ha        1 AP6      0.132000
@<TRIPOS>BOND
     1    1    2 ar  
     2    1    8 ar  
     3    2    3 1   
     4    2    4 ar  
     5    3   19 1   
     6    3   20 1   
     7    4    5 ar  
     8    5    6 1   
     9    5    7 ar  
    10    6   21 1   
    11    6   22 1   
    12    7    8 ar  
    13    7    9 1   
    14    8   12 1   
    15    9   10 1   
    16    9   23 1   
    17   10   11 1   
    18   10   13 1   
    19   10   24 1   
    20   11   12 1   
    21   11   25 1   
    22   11   26 1   
    23   12   27 1   
    24   13   14 ar  
    25   13   15 ar  
    26   14   16 ar  
    27   14   28 1   
    28   15   17 ar  
    29   15   29 1   
    30   16   18 ar  
    31   16   30 1   
    32   17   18 ar  
    33   17   31 1   
    34   18   32 1   
@<TRIPOS>SUBSTRUCTURE
     1 AP6         1 TEMP              0 ****  ****    0 ROOT
