@<TRIPOS>MOLECULE
AP6
   32    34     1     0     0
SMALL
bcc


@<TRIPOS>ATOM
      1 N1         -0.0350   -0.1930   -0.0430 nb        1 AP6     -0.804000
      2 C2          1.3420   -0.2990   -0.0180 ca        1 AP6      0.888900
      3 N2          1.9800   -0.6580   -1.2230 nh        1 AP6     -0.914500
      4 N3          2.1360   -0.1640    1.1000 nb        1 AP6     -0.812000
      5 C4          1.5090    0.0780    2.2880 ca        1 AP6      0.665200
      6 N4          2.3070    0.2840    3.4320 nh        1 AP6     -0.915500
      7 C9          0.0800    0.2080    2.3800 ca        1 AP6     -0.242000
      8 C10        -0.6500    0.0630    1.1460 ca        1 AP6      0.679200
      9 N5         -0.5690    0.3600    3.6310 nh        1 AP6     -0.676600
     10 C6         -1.9660    0.7880    3.5590 c3        1 AP6      0.221800
     11 C7         -2.7220    0.0850    2.4010 c3        1 AP6      0.194800
     12 N8         -2.0420    0.2610    1.1430 nh        1 AP6     -0.840900
     13 C11        -2.6960    0.5030    4.8480 ca        1 AP6     -0.095300
     14 C12        -3.4250    1.5260    5.4650 ca        1 AP6     -0.112000
     15 C16        -2.6660   -0.7700    5.4250 ca        1 AP6     -0.112000
     16 C13        -4.1230    1.2730    6.6440 ca        1 AP6     -0.134500
     17 C15        -3.3630   -1.0180    6.6080 ca        1 AP6     -0.134500
     18 C14        -4.0930    0.0020    7.2180 ca        1 AP6     -0.123000
     19 HN21        1.4650   -0.4540   -2.0510 hn        1 AP6      0.414800
     20 HN22        2.9490   -0.4360   -1.2700 hn        1 AP6      0.414800
     21 HN41        3.2850    0.1330    3.2860 hn        1 AP6      0.400300
     22 HN42        1.9660   -0.2010    4.2350 hn        1 AP6      0.400300
     23 HN5        -0.0640    0.9960    4.2250 hn        1 AP6      0.383800
     24 H6         -2.0220    1.9060    3.3630 h1        1 AP6      0.044700
     25 H71        -2.8540   -1.0060    2.6600 h1        1 AP6      0.053200
     26 H72        -3.7420    0.5530    2.3080 h1        1 AP6      0.053200
     27 HN8        -2.5330   -0.0950    0.3490 hn        1 AP6      0.427800
     28 H12        -3.4500    2.5320    5.0200 ha        1 AP6      0.139000
     29 H16        -2.0860   -1.5750    4.9480 ha        1 AP6      0.139000
     30 H13        -4.6970    2.0800    7.1240 ha        1 AP6      0.133000
     31 H15        -3.3350   -2.0210    7.0590 ha        1 AP6      0.133000
     32 H14        -4.6430   -0.1950    8.1490 ha        1 AP6      0.132000
@<TRIPOS>BOND
     1    1    2 ar  
     2    1    8 ar  
     3    2    3 1   
     4    2    4 ar  
     5    3   19 1   
     6    3   20 1   
     7    4    5 ar  
     8    5    6 1   
     9    5    7 ar  
    10    6   21 1   
    11    6   22 1   
    12    7    8 ar  
    13    7    9 1   
    14    8   12 1   
    15    9   10 1   
    16    9   23 1   
    17   10   11 1   
    18   10   13 1   
    19   10   24 1   
    20   11   12 1   
    21   11   25 1   
    22   11   26 1   
    23   12   27 1   
    24   13   14 ar  
    25   13   15 ar  
    26   14   16 ar  
    27   14   28 1   
    28   15   17 ar  
    29   15   29 1   
    30   16   18 ar  
    31   16   30 1   
    32   17   18 ar  
    33   17   31 1   
    34   18   32 1   
@<TRIPOS>SUBSTRUCTURE
     1 AP6         1 TEMP              0 ****  ****    0 ROOT
