@<TRIPOS>MOLECULE
AP9
   54    56     1     0     0
SMALL
bcc


@<TRIPOS>ATOM
      1 O1          0.2760    3.6500   -2.4430 oh        1 AP9     -0.609800
      2 C15        -0.6010    2.8410   -1.6740 c3        1 AP9      0.094400
      3 C12        -0.2240    3.0150   -0.1840 c3        1 AP9      0.214500
      4 C13        -0.3540    4.5040    0.2240 c3        1 AP9     -0.067700
      5 C14        -1.7820    4.9730    0.0250 c3        1 AP9     -0.089100
      6 C16         0.0590    4.7190    1.6660 c3        1 AP9     -0.089100
      7 N2          1.1030    2.5100    0.1260 nh        1 AP9     -0.804900
      8 C2          1.3710    1.1250    0.0840 ca        1 AP9      0.911900
      9 N3          2.7070    0.7790   -0.0450 nb        1 AP9     -0.782000
     10 C4          2.9320   -0.5560    0.0610 ca        1 AP9      0.493800
     11 C5          1.8920   -1.5590    0.2620 ca        1 AP9     -0.258200
     12 N7          2.4600   -2.8410    0.3110 nc        1 AP9     -0.541100
     13 C8          3.7750   -2.6440    0.1510 cd        1 AP9      0.399700
     14 N9          4.1330   -1.2800   -0.0070 na        1 AP9     -0.268000
     15 C9          5.4640   -0.7480   -0.1890 c3        1 AP9      0.056000
     16 C10         6.3830   -1.0440    1.0000 c3        1 AP9     -0.111100
     17 C11         6.1300   -1.2580   -1.4690 c3        1 AP9     -0.111100
     18 C6          0.5460   -1.0780    0.3600 ca        1 AP9      0.778200
     19 N1          0.2960    0.2530    0.2490 nb        1 AP9     -0.819000
     20 N6         -0.4680   -2.0050    0.5870 nh        1 AP9     -0.731300
     21 C1A        -1.8480   -1.7270    0.5410 ca        1 AP9      0.195600
     22 C2A        -2.4060   -0.6230    1.2060 ca        1 AP9     -0.191000
     23 C3A        -3.8030   -0.4060    1.1890 ca        1 AP9      0.163600
     24 N10        -4.3430    0.7480    1.7660 nh        1 AP9     -0.820200
     25 C4A        -4.6410   -1.3300    0.5260 ca        1 AP9     -0.210000
     26 C5A        -4.0720   -2.4260   -0.1160 ca        1 AP9      0.075400
     27 CL1        -5.0890   -3.5360   -0.9150 cl        1 AP9     -0.099400
     28 C6A        -2.6970   -2.6420   -0.1260 ca        1 AP9     -0.214000
     29 HO1         0.0700    3.4760   -3.3680 ho        1 AP9      0.403000
     30 H151       -0.5010    1.7650   -1.9790 h1        1 AP9      0.038700
     31 H152       -1.6640    3.1630   -1.8340 h1        1 AP9      0.038700
     32 H12        -0.9820    2.4270    0.4150 h1        1 AP9      0.088700
     33 H13         0.3180    5.1110   -0.4460 hc        1 AP9      0.065700
     34 H141       -2.5050    4.2620    0.4920 hc        1 AP9      0.036533
     35 H142       -1.9220    5.9770    0.4950 hc        1 AP9      0.036533
     36 H143       -2.0210    5.0660   -1.0610 hc        1 AP9      0.036533
     37 H161       -0.4800    4.0090    2.3370 hc        1 AP9      0.036533
     38 H162        1.1570    4.5660    1.7980 hc        1 AP9      0.036533
     39 H163       -0.1840    5.7620    1.9830 hc        1 AP9      0.036533
     40 HN2         1.8330    3.0790   -0.2610 hn        1 AP9      0.429800
     41 H8          4.5400   -3.4290    0.1380 h5        1 AP9      0.070800
     42 H9          5.3560    0.3770   -0.2750 h1        1 AP9      0.091700
     43 H101        7.3700   -0.5560    0.8170 hc        1 AP9      0.047200
     44 H102        5.9540   -0.6380    1.9470 hc        1 AP9      0.047200
     45 H103        6.5420   -2.1420    1.1210 hc        1 AP9      0.047200
     46 H111        5.5140   -1.0110   -2.3670 hc        1 AP9      0.047200
     47 H112        7.1260   -0.7640   -1.5740 hc        1 AP9      0.047200
     48 H113        6.2810   -2.3630   -1.4310 hc        1 AP9      0.047200
     49 HN6        -0.2150   -2.9560    0.4160 hn        1 AP9      0.458800
     50 H2A        -1.7580    0.0890    1.7410 ha        1 AP9      0.160000
     51 H11        -3.7720    1.1660    2.4660 hn        1 AP9      0.393800
     52 H12A       -5.3000    0.6690    2.0280 hn        1 AP9      0.393800
     53 H4A        -5.7310   -1.1840    0.5070 ha        1 AP9      0.148000
     54 H6A        -2.2820   -3.5180   -0.6470 ha        1 AP9      0.149000
@<TRIPOS>BOND
     1    1    2 1   
     2    1   29 1   
     3    2    3 1   
     4    2   30 1   
     5    2   31 1   
     6    3    4 1   
     7    3    7 1   
     8    3   32 1   
     9    4    5 1   
    10    4    6 1   
    11    4   33 1   
    12    5   34 1   
    13    5   35 1   
    14    5   36 1   
    15    6   37 1   
    16    6   38 1   
    17    6   39 1   
    18    7    8 1   
    19    7   40 1   
    20    8    9 ar  
    21    8   19 ar  
    22    9   10 ar  
    23   10   11 ar  
    24   10   14 1   
    25   11   12 1   
    26   11   18 ar  
    27   12   13 2   
    28   13   14 1   
    29   13   41 1   
    30   14   15 1   
    31   15   16 1   
    32   15   17 1   
    33   15   42 1   
    34   16   43 1   
    35   16   44 1   
    36   16   45 1   
    37   17   46 1   
    38   17   47 1   
    39   17   48 1   
    40   18   19 ar  
    41   18   20 1   
    42   20   21 1   
    43   20   49 1   
    44   21   22 ar  
    45   21   28 ar  
    46   22   23 ar  
    47   22   50 1   
    48   23   24 1   
    49   23   25 ar  
    50   24   51 1   
    51   24   52 1   
    52   25   26 ar  
    53   25   53 1   
    54   26   27 1   
    55   26   28 ar  
    56   28   54 1   
@<TRIPOS>SUBSTRUCTURE
     1 AP9         1 TEMP              0 ****  ****    0 ROOT
