@<TRIPOS>MOLECULE
AP9
   57    59     1     0     0
SMALL
bcc


@<TRIPOS>ATOM
      1 O1         -0.6920    0.8820    4.3630 oh        1 AP9     -0.621800
      2 C15        -0.7320    1.1910    2.9880 c3        1 AP9      0.110400
      3 C12         0.4080    0.4300    2.2560 c3        1 AP9      0.110500
      4 C13         0.0130   -1.0520    2.0570 c3        1 AP9     -0.088700
      5 C14        -1.0080   -1.1270    0.9330 c3        1 AP9     -0.117600
      6 C16         1.1770   -1.9620    1.7240 c3        1 AP9     -0.117600
      7 N2          1.6980    0.5630    3.0540 n4        1 AP9     -0.745700
      8 C2          2.5720    1.7060    2.6550 ca        1 AP9      0.744900
      9 N3          1.9490    2.9160    2.4550 nb        1 AP9     -0.587000
     10 C4          2.7880    3.9290    2.1570 ca        1 AP9      0.458800
     11 C5          4.2700    3.7550    2.0470 ca        1 AP9     -0.092200
     12 N7          4.8630    4.9700    1.7440 nc        1 AP9     -0.588100
     13 C8          3.8330    5.8560    1.6760 cd        1 AP9      0.554700
     14 N9          2.5690    5.2910    1.9090 na        1 AP9     -0.207000
     15 C9          1.2830    6.0060    1.9350 c3        1 AP9      0.041000
     16 C10         1.2200    7.0160    3.0790 c3        1 AP9     -0.126600
     17 C11         1.0000    6.7060    0.6090 c3        1 AP9     -0.126600
     18 C6          4.7520    2.4570    2.2980 ca        1 AP9      0.531200
     19 N1          3.9190    1.4240    2.5820 nb        1 AP9     -0.682000
     20 N6          6.2200    2.2350    2.3350 n4        1 AP9     -0.616100
     21 C1A         6.8100    1.7050    1.0940 ca        1 AP9      0.000600
     22 C2A         7.7850    0.6930    1.1830 ca        1 AP9     -0.094000
     23 C3A         8.4150    0.2670    0.0010 ca        1 AP9     -0.011400
     24 N10         9.4720   -0.7470    0.0600 n4        1 AP9     -0.713000
     25 C4A         8.0670    0.8090   -1.2480 ca        1 AP9     -0.059000
     26 C5A         7.0800    1.8040   -1.3140 ca        1 AP9      0.051400
     27 CL1         6.6580    2.4590   -2.7970 cl        1 AP9      0.080600
     28 C6A         6.4540    2.2610   -0.1440 ca        1 AP9     -0.054000
     29 HO1        -1.4680    0.3490    4.5900 ho        1 AP9      0.458000
     30 H151       -0.5780    2.3020    2.9070 h1        1 AP9      0.097200
     31 H152       -1.7080    0.9220    2.5080 h1        1 AP9      0.097200
     32 H12         0.5760    0.9000    1.2450 hx        1 AP9      0.111700
     33 H13        -0.4690   -1.4120    3.0110 hc        1 AP9      0.088700
     34 H141       -1.3560   -2.1860    0.8230 hc        1 AP9      0.063200
     35 H142       -1.9050   -0.4970    1.1400 hc        1 AP9      0.063200
     36 H143       -0.5570   -0.8050   -0.0360 hc        1 AP9      0.063200
     37 H161        1.8430   -1.5080    0.9510 hc        1 AP9      0.063200
     38 H162        1.7750   -2.2310    2.6300 hc        1 AP9      0.063200
     39 H163        0.7840   -2.9270    1.3070 hc        1 AP9      0.063200
     40 HN2         1.4360    0.7030    4.0510 hn        1 AP9      0.490800
     41 H8          3.9560    6.9370    1.4570 h5        1 AP9      0.140800
     42 H9          0.4910    5.2140    2.1050 h1        1 AP9      0.097700
     43 H101        1.3870    6.5290    4.0700 hc        1 AP9      0.077200
     44 H102        1.9670    7.8350    2.9430 hc        1 AP9      0.077200
     45 H103        0.1970    7.4720    3.0810 hc        1 AP9      0.077200
     46 H111        1.0090    5.9910   -0.2480 hc        1 AP9      0.077200
     47 H112        1.7360    7.5230    0.4120 hc        1 AP9      0.077200
     48 H113       -0.0210    7.1650    0.6720 hc        1 AP9      0.077200
     49 HN6         6.6620    3.1580    2.5240 hn        1 AP9      0.496300
     50 H2A         8.0590    0.2520    2.1590 ha        1 AP9      0.179000
     51 H11         9.4040   -1.3000    0.9250 hn        1 AP9      0.487800
     52 H12A        9.3940   -1.3840   -0.7480 hn        1 AP9      0.487800
     53 H4A         8.5580    0.4750   -2.1850 ha        1 AP9      0.211000
     54 H6A         5.6980    3.0680   -0.2170 ha        1 AP9      0.203000
     55 H22         2.2380   -0.3120    2.9750 hn        1 AP9      0.490800
     56 H62         6.4430    1.5970    3.1170 hn        1 AP9      0.496300
     57 H104       10.3950   -0.2850    0.0290 hn        1 AP9      0.487800
@<TRIPOS>BOND
     1    1    2 1   
     2    1   29 1   
     3    2    3 1   
     4    2   30 1   
     5    2   31 1   
     6    3    4 1   
     7    3    7 1   
     8    3   32 1   
     9    4    5 1   
    10    4    6 1   
    11    4   33 1   
    12    5   34 1   
    13    5   35 1   
    14    5   36 1   
    15    6   37 1   
    16    6   38 1   
    17    6   39 1   
    18    7    8 1   
    19    7   40 1   
    20    7   55 1   
    21    8    9 ar  
    22    8   19 ar  
    23    9   10 ar  
    24   10   11 ar  
    25   10   14 1   
    26   11   12 1   
    27   11   18 ar  
    28   12   13 2   
    29   13   14 1   
    30   13   41 1   
    31   14   15 1   
    32   15   16 1   
    33   15   17 1   
    34   15   42 1   
    35   16   43 1   
    36   16   44 1   
    37   16   45 1   
    38   17   46 1   
    39   17   47 1   
    40   17   48 1   
    41   18   19 ar  
    42   18   20 1   
    43   20   21 1   
    44   20   49 1   
    45   20   56 1   
    46   21   22 ar  
    47   21   28 ar  
    48   22   23 ar  
    49   22   50 1   
    50   23   24 1   
    51   23   25 ar  
    52   24   51 1   
    53   24   52 1   
    54   24   57 1   
    55   25   26 ar  
    56   25   53 1   
    57   26   27 1   
    58   26   28 ar  
    59   28   54 1   
@<TRIPOS>SUBSTRUCTURE
     1 AP9         1 TEMP              0 ****  ****    0 ROOT
