@<TRIPOS>MOLECULE
AP9
   54    48     1     0     0
SMALL
bcc


@<TRIPOS>ATOM
      1 O1         -1.2010   -4.2900    2.3330 oh        1 AP9     -0.334000
      2 C15        -1.8560   -3.0160    2.4940 c3        1 AP9     -0.056000
      3 C12        -2.3140   -2.5190    1.1590 c3        1 AP9      0.017000
      4 C13        -3.4100   -3.4290    0.6300 c3        1 AP9     -0.106000
      5 C14        -4.6400   -3.3790    1.5950 c3        1 AP9     -0.207000
      6 C16        -3.8410   -2.9540   -0.7840 c3        1 AP9     -0.207000
      7 N2         -1.1850   -2.5130    0.2200 n3        1 AP9     -0.250000
      8 C2         -0.2450   -1.3660    0.1960 c2        1 AP9      0.193000
      9 N3         -0.6100   -0.2370    0.8460 n2        1 AP9     -0.258000
     10 C4          0.1870    0.8800    0.7850 c1        1 AP9      0.094000
     11 C5          1.3340    0.8510    0.0770 c1        1 AP9     -0.243000
     12 N7          1.9250    2.0770    0.1820 n1        1 AP9     -0.144000
     13 C8          1.1410    2.8540    0.9540 c1        1 AP9     -0.065000
     14 N9          0.0630    2.1200    1.3300 n1        1 AP9     -0.144000
     15 C9         -0.9670    2.6350    2.1320 c2        1 AP9      0.037000
     16 C10        -0.3900    3.1340    3.4310 c3        1 AP9     -0.229000
     17 C11        -1.6470    3.7710    1.4130 c3        1 AP9     -0.229000
     18 C6          1.7060   -0.3040   -0.5870 c1        1 AP9      0.246000
     19 N1          0.9230   -1.3970   -0.5260 n1        1 AP9     -0.304000
     20 N6          2.9910   -0.4880   -1.1650 n3        1 AP9     -0.241000
     21 C1A         3.3550    0.2350   -2.3240 c2        1 AP9      0.074000
     22 C2A         4.1580    1.3770   -2.2140 c2        1 AP9     -0.160500
     23 C3A         4.5430    2.0650   -3.3520 c1        1 AP9      0.024000
     24 N10         5.2890    3.3250   -3.2290 n2        1 AP9     -0.324000
     25 C4A         4.1270    1.6180   -4.6140 c2        1 AP9     -0.187000
     26 C5A         3.3270    0.4820   -4.7210 c1        1 AP9      0.024000
     27 CL1         2.9450   -0.1730   -6.3050 cl        1 AP9     -0.021000
     28 C6A         2.9420   -0.2090   -3.5750 c2        1 AP9     -0.160500
     29 HO1        -0.8080   -4.5190    3.0950 ho        1 AP9      0.202000
     30 H151       -2.6390   -3.1200    3.0950 h1        1 AP9      0.074500
     31 H152       -1.2230   -2.3680    2.8870 h1        1 AP9      0.074500
     32 H12        -2.6730   -1.5860    1.2550 h1        1 AP9      0.125000
     33 H13        -3.0680   -4.3600    0.5780 hc        1 AP9      0.106000
     34 H141       -4.7250   -2.4780    1.9690 hc        1 AP9      0.076000
     35 H142       -5.4490   -3.6050    1.1010 hc        1 AP9      0.076000
     36 H143       -4.5100   -4.0300    2.3300 hc        1 AP9      0.076000
     37 H161       -3.7810   -1.9810   -0.8320 hc        1 AP9      0.076000
     38 H162       -3.2450   -3.3530   -1.4620 hc        1 AP9      0.076000
     39 H163       -4.7760   -3.2360   -0.9570 hc        1 AP9      0.076000
     40 HN2        -1.0570   -3.2190   -0.3430 hn        1 AP9      0.226000
     41 H8          1.3060    3.7880    1.1830 DU        1 AP9      0.197000
     42 H9         -1.6220    1.9290    2.3170 ha        1 AP9      0.128000
     43 H101        0.1060    3.9650    3.2730 hc        1 AP9      0.086167
     44 H102       -1.1240    3.3040    4.0740 hc        1 AP9      0.086167
     45 H103        0.2180    2.4550    3.8010 hc        1 AP9      0.086167
     46 H111       -1.0520    4.5480    1.3920 hc        1 AP9      0.086167
     47 H112       -1.8590    3.4980    0.4990 hc        1 AP9      0.086167
     48 H113       -2.4720    4.0060    1.8840 hc        1 AP9      0.086167
     49 HN6         3.5980   -1.0330   -0.7610 hn        1 AP9      0.229000
     50 H2A         4.4310    1.6980   -1.3350 ha        1 AP9      0.152000
     51 H11         5.5780    3.6110   -2.3980 hn        1 AP9      0.186000
     52 H12A        5.4240    3.8520   -3.9670 hn        1 AP9      0.186000
     53 H4A         4.3940    2.0960   -5.4090 ha        1 AP9      0.147000
     54 H6A         2.3780   -1.0110   -3.6500 ha        1 AP9      0.152000
@<TRIPOS>BOND
     1    1    2 1   
     2    1   29 1   
     3    2    3 1   
     4    2   30 1   
     5    2   31 1   
     6    3    4 1   
     7    3    7 1   
     8    3   32 1   
     9    4    5 1   
    10    4    6 1   
    11    4   33 1   
    12    5   34 1   
    13    5   35 1   
    14    5   36 1   
    15    6   37 1   
    16    6   38 1   
    17    6   39 1   
    18    7    8 1   
    19    7   40 1   
    20    8    9 1   
    21    8   19 1   
    22    9   10 1   
    23   11   18 1   
    24   12   13 1   
    25   13   14 1   
    26   15   16 1   
    27   15   17 1   
    28   15   42 1   
    29   16   43 1   
    30   16   44 1   
    31   16   45 1   
    32   17   46 1   
    33   17   47 1   
    34   17   48 1   
    35   18   20 1   
    36   20   21 1   
    37   20   49 1   
    38   21   22 1   
    39   21   28 1   
    40   22   23 1   
    41   22   50 1   
    42   23   25 1   
    43   24   51 1   
    44   24   52 1   
    45   25   26 1   
    46   25   53 1   
    47   26   28 1   
    48   28   54 1   
@<TRIPOS>SUBSTRUCTURE
     1 AP9         1 TEMP              0 ****  ****    0 ROOT
