@<TRIPOS>MOLECULE
AP9
   54    56     1     0     0
SMALL
bcc


@<TRIPOS>ATOM
      1 O1         -0.2810    0.3190    0.4030 oh        1 AP9     -0.609800
      2 C15         1.1170    0.1260    0.2600 c3        1 AP9      0.094400
      3 C12         1.7200   -0.0470    1.6730 c3        1 AP9      0.214500
      4 C13         1.0700   -1.2630    2.3800 c3        1 AP9     -0.067700
      5 C14         1.3290   -2.5260    1.5820 c3        1 AP9     -0.089100
      6 C16         1.6000   -1.4310    3.7890 c3        1 AP9     -0.089100
      7 N2          1.5980    1.1480    2.4900 nh        1 AP9     -0.804900
      8 C2          2.3360    2.3100    2.1760 ca        1 AP9      0.911900
      9 N3          1.8460    3.4920    2.7090 nb        1 AP9     -0.782000
     10 C4          2.6600    4.5580    2.4990 ca        1 AP9      0.493800
     11 C5          3.9210    4.5080    1.7670 ca        1 AP9     -0.258200
     12 N7          4.5040    5.7830    1.7200 nc        1 AP9     -0.541100
     13 C8          3.6550    6.5760    2.3870 cd        1 AP9      0.399700
     14 N9          2.5140    5.8990    2.8870 na        1 AP9     -0.268000
     15 C9          1.4300    6.4740    3.6500 c3        1 AP9      0.056000
     16 C10         1.8960    7.0570    4.9870 c3        1 AP9     -0.111100
     17 C11         0.6730    7.5550    2.8740 c3        1 AP9     -0.111100
     18 C6          4.3100    3.2310    1.2470 ca        1 AP9      0.778200
     19 N1          3.5070    2.1510    1.4370 nb        1 AP9     -0.819000
     20 N6          5.5250    3.1390    0.5720 nh        1 AP9     -0.731300
     21 C1A         5.9760    2.0110   -0.1410 ca        1 AP9      0.195600
     22 C2A         5.9310    0.7190    0.4070 ca        1 AP9     -0.191000
     23 C3A         6.4460   -0.3830   -0.3120 ca        1 AP9      0.163600
     24 N10         6.3080   -1.6800    0.1940 nh        1 AP9     -0.820200
     25 C4A         7.0410   -0.1720   -1.5760 ca        1 AP9     -0.210000
     26 C5A         7.0900    1.1190   -2.0970 ca        1 AP9      0.075400
     27 CL1         7.8080    1.3660   -3.6230 cl        1 AP9     -0.099400
     28 C6A         6.5680    2.2110   -1.4110 ca        1 AP9     -0.214000
     29 HO1        -0.6270    0.4930   -0.4800 ho        1 AP9      0.403000
     30 H151        1.3200   -0.7920   -0.3520 h1        1 AP9      0.038700
     31 H152        1.5780    1.0110   -0.2550 h1        1 AP9      0.038700
     32 H12         2.8180   -0.2780    1.5340 h1        1 AP9      0.088700
     33 H13        -0.0430   -1.0900    2.4230 hc        1 AP9      0.065700
     34 H141        0.7300   -2.5280    0.6390 hc        1 AP9      0.036533
     35 H142        1.0320   -3.4220    2.1800 hc        1 AP9      0.036533
     36 H143        2.4100   -2.6190    1.3210 hc        1 AP9      0.036533
     37 H161        1.2560   -0.6010    4.4520 hc        1 AP9      0.036533
     38 H162        1.2360   -2.3930    4.2240 hc        1 AP9      0.036533
     39 H163        2.7170   -1.4420    3.7880 hc        1 AP9      0.036533
     40 HN2         0.6540    1.3300    2.7730 hn        1 AP9      0.429800
     41 H8          3.7880    7.6510    2.5560 h5        1 AP9      0.070800
     42 H9          0.7040    5.6310    3.8720 h1        1 AP9      0.091700
     43 H101        2.6000    7.9090    4.8290 hc        1 AP9      0.047200
     44 H102        2.4060    6.2810    5.6060 hc        1 AP9      0.047200
     45 H103        1.0030    7.4290    5.5450 hc        1 AP9      0.047200
     46 H111       -0.1800    7.9110    3.4990 hc        1 AP9      0.047200
     47 H112        1.3370    8.4230    2.6460 hc        1 AP9      0.047200
     48 H113        0.2690    7.1510    1.9150 hc        1 AP9      0.047200
     49 HN6         5.9140    4.0140    0.2840 hn        1 AP9      0.458800
     50 H2A         5.4860    0.5530    1.4010 ha        1 AP9      0.160000
     51 H11         6.9710   -2.3330   -0.1590 hn        1 AP9      0.393800
     52 H12A        6.1880   -1.7280    1.1810 hn        1 AP9      0.393800
     53 H4A         7.4550   -1.0150   -2.1480 ha        1 AP9      0.148000
     54 H6A         6.6220    3.2160   -1.8570 ha        1 AP9      0.149000
@<TRIPOS>BOND
     1    1    2 1   
     2    1   29 1   
     3    2    3 1   
     4    2   30 1   
     5    2   31 1   
     6    3    4 1   
     7    3    7 1   
     8    3   32 1   
     9    4    5 1   
    10    4    6 1   
    11    4   33 1   
    12    5   34 1   
    13    5   35 1   
    14    5   36 1   
    15    6   37 1   
    16    6   38 1   
    17    6   39 1   
    18    7    8 1   
    19    7   40 1   
    20    8    9 ar  
    21    8   19 ar  
    22    9   10 ar  
    23   10   11 ar  
    24   10   14 1   
    25   11   12 1   
    26   11   18 ar  
    27   12   13 2   
    28   13   14 1   
    29   13   41 1   
    30   14   15 1   
    31   15   16 1   
    32   15   17 1   
    33   15   42 1   
    34   16   43 1   
    35   16   44 1   
    36   16   45 1   
    37   17   46 1   
    38   17   47 1   
    39   17   48 1   
    40   18   19 ar  
    41   18   20 1   
    42   20   21 1   
    43   20   49 1   
    44   21   22 ar  
    45   21   28 ar  
    46   22   23 ar  
    47   22   50 1   
    48   23   24 1   
    49   23   25 ar  
    50   24   51 1   
    51   24   52 1   
    52   25   26 ar  
    53   25   53 1   
    54   26   27 1   
    55   26   28 ar  
    56   28   54 1   
@<TRIPOS>SUBSTRUCTURE
     1 AP9         1 TEMP              0 ****  ****    0 ROOT
