@<TRIPOS>MOLECULE
AP9
   54    56     1     0     0
SMALL
bcc


@<TRIPOS>ATOM
      1 O1         -0.2820    0.3180    0.4070 oh        1 AP9     -0.609800
      2 C15         1.1160    0.1260    0.2620 c3        1 AP9      0.094400
      3 C12         1.7220   -0.0480    1.6740 c3        1 AP9      0.214500
      4 C13         1.0740   -1.2650    2.3810 c3        1 AP9     -0.067700
      5 C14         1.3330   -2.5270    1.5820 c3        1 AP9     -0.089100
      6 C16         1.6070   -1.4320    3.7890 c3        1 AP9     -0.089100
      7 N2          1.6010    1.1470    2.4920 nu        1 AP9     -0.804900
      8 C2          2.3370    2.3090    2.1770 ca        1 AP9      0.911900
      9 N3          1.8460    3.4910    2.7110 nb        1 AP9     -0.782000
     10 C4          2.6590    4.5580    2.5010 ca        1 AP9      0.493800
     11 C5          3.9180    4.5090    1.7660 ca        1 AP9     -0.258200
     12 N7          4.5000    5.7850    1.7200 nc        1 AP9     -0.541100
     13 C8          3.6510    6.5770    2.3890 cd        1 AP9      0.399700
     14 N9          2.5120    5.8990    2.8900 na        1 AP9     -0.268000
     15 C9          1.4280    6.4720    3.6560 c3        1 AP9      0.056000
     16 C10         1.8970    7.0530    4.9920 c3        1 AP9     -0.111100
     17 C11         0.6700    7.5540    2.8820 c3        1 AP9     -0.111100
     18 C6          4.3080    3.2330    1.2440 ca        1 AP9      0.778200
     19 N1          3.5070    2.1530    1.4350 nb        1 AP9     -0.819000
     20 N6          5.5220    3.1440    0.5680 nu        1 AP9     -0.731300
     21 C1A         5.9730    2.0170   -0.1460 ca        1 AP9      0.195600
     22 C2A         5.9300    0.7240    0.4010 ca        1 AP9     -0.191000
     23 C3A         6.4460   -0.3770   -0.3200 ca        1 AP9      0.163600
     24 N10         6.3100   -1.6740    0.1850 nv        1 AP9     -0.820200
     25 C4A         7.0380   -0.1640   -1.5850 ca        1 AP9     -0.210000
     26 C5A         7.0840    1.1260   -2.1060 ca        1 AP9      0.075400
     27 Cl1         7.7990    1.3760   -3.6320 cl        1 AP9     -0.099400
     28 C6A         6.5620    2.2180   -1.4180 ca        1 AP9     -0.214000
     29 HO1        -0.6300    0.4910   -0.4750 ho        1 AP9      0.403000
     30 H151        1.3190   -0.7920   -0.3510 h1        1 AP9      0.038700
     31 H152        1.5750    1.0120   -0.2530 h1        1 AP9      0.038700
     32 H12         2.8210   -0.2770    1.5320 h1        1 AP9      0.088700
     33 H13        -0.0380   -1.0930    2.4260 hc        1 AP9      0.065700
     34 H141        2.4150   -2.6190    1.3190 hc        1 AP9      0.036533
     35 H142        1.0380   -3.4240    2.1800 hc        1 AP9      0.036533
     36 H143        0.7340   -2.5290    0.6400 hc        1 AP9      0.036533
     37 H161        1.2450   -2.3960    4.2240 hc        1 AP9      0.036533
     38 H162        1.2620   -0.6040    4.4530 hc        1 AP9      0.036533
     39 H163        2.7240   -1.4420    3.7870 hc        1 AP9      0.036533
     40 HN2         0.6560    1.3270    2.7760 hn        1 AP9      0.429800
     41 H8          3.7840    7.6520    2.5580 h5        1 AP9      0.070800
     42 H9          0.7040    5.6280    3.8770 h1        1 AP9      0.091700
     43 H101        2.6000    7.9050    4.8350 hc        1 AP9      0.047200
     44 H102        1.0040    7.4230    5.5520 hc        1 AP9      0.047200
     45 H103        2.4080    6.2760    5.6090 hc        1 AP9      0.047200
     46 H111        0.2650    7.1510    1.9230 hc        1 AP9      0.047200
     47 H112       -0.1830    7.9080    3.5090 hc        1 AP9      0.047200
     48 H113        1.3330    8.4230    2.6550 hc        1 AP9      0.047200
     49 HN6         5.9090    4.0190    0.2800 hn        1 AP9      0.458800
     50 H2A         5.4870    0.5570    1.3950 ha        1 AP9      0.160000
     51 H11         6.1910   -1.7230    1.1720 hn        1 AP9      0.393800
     52 H12A        6.9730   -2.3270   -0.1690 hn        1 AP9      0.393800
     53 H4A         7.4520   -1.0060   -2.1590 ha        1 AP9      0.148000
     54 H6A         6.6140    3.2230   -1.8630 ha        1 AP9      0.149000
@<TRIPOS>BOND
     1    1    2 1   
     2    1   29 1   
     3    2    3 1   
     4    2   30 1   
     5    2   31 1   
     6    3    4 1   
     7    3    7 1   
     8    3   32 1   
     9    4    5 1   
    10    4    6 1   
    11    4   33 1   
    12    5   34 1   
    13    5   35 1   
    14    5   36 1   
    15    6   37 1   
    16    6   38 1   
    17    6   39 1   
    18    7    8 1   
    19    7   40 1   
    20    8    9 ar  
    21    8   19 ar  
    22    9   10 ar  
    23   10   11 ar  
    24   10   14 1   
    25   11   12 1   
    26   11   18 ar  
    27   12   13 2   
    28   13   14 1   
    29   13   41 1   
    30   14   15 1   
    31   15   16 1   
    32   15   17 1   
    33   15   42 1   
    34   16   43 1   
    35   16   44 1   
    36   16   45 1   
    37   17   46 1   
    38   17   47 1   
    39   17   48 1   
    40   18   19 ar  
    41   18   20 1   
    42   20   21 1   
    43   20   49 1   
    44   21   22 ar  
    45   21   28 ar  
    46   22   23 ar  
    47   22   50 1   
    48   23   24 1   
    49   23   25 ar  
    50   24   51 1   
    51   24   52 1   
    52   25   26 ar  
    53   25   53 1   
    54   26   27 1   
    55   26   28 ar  
    56   28   54 1   
@<TRIPOS>SUBSTRUCTURE
     1 AP9         1 TEMP              0 ****  ****    0 ROOT
