@<TRIPOS>MOLECULE
APA
   26    26     1     0     0
SMALL
bcc


@<TRIPOS>ATOM
      1 C1          3.8410    0.2130   -0.3440 c         1 APA      0.893600
      2 O1          4.7680   -0.6210   -0.1310 o         1 APA     -0.831300
      3 OXT         4.0030    1.4460   -0.5470 o         1 APA     -0.831300
      4 C2          2.3930   -0.3510   -0.3550 c3        1 APA      0.016100
      5 O2          2.3800   -1.7620   -0.2130 oh        1 APA     -0.652800
      6 C3          1.5880    0.2940    0.7720 c3        1 APA     -0.060100
      7 C1'         0.1160    0.2290    0.5700 ca        1 APA     -0.025300
      8 C2'        -0.5120   -0.9920    0.2820 ca        1 APA     -0.140500
      9 C3'        -1.8910   -1.0550    0.1010 ca        1 APA     -0.109000
     10 C4'        -2.6620    0.1080    0.1950 ca        1 APA     -0.178900
     11 C5'        -2.0480    1.3280    0.4930 ca        1 APA     -0.109000
     12 C6'        -0.6690    1.3850    0.6790 ca        1 APA     -0.140500
     13 C          -4.1360    0.0450   -0.0460 ce        1 APA      0.657800
     14 N1         -4.6180    1.0320   -0.9450 nh        1 APA     -0.955800
     15 N2         -4.8530   -0.8310    0.5940 n2        1 APA     -0.834100
     16 H31         1.8400   -0.2250    1.7360 hc        1 APA      0.064200
     17 H32         1.9220    1.3640    0.8540 hc        1 APA      0.064200
     18 H2'         0.1120   -1.8970    0.1860 ha        1 APA      0.151000
     19 H3'        -2.3730   -2.0200   -0.1140 ha        1 APA      0.128500
     20 H5'        -2.6500    2.2430    0.5910 ha        1 APA      0.128500
     21 H6'        -0.1870    2.3470    0.9070 ha        1 APA      0.151000
     22 HN11       -3.9130    1.4630   -1.4990 hn        1 APA      0.389300
     23 HN12       -5.4360    0.7950   -1.4560 hn        1 APA      0.389300
     24 HN2        -5.8280   -0.8390    0.3810 hn        1 APA      0.365400
     25 H11         1.9160   -0.1290   -1.3470 h1        1 APA      0.041700
     26 H12         3.2830   -2.0320    0.0240 ho        1 APA      0.428000
@<TRIPOS>BOND
     1    1    2 1   
     2    1    3 1   
     3    1    4 1   
     4    4    5 1   
     5    4    6 1   
     6    4   25 1   
     7    5   26 1   
     8    6    7 1   
     9    6   16 1   
    10    6   17 1   
    11    7    8 ar  
    12    7   12 ar  
    13    8    9 ar  
    14    8   18 1   
    15    9   10 ar  
    16    9   19 1   
    17   10   11 ar  
    18   10   13 1   
    19   11   12 ar  
    20   11   20 1   
    21   12   21 1   
    22   13   14 1   
    23   13   15 2   
    24   14   22 1   
    25   14   23 1   
    26   15   24 1   
@<TRIPOS>SUBSTRUCTURE
     1 APA         1 TEMP              0 ****  ****    0 ROOT
