@<TRIPOS>MOLECULE
APA
   27    27     1     0     0
SMALL
bcc


@<TRIPOS>ATOM
      1 C1          3.5180    0.6530   -0.1330 c         1 APA      0.887600
      2 O1          4.5730    0.8380    0.5490 o         1 APA     -0.854800
      3 OXT         3.5040    0.9610   -1.3710 o         1 APA     -0.854800
      4 C2          2.2540    0.0500    0.4940 c3        1 APA      0.068100
      5 O2          1.0980    0.4460   -0.2200 oh        1 APA     -0.611800
      6 C3          2.2760   -1.5010    0.5750 c3        1 APA     -0.061100
      7 C1'         3.4780   -2.0190   -0.1260 ca        1 APA     -0.028300
      8 C2'         4.6910   -2.1400    0.5720 ca        1 APA     -0.113500
      9 C3'         5.8840   -1.9110   -0.1060 ca        1 APA     -0.079500
     10 C4'         5.8310   -1.6080   -1.4750 ca        1 APA     -0.279900
     11 C5'         4.6700   -1.8810   -2.2150 ca        1 APA     -0.079500
     12 C6'         3.4820   -2.1110   -1.5280 ca        1 APA     -0.113500
     13 C           6.7850   -0.6110   -2.0070 ce        1 APA      0.616800
     14 N1          6.2500    0.7430   -1.6620 nz        1 APA     -0.865600
     15 N2          7.8860   -0.7110   -2.6530 n2        1 APA     -0.756100
     16 H31         2.2840   -1.8070    1.6520 hc        1 APA      0.063200
     17 H32         1.3330   -1.8930    0.1100 hc        1 APA      0.063200
     18 H2'         4.6910   -2.2720    1.6640 ha        1 APA      0.153000
     19 H3'         6.8350   -1.8570    0.4430 ha        1 APA      0.140000
     20 H5'         4.6730   -1.8050   -3.3110 ha        1 APA      0.140000
     21 H6'         2.5360   -2.2250   -2.0770 ha        1 APA      0.153000
     22 HN11        6.0820    0.7950   -0.6220 hn        1 APA      0.486800
     23 HN12        6.8530    1.5000   -1.9710 hn        1 APA      0.486800
     24 HN2         8.1900   -1.6410   -2.8540 hn        1 APA      0.447400
     25 H11         2.1220    0.4630    1.5330 h1        1 APA      0.080700
     26 H12         1.3660    0.6320   -1.1330 ho        1 APA      0.426000
     27 H13         5.2810    0.8470   -2.0640 hn        1 APA      0.486800
@<TRIPOS>BOND
     1    1    2 1   
     2    1    3 1   
     3    1    4 1   
     4    4    5 1   
     5    4    6 1   
     6    4   25 1   
     7    5   26 1   
     8    6    7 1   
     9    6   16 1   
    10    6   17 1   
    11    7    8 ar  
    12    7   12 ar  
    13    8    9 ar  
    14    8   18 1   
    15    9   10 ar  
    16    9   19 1   
    17   10   11 ar  
    18   10   13 1   
    19   11   12 ar  
    20   11   20 1   
    21   12   21 1   
    22   13   14 1   
    23   13   15 2   
    24   14   22 1   
    25   14   23 1   
    26   14   27 1   
    27   15   24 1   
@<TRIPOS>SUBSTRUCTURE
     1 APA         1 TEMP              0 ****  ****    0 ROOT
