@<TRIPOS>MOLECULE
APA
   27    27     1     0     0
SMALL
bcc


@<TRIPOS>ATOM
      1 C1          3.5220    0.7160   -0.2990 c         1 APA      0.887600
      2 O1          4.5550    0.9490    0.4030 o         1 APA     -0.854800
      3 OXT         3.5600    0.9070   -1.5610 o         1 APA     -0.854800
      4 C2          2.2250    0.1940    0.3320 c3        1 APA      0.068100
      5 O2          1.1040    0.5390   -0.4600 oh        1 APA     -0.611800
      6 C3          2.2150   -1.3430    0.5570 c3        1 APA     -0.061100
      7 C1'         3.4320   -1.9420   -0.0450 ca        1 APA     -0.028300
      8 C2'         4.6170   -2.0150    0.7070 ca        1 APA     -0.113500
      9 C3'         5.8380   -1.8690    0.0570 ca        1 APA     -0.079500
     10 C4'         5.8400   -1.6950   -1.3350 ca        1 APA     -0.279900
     11 C5'         4.7030   -2.0180   -2.0900 ca        1 APA     -0.079500
     12 C6'         3.4870   -2.1650   -1.4320 ca        1 APA     -0.113500
     13 C           6.8320   -0.7660   -1.9210 ce        1 APA      0.616800
     14 N1          6.3110    0.6220   -1.7240 n4        1 APA     -0.865600
     15 N2          7.9550   -0.9430   -2.5120 n2        1 APA     -0.756100
     16 H31         1.2830   -1.7620    0.0950 hc        1 APA      0.063200
     17 H32         2.1780   -1.5470    1.6580 hc        1 APA      0.063200
     18 H2'         4.5740   -2.0440    1.8060 ha        1 APA      0.153000
     19 H3'         6.7680   -1.7780    0.6350 ha        1 APA      0.140000
     20 H5'         4.7490   -2.0460   -3.1880 ha        1 APA      0.140000
     21 H6'         2.5600   -2.3160   -2.0030 ha        1 APA      0.153000
     22 HN11        6.1050    0.7740   -0.7000 hn        1 APA      0.486800
     23 HN12        5.3580    0.7020   -2.1710 hn        1 APA      0.486800
     24 HN2         8.2490   -1.8920   -2.6130 hn        1 APA      0.447400
     25 H11         2.0630    0.7050    1.3220 h1        1 APA      0.080700
     26 H12         1.4080    0.6350   -1.3750 ho        1 APA      0.426000
     27 H13         6.9380    1.3370   -2.0790 hn        1 APA      0.486800
@<TRIPOS>BOND
     1    1    2 1   
     2    1    3 1   
     3    1    4 1   
     4    4    5 1   
     5    4    6 1   
     6    4   25 1   
     7    5   26 1   
     8    6    7 1   
     9    6   16 1   
    10    6   17 1   
    11    7    8 ar  
    12    7   12 ar  
    13    8    9 ar  
    14    8   18 1   
    15    9   10 ar  
    16    9   19 1   
    17   10   11 ar  
    18   10   13 1   
    19   11   12 ar  
    20   11   20 1   
    21   12   21 1   
    22   13   14 1   
    23   13   15 2   
    24   14   22 1   
    25   14   23 1   
    26   14   27 1   
    27   15   24 1   
@<TRIPOS>SUBSTRUCTURE
     1 APA         1 TEMP              0 ****  ****    0 ROOT
