@<TRIPOS>MOLECULE
APA
   26    22     1     0     0
SMALL
bcc


@<TRIPOS>ATOM
      1 C1         -4.1100    1.3120   -0.2280 c1        1 APA      0.314000
      2 O1         -5.1280    0.7800    0.2860 o         1 APA     -0.575000
      3 OXT        -4.2320    2.0730   -1.2240 os        1 APA     -0.554000
      4 C2         -2.7400    1.0360    0.3490 c3        1 APA     -0.046000
      5 O2         -2.8220    0.9920    1.7530 oh        1 APA     -0.383000
      6 C3         -2.2350   -0.2920   -0.1680 c3        1 APA     -0.147000
      7 C1'        -0.7230   -0.3060   -0.1270 c2        1 APA     -0.014000
      8 C2'        -0.0640   -0.8650    0.9560 c1        1 APA     -0.129000
      9 C3'         1.3210   -0.9160    0.9750 c1        1 APA     -0.121000
     10 C4'         2.0470   -0.4070   -0.0900 c1        1 APA     -0.150000
     11 C5'         1.3890    0.1520   -1.1740 c1        1 APA     -0.106000
     12 C6'         0.0040    0.2020   -1.1930 c2        1 APA     -0.150000
     13 C           3.5570   -0.4970   -0.0870 c2        1 APA      0.126000
     14 N1          4.2010   -1.6450   -0.6190 n3        1 APA     -0.336000
     15 N2          4.2690    0.4820    0.4050 n1        1 APA     -0.329000
     16 H31        -2.5830   -1.0140    0.3930 hc        1 APA      0.104500
     17 H32        -2.5370   -0.4200   -1.0890 hc        1 APA      0.104500
     18 H2'        -0.5750   -1.2240    1.7060 ha        1 APA      0.172000
     19 H3'         1.7850   -1.3090    1.7380 ha        1 APA      0.123000
     20 H5'         1.9000    0.5100   -1.9240 ha        1 APA      0.130000
     21 H6'        -0.4600    0.5960   -1.9560 ha        1 APA      0.135000
     22 HN11        5.1120   -1.6660   -0.6910 hn        1 APA      0.185500
     23 HN12        3.7040   -2.3610   -0.8940 hn        1 APA      0.185500
     24 HN2         3.8550    1.2210    0.7470 DU        1 APA      0.149000
     25 H11        -2.1240    1.7460    0.0800 h1        1 APA      0.082000
     26 H12        -2.8100    1.8210    2.0770 ho        1 APA      0.228000
@<TRIPOS>BOND
     1    1    2 1   
     2    1    4 1   
     3    4    5 1   
     4    4    6 1   
     5    4   25 1   
     6    5   26 1   
     7    6    7 1   
     8    6   16 1   
     9    6   17 1   
    10    7    8 1   
    11    7   12 1   
    12    8   18 1   
    13    9   10 1   
    14    9   19 1   
    15   10   13 1   
    16   11   12 1   
    17   11   20 1   
    18   12   21 1   
    19   13   14 1   
    20   13   15 1   
    21   14   22 1   
    22   14   23 1   
@<TRIPOS>SUBSTRUCTURE
     1 APA         1 TEMP              0 ****  ****    0 ROOT
