@<TRIPOS>MOLECULE
APA
   27    27     1     0     0
SMALL
bcc


@<TRIPOS>ATOM
      1 C1          0.2180    0.4830   -0.2780 c         1 APA      0.903600
      2 O1          0.0060    0.7150   -1.4950 o         1 APA     -0.808800
      3 OXT        -0.6120    0.5510    0.6670 o         1 APA     -0.808800
      4 C2          1.6670    0.0650    0.1230 c3        1 APA      0.005100
      5 O2          1.8020   -0.1610    1.5120 oh        1 APA     -0.657800
      6 C3          2.0490   -1.2080   -0.6400 c3        1 APA     -0.083100
      7 C1'         3.5180   -1.3110   -0.8030 ca        1 APA      0.042700
      8 C2'         4.3500   -1.3040    0.3320 ca        1 APA     -0.128500
      9 C3'         5.7300   -1.3030    0.1970 ca        1 APA     -0.096000
     10 C4'         6.2990   -1.3070   -1.0860 ca        1 APA     -0.322900
     11 C5'         5.4820   -1.3520   -2.2250 ca        1 APA     -0.096000
     12 C6'         4.1010   -1.3600   -2.0810 ca        1 APA     -0.128500
     13 C           7.7570   -1.2270   -1.2310 ce        1 APA      0.620800
     14 N1          8.1440    0.1160   -1.8190 n4        1 APA     -0.833600
     15 N2          8.7150   -2.0250   -0.9550 n2        1 APA     -0.746100
     16 H31         1.5340   -1.1770   -1.6390 hc        1 APA      0.087200
     17 H32         1.6700   -2.0990   -0.0710 hc        1 APA      0.087200
     18 H2'         3.8730   -1.2570    1.3300 ha        1 APA      0.181000
     19 H3'         6.3730   -1.2860    1.0900 ha        1 APA      0.127500
     20 H5'         5.9280   -1.3970   -3.2300 ha        1 APA      0.127500
     21 H6'         3.4510   -1.3850   -2.9710 ha        1 APA      0.181000
     22 HN11        7.8890    0.8380   -1.1370 hn        1 APA      0.463467
     23 HN12        9.1420    0.1830   -2.0380 hn        1 APA      0.463467
     24 HN2         8.4760   -2.9180   -0.5770 hn        1 APA      0.482400
     25 H11         2.3720    0.9000   -0.1370 h1        1 APA      0.031700
     26 H12         0.9090   -0.0950    1.8980 ho        1 APA      0.443000
     27 H13         7.5860    0.2530   -2.6690 hn        1 APA      0.463467
@<TRIPOS>BOND
     1    1    2 1   
     2    1    3 1   
     3    1    4 1   
     4    4    5 1   
     5    4    6 1   
     6    4   25 1   
     7    5   26 1   
     8    6    7 1   
     9    6   16 1   
    10    6   17 1   
    11    7    8 ar  
    12    7   12 ar  
    13    8    9 ar  
    14    8   18 1   
    15    9   10 ar  
    16    9   19 1   
    17   10   11 ar  
    18   10   13 1   
    19   11   12 ar  
    20   11   20 1   
    21   12   21 1   
    22   13   14 1   
    23   13   15 2   
    24   14   22 1   
    25   14   23 1   
    26   14   27 1   
    27   15   24 1   
@<TRIPOS>SUBSTRUCTURE
     1 APA         1 TEMP              0 ****  ****    0 ROOT
