@<TRIPOS>MOLECULE
APC
   45    47     1     0     0
SMALL
bcc


@<TRIPOS>ATOM
      1 PG          0.0000    0.0000    0.0000 p5        1 APC      0.800900
      2 O1G         1.4790    0.0000    0.0000 o         1 APC     -0.632500
      3 O2G        -0.5370    0.0000    1.5170 o         1 APC     -0.632500
      4 O3G        -0.5370   -1.3140   -0.7590 o         1 APC     -0.632500
      5 PB          0.0350    1.2500   -2.2640 p5        1 APC      0.707600
      6 O1B         1.5130    1.2300   -2.2290 o         1 APC     -0.521500
      7 O2B        -0.5020   -0.0860   -2.9840 o         1 APC     -0.521500
      8 O3B        -0.5360    1.3150   -0.7600 os        1 APC     -0.483800
      9 PA          0.1140    2.6390   -4.8940 p5        1 APC      0.610600
     10 O1A         1.5940    2.6190   -4.8590 o         1 APC     -0.659000
     11 O2A        -0.4230    1.3030   -5.6150 o         1 APC     -0.659000
     12 C3A        -0.5320    2.7120   -3.1920 c3        1 APC     -0.018800
     13 O5'        -0.3850    3.9300   -5.7160 os        1 APC     -0.471200
     14 C5'         0.1520    3.8150   -7.0340 c3        1 APC      0.245400
     15 C4'        -0.2880    5.0170   -7.8710 c3        1 APC      0.142100
     16 O4'         0.2140    6.2420   -7.2940 os        1 APC     -0.353600
     17 C3'         0.3430    4.9560   -9.2790 c3        1 APC      0.108100
     18 O3'        -0.5860    4.4150  -10.2210 oh        1 APC     -0.588800
     19 C2'         0.6580    6.4320   -9.6150 c3        1 APC      0.113100
     20 O2'        -0.0630    6.8470  -10.7760 oh        1 APC     -0.588800
     21 C1'         0.1830    7.2080   -8.3680 c3        1 APC      0.125800
     22 N9          1.0930    8.3180   -8.0800 na        1 APC      0.184000
     23 C8          2.2130    8.2640   -7.3050 cc        1 APC      0.082700
     24 N7          2.7840    9.4320   -7.2650 nd        1 APC     -0.537100
     25 C5          2.0720   10.3080   -8.0130 ca        1 APC     -0.263200
     26 C6          2.1980   11.6720   -8.3240 ca        1 APC      0.363200
     27 N6          3.2540   12.4170   -7.8290 nv        1 APC     -0.573500
     28 N1          1.2830   12.2300   -9.1100 nb        1 APC     -0.690000
     29 C2          0.2710   11.5260   -9.5870 ca        1 APC      0.413900
     30 N3          0.1100   10.2480   -9.3180 nb        1 APC     -0.760000
     31 C4          0.9750    9.6060   -8.5410 ca        1 APC      0.291800
     32 H3A1       -0.1710    3.6100   -2.7070 hc        1 APC      0.010200
     33 H3A2       -1.6150    2.7260   -3.2180 hc        1 APC      0.010200
     34 H5'1        1.2330    3.7870   -6.9820 h1        1 APC      0.012200
     35 H5'2       -0.2110    2.9030   -7.4930 h1        1 APC      0.012200
     36 H4'        -1.3680    5.0550   -7.9470 h1        1 APC      0.015700
     37 H3'         1.2550    4.3710   -9.2580 h1        1 APC      0.023700
     38 HO3'       -0.1730    3.7210  -10.7070 ho        1 APC      0.377000
     39 H2'         1.7240    6.5660   -9.7570 h1        1 APC      0.050700
     40 HO2'       -0.9890    6.7970  -10.6060 ho        1 APC      0.394000
     41 H1'        -0.8270    7.5710   -8.5150 h2        1 APC      0.028700
     42 H8          2.5750    7.3780   -6.7970 h5        1 APC      0.038800
     43 HN61        3.3330   13.3880   -8.0600 hn        1 APC      0.237300
     44 HN62        3.9380   11.9850   -7.2400 hn        1 APC      0.237300
     45 H2         -0.4530   12.0200  -10.2240 h5        1 APC     -0.049900
@<TRIPOS>BOND
     1    1    2 1   
     2    1    3 1   
     3    1    4 1   
     4    1    8 1   
     5    5    6 1   
     6    5    7 1   
     7    5    8 1   
     8    5   12 1   
     9    9   10 1   
    10    9   11 1   
    11    9   12 1   
    12    9   13 1   
    13   12   32 1   
    14   12   33 1   
    15   13   14 1   
    16   14   15 1   
    17   14   34 1   
    18   14   35 1   
    19   15   16 1   
    20   15   17 1   
    21   15   36 1   
    22   16   21 1   
    23   17   18 1   
    24   17   19 1   
    25   17   37 1   
    26   18   38 1   
    27   19   20 1   
    28   19   21 1   
    29   19   39 1   
    30   20   40 1   
    31   21   22 1   
    32   21   41 1   
    33   22   23 1   
    34   22   31 1   
    35   23   24 2   
    36   23   42 1   
    37   24   25 1   
    38   25   26 ar  
    39   25   31 ar  
    40   26   27 1   
    41   26   28 ar  
    42   27   43 1   
    43   27   44 1   
    44   28   29 ar  
    45   29   30 ar  
    46   29   45 1   
    47   30   31 ar  
@<TRIPOS>SUBSTRUCTURE
     1 APC         1 TEMP              0 ****  ****    0 ROOT
