@<TRIPOS>MOLECULE
APD
   26    26     1     0     0
SMALL
bcc


@<TRIPOS>ATOM
      1 C          -0.1110   -0.1400   -0.0110 c         1 APD      0.936600
      2 O          -0.6470   -0.1190   -1.1290 o         1 APD     -0.757300
      3 CA          1.4920   -0.0400   -0.0290 c3        1 APD     -0.067500
      4 N           1.9900    0.1450    1.3690 n4        1 APD     -0.835600
      5 CB          2.0480   -1.2950   -0.6850 c3        1 APD     -0.050100
      6 CG          3.5360   -1.3040   -0.7190 ca        1 APD     -0.109300
      7 CD1         4.2610   -2.0420    0.2250 ca        1 APD     -0.164000
      8 CD2         4.2220   -0.5780   -1.6980 ca        1 APD     -0.126000
      9 CE1         5.6540   -2.0450    0.1900 ca        1 APD     -0.121000
     10 CE2         5.6210   -0.5770   -1.7360 ca        1 APD     -0.066300
     11 CZ          6.3340   -1.3140   -0.7820 ca        1 APD     -0.128000
     12 C5          6.3310    0.1990   -2.7790 c3        1 APD     -0.058800
     13 OXT        -0.6170   -0.2200    1.1400 o         1 APD     -0.757300
     14 HA          1.7780    0.8680   -0.6260 hx        1 APD      0.088700
     15 HN1         2.7770   -0.4730    1.5650 hn        1 APD      0.444800
     16 HN2         2.2620    1.1110    1.5250 hn        1 APD      0.444800
     17 HBC1        1.6230   -1.3140   -1.7290 hc        1 APD      0.092700
     18 HBC2        1.6610   -2.2080   -0.1590 hc        1 APD      0.092700
     19 HD1         3.7300   -2.6500    0.9730 ha        1 APD      0.129000
     20 HD2         3.6550   -0.0100   -2.4520 ha        1 APD      0.144000
     21 HE1         6.2190   -2.6350    0.9270 ha        1 APD      0.136000
     22 HZ          7.4340   -1.3230   -0.8070 ha        1 APD      0.138000
     23 H5C1        5.8830    0.0030   -3.7850 hc        1 APD      0.049700
     24 H5C2        7.4150   -0.0690   -2.8170 hc        1 APD      0.049700
     25 H5C3        6.2460    1.2940   -2.5670 hc        1 APD      0.049700
     26 HN3         1.1820   -0.0840    1.9940 hn        1 APD      0.444800
@<TRIPOS>BOND
     1    1    2 1   
     2    1    3 1   
     3    1   13 1   
     4    3    4 1   
     5    3    5 1   
     6    3   14 1   
     7    4   15 1   
     8    4   16 1   
     9    4   26 1   
    10    5    6 1   
    11    5   17 1   
    12    5   18 1   
    13    6    7 ar  
    14    6    8 ar  
    15    7    9 ar  
    16    7   19 1   
    17    8   10 ar  
    18    8   20 1   
    19    9   11 ar  
    20    9   21 1   
    21   10   11 ar  
    22   10   12 1   
    23   11   22 1   
    24   12   23 1   
    25   12   24 1   
    26   12   25 1   
@<TRIPOS>SUBSTRUCTURE
     1 APD         1 TEMP              0 ****  ****    0 ROOT
