@<TRIPOS>MOLECULE
APD
   25    25     1     0     0
SMALL
bcc


@<TRIPOS>ATOM
      1 C           0.5040   -0.0960   -2.9220 c         1 APD      0.886600
      2 O          -0.0660    0.3470   -3.9590 o         1 APD     -0.841800
      3 CA         -0.0320    0.3780   -1.5280 c3        1 APD      0.023500
      4 N          -1.2040    1.2400   -1.5950 n3        1 APD     -0.885800
      5 CB         -0.2450   -0.8650   -0.6560 c3        1 APD     -0.038100
      6 CG         -0.3400   -0.5530    0.7950 ca        1 APD     -0.024300
      7 CD1        -1.5500   -0.6910    1.4860 ca        1 APD     -0.135000
      8 CD2         0.7970   -0.1310    1.4970 ca        1 APD     -0.128000
      9 CE1        -1.6190   -0.4150    2.8500 ca        1 APD     -0.137000
     10 CE2         0.7330    0.1460    2.8650 ca        1 APD     -0.089300
     11 CZ         -0.4830    0.0000    3.5420 ca        1 APD     -0.157000
     12 C5          1.9490    0.5810    3.5920 c3        1 APD     -0.044800
     13 OXT         1.4940   -0.8800   -2.9280 o         1 APD     -0.841800
     14 HA          0.7940    0.9930   -1.0650 h1        1 APD      0.044700
     15 HN1        -1.0400    1.9050   -2.3340 hn        1 APD      0.330300
     16 HN2        -1.9910    0.6870   -1.8870 hn        1 APD      0.330300
     17 HBC1        0.6400   -1.5390   -0.8360 hc        1 APD      0.060200
     18 HBC2       -1.1620   -1.4160   -0.9930 hc        1 APD      0.060200
     19 HD1        -2.4520   -1.0070    0.9420 ha        1 APD      0.126000
     20 HD2         1.7480   -0.0110    0.9540 ha        1 APD      0.141000
     21 HE1        -2.5740   -0.5220    3.3820 ha        1 APD      0.110000
     22 HZ         -0.5420    0.2180    4.6170 ha        1 APD      0.110000
     23 H5C1        2.5780   -0.3080    3.8520 hc        1 APD      0.033033
     24 H5C2        2.5630    1.2680    2.9590 hc        1 APD      0.033033
     25 H5C3        1.6860    1.1120    4.5390 hc        1 APD      0.033033
@<TRIPOS>BOND
     1    1    2 1   
     2    1    3 1   
     3    1   13 1   
     4    3    4 1   
     5    3    5 1   
     6    3   14 1   
     7    4   15 1   
     8    4   16 1   
     9    5    6 1   
    10    5   17 1   
    11    5   18 1   
    12    6    7 ar  
    13    6    8 ar  
    14    7    9 ar  
    15    7   19 1   
    16    8   10 ar  
    17    8   20 1   
    18    9   11 ar  
    19    9   21 1   
    20   10   11 ar  
    21   10   12 1   
    22   11   22 1   
    23   12   23 1   
    24   12   24 1   
    25   12   25 1   
@<TRIPOS>SUBSTRUCTURE
     1 APD         1 TEMP              0 ****  ****    0 ROOT
