@<TRIPOS>MOLECULE
APD
   26    26     1     0     0
SMALL
bcc


@<TRIPOS>ATOM
      1 C          -0.1120   -0.1490   -0.0080 c         1 APD      0.936600
      2 O          -0.6490   -0.1280   -1.1260 o         1 APD     -0.757300
      3 CA          1.4920   -0.0450   -0.0270 c3        1 APD     -0.067500
      4 N           1.9900    0.1400    1.3710 nz        1 APD     -0.835600
      5 CB          2.0500   -1.2980   -0.6850 c3        1 APD     -0.050100
      6 CG          3.5370   -1.3040   -0.7200 ca        1 APD     -0.109300
      7 CD1         4.2640   -2.0420    0.2230 ca        1 APD     -0.164000
      8 CD2         4.2210   -0.5750   -1.6980 ca        1 APD     -0.126000
      9 CE1         5.6570   -2.0410    0.1870 ca        1 APD     -0.121000
     10 CE2         5.6200   -0.5710   -1.7370 ca        1 APD     -0.066300
     11 CZ          6.3350   -1.3070   -0.7850 ca        1 APD     -0.128000
     12 C5          6.3270    0.2080   -2.7790 c3        1 APD     -0.058800
     13 OXT        -0.6170   -0.2310    1.1430 o         1 APD     -0.757300
     14 HA          1.7750    0.8640   -0.6230 hx        1 APD      0.088700
     15 HN1         2.7780   -0.4770    1.5660 hn        1 APD      0.444800
     16 HN2         2.2600    1.1060    1.5280 hn        1 APD      0.444800
     17 HBC1        1.6650   -2.2130   -0.1590 hc        1 APD      0.092700
     18 HBC2        1.6240   -1.3170   -1.7280 hc        1 APD      0.092700
     19 HD1         3.7360   -2.6520    0.9710 ha        1 APD      0.129000
     20 HD2         3.6520   -0.0080   -2.4510 ha        1 APD      0.144000
     21 HE1         6.2250   -2.6300    0.9230 ha        1 APD      0.136000
     22 HZ          7.4350   -1.3140   -0.8110 ha        1 APD      0.138000
     23 H5C1        7.4120   -0.0590   -2.8200 hc        1 APD      0.049700
     24 H5C2        5.8780    0.0150   -3.7850 hc        1 APD      0.049700
     25 H5C3        6.2430    1.3030   -2.5640 hc        1 APD      0.049700
     26 HN3         1.1830   -0.0930    1.9960 hn        1 APD      0.444800
@<TRIPOS>BOND
     1    1    2 1   
     2    1    3 1   
     3    1   13 1   
     4    3    4 1   
     5    3    5 1   
     6    3   14 1   
     7    4   15 1   
     8    4   16 1   
     9    4   26 1   
    10    5    6 1   
    11    5   17 1   
    12    5   18 1   
    13    6    7 ar  
    14    6    8 ar  
    15    7    9 ar  
    16    7   19 1   
    17    8   10 ar  
    18    8   20 1   
    19    9   11 ar  
    20    9   21 1   
    21   10   11 ar  
    22   10   12 1   
    23   11   22 1   
    24   12   23 1   
    25   12   24 1   
    26   12   25 1   
@<TRIPOS>SUBSTRUCTURE
     1 APD         1 TEMP              0 ****  ****    0 ROOT
