@<TRIPOS>MOLECULE
APD
   25    22     1     0     0
SMALL
bcc


@<TRIPOS>ATOM
      1 C          -3.1240    1.1990   -0.2110 c1        1 APD      0.306000
      2 O          -3.1160    2.4200   -0.5200 o         1 APD     -0.576500
      3 CA         -2.0500    0.6420    0.6940 c2        1 APD     -0.125000
      4 N          -2.5960    0.3980    1.9840 n3        1 APD     -0.320000
      5 CB         -1.5260   -0.6530    0.1150 c3        1 APD     -0.122000
      6 CG         -0.0130   -0.6220    0.0970 c2        1 APD     -0.026000
      7 CD1         0.7060   -1.3970    0.9930 c1        1 APD     -0.120000
      8 CD2         0.6520    0.1360   -0.8540 c2        1 APD     -0.133000
      9 CE1         2.0910   -1.4140    0.9380 c1        1 APD     -0.148000
     10 CE2         2.0370    0.1190   -0.9090 c1        1 APD     -0.087000
     11 CZ          2.7570   -0.6560   -0.0130 c1        1 APD     -0.148000
     12 C5          2.7620    0.9210   -1.9670 c3        1 APD     -0.169000
     13 OXT        -4.0340    0.4460   -0.6460 o         1 APD     -0.576500
     14 HA         -1.3180    1.2860    0.7660 h4        1 APD      0.086000
     15 HN1        -1.9170    0.3100    2.5920 hn        1 APD      0.125000
     16 HN2        -3.0900   -0.3730    1.9660 hn        1 APD      0.125000
     17 HBC1       -1.8300   -1.4020    0.6660 hc        1 APD      0.098000
     18 HBC2       -1.8610   -0.7610   -0.7970 hc        1 APD      0.098000
     19 HD1         0.2380   -1.9300    1.6630 ha        1 APD      0.138000
     20 HD2         0.1460    0.6820   -1.4850 ha        1 APD      0.136000
     21 HE1         2.5980   -1.9640    1.5660 ha        1 APD      0.111000
     22 HZ          3.7320   -0.6690   -0.0510 ha        1 APD      0.111000
     23 H5C1        3.7300    0.8130   -1.8520 hc        1 APD      0.071667
     24 H5C2        2.5010    0.6010   -2.8560 hc        1 APD      0.071667
     25 H5C3        2.5260    1.8680   -1.8780 hc        1 APD      0.071667
@<TRIPOS>BOND
     1    1    2 1   
     2    1   13 1   
     3    3    4 1   
     4    3    5 1   
     5    3   14 1   
     6    4   15 1   
     7    4   16 1   
     8    5    6 1   
     9    5   17 1   
    10    5   18 1   
    11    6    7 1   
    12    6    8 1   
    13    7   19 1   
    14    8   10 1   
    15    8   20 1   
    16    9   11 1   
    17    9   21 1   
    18   10   12 1   
    19   11   22 1   
    20   12   23 1   
    21   12   24 1   
    22   12   25 1   
@<TRIPOS>SUBSTRUCTURE
     1 APD         1 TEMP              0 ****  ****    0 ROOT
