@<TRIPOS>MOLECULE
APD
   26    26     1     0     0
SMALL
bcc


@<TRIPOS>ATOM
      1 C          -0.1320   -0.2270   -0.0630 c         1 APD      0.936600
      2 O          -0.6590   -0.2740   -1.1860 o         1 APD     -0.757300
      3 CA          1.4670   -0.0770   -0.0740 c3        1 APD     -0.067500
      4 N           1.9470    0.1860    1.3170 n4        1 APD     -0.835600
      5 CB          2.0670   -1.3430   -0.6690 c3        1 APD     -0.050100
      6 CG          3.5550   -1.3080   -0.6890 ca        1 APD     -0.109300
      7 CD1         4.2920   -1.9840    0.2900 ca        1 APD     -0.164000
      8 CD2         4.2280   -0.5990   -1.6900 ca        1 APD     -0.125000
      9 CE1         5.6860   -1.9430    0.2690 ca        1 APD     -0.121000
     10 CE2         5.6260   -0.5560   -1.7150 ca        1 APD     -0.066300
     11 CZ          6.3520   -1.2300   -0.7250 ca        1 APD     -0.130000
     12 C5          6.3320    0.1770   -2.7910 c3        1 APD     -0.059800
     13 OXT        -0.6460   -0.2690    1.0850 o         1 APD     -0.757300
     14 HA          1.7300    0.8110   -0.7090 hx        1 APD      0.088700
     15 HN1         2.7490   -0.3990    1.5480 hn        1 APD      0.444800
     16 HN2         1.1400   -0.0380    1.9460 hn        1 APD      0.444800
     17 HBC1        1.7020   -2.2430   -0.1050 hc        1 APD      0.092700
     18 HBC2        1.6540   -1.4210   -1.7140 hc        1 APD      0.092700
     19 HD1         3.7730   -2.5780    1.0580 ha        1 APD      0.129000
     20 HD2         3.6490   -0.0790   -2.4690 ha        1 APD      0.144000
     21 HE1         6.2610   -2.4840    1.0360 ha        1 APD      0.136000
     22 HZ          7.4520   -1.2020   -0.7400 ha        1 APD      0.138000
     23 H5C1        7.3000    0.5980   -2.4200 hc        1 APD      0.049700
     24 H5C2        6.5560   -0.5180   -3.6390 hc        1 APD      0.049700
     25 H5C3        5.7070    1.0170   -3.1830 hc        1 APD      0.049700
     26 HN3         2.1890    1.1660    1.4310 hn        1 APD      0.444800
@<TRIPOS>BOND
     1    1    2 1   
     2    1    3 1   
     3    1   13 1   
     4    3    4 1   
     5    3    5 1   
     6    3   14 1   
     7    4   15 1   
     8    4   16 1   
     9    4   26 1   
    10    5    6 1   
    11    5   17 1   
    12    5   18 1   
    13    6    7 ar  
    14    6    8 ar  
    15    7    9 ar  
    16    7   19 1   
    17    8   10 ar  
    18    8   20 1   
    19    9   11 ar  
    20    9   21 1   
    21   10   11 ar  
    22   10   12 1   
    23   11   22 1   
    24   12   23 1   
    25   12   24 1   
    26   12   25 1   
@<TRIPOS>SUBSTRUCTURE
     1 APD         1 TEMP              0 ****  ****    0 ROOT
