@<TRIPOS>MOLECULE
APE
   24    22     1     0     0
SMALL
bcc


@<TRIPOS>ATOM
      1 N          -2.1660   -0.4430   -0.8670 n3        1 APE     -0.371000
      2 CA         -0.8830   -0.9470   -0.8670 c3        1 APE      0.073000
      3 CB         -0.3080   -0.9350    0.6000 c3        1 APE     -0.131000
      4 CG          0.3890    0.4290    0.9000 c2        1 APE     -0.032000
      5 CD1         1.7850    0.5390    0.7600 c2        1 APE     -0.133000
      6 CD2        -0.3360    1.4820    1.3960 c1        1 APE     -0.107000
      7 CE1         2.4510    1.7510    1.1350 c1        1 APE     -0.140000
      8 CE2         0.3060    2.6560    1.7600 c1        1 APE     -0.146000
      9 CZ          1.7470    2.7710    1.6150 c1        1 APE     -0.146000
     10 NHO        -0.9060   -2.2930   -1.3470 n         1 APE     -0.418000
     11 C          -0.5110   -2.5750   -2.6220 c2        1 APE      0.380000
     12 O           0.1630   -1.6200   -3.3670 o         1 APE     -0.577000
     13 OXT        -0.8840   -3.7350   -3.1950 o         1 APE     -0.577000
     14 H          -2.8210   -1.1900   -0.9850 hn        1 APE      0.143500
     15 H2         -2.2530    0.1190   -1.5110 hn        1 APE      0.143500
     16 HA         -0.3020   -0.3890   -1.4570 h2        1 APE      0.112000
     17 HB2         0.3390   -1.6420    0.6890 hc        1 APE      0.081500
     18 HB3        -1.0580   -1.0800    1.2550 hc        1 APE      0.081500
     19 HD1         2.3150   -0.2350    0.4010 ha        1 APE      0.132000
     20 HD2        -1.3410    1.4020    1.4950 ha        1 APE      0.140000
     21 HE1         3.4790    1.8350    1.0340 ha        1 APE      0.115000
     22 HE2        -0.2590    3.4710    2.1520 ha        1 APE      0.114500
     23 HZ          2.1730    3.5490    1.8540 ha        1 APE      0.114500
     24 HN         -1.1200   -2.9190   -0.8280 hn        1 APE      0.148000
@<TRIPOS>BOND
     1    1    2 1   
     2    1   14 1   
     3    1   15 1   
     4    2    3 1   
     5    2   10 1   
     6    2   16 1   
     7    3    4 1   
     8    3   17 1   
     9    3   18 1   
    10    4    5 1   
    11    4    6 1   
    12    5    7 1   
    13    5   19 1   
    14    6   20 1   
    15    7   21 1   
    16    8    9 1   
    17    8   22 1   
    18    9   23 1   
    19   10   11 1   
    20   10   24 1   
    21   11   12 1   
    22   11   13 1   
@<TRIPOS>SUBSTRUCTURE
     1 APE         1 TEMP              0 ****  ****    0 ROOT
