@<TRIPOS>MOLECULE
APE
   24    24     1     0     0
SMALL
bcc


@<TRIPOS>ATOM
      1 N           0.7710    1.1020    1.0780 n3        1 APE     -0.935800
      2 CA          0.9030    0.1510   -0.0360 c3        1 APE      0.307900
      3 CB         -0.2100    0.4140   -1.0950 c3        1 APE     -0.045100
      4 CG         -1.5680    0.1430   -0.5560 ca        1 APE     -0.029300
      5 CD1        -2.4860    1.1840   -0.3670 ca        1 APE     -0.126000
      6 CD2        -1.9560   -1.1690   -0.2500 ca        1 APE     -0.126000
      7 CE1        -3.7680    0.9170    0.1100 ca        1 APE     -0.136500
      8 CE2        -3.2380   -1.4320    0.2270 ca        1 APE     -0.136500
      9 CZ         -4.1490   -0.3910    0.4060 ca        1 APE     -0.153000
     10 NHO         2.2000    0.0440   -0.6930 n         1 APE     -0.609900
     11 C           3.3620   -0.1110    0.1700 c         1 APE      0.977600
     12 O           3.1880   -0.5290    1.3550 o         1 APE     -0.842300
     13 OXT         4.4830    0.1840   -0.3400 o         1 APE     -0.842300
     14 H           1.3490    0.7800    1.8370 hn        1 APE      0.347800
     15 H2          1.0970    2.0100    0.8060 hn        1 APE      0.347800
     16 HA          0.7090   -0.8730    0.4200 h2        1 APE      0.070700
     17 HB2        -0.1410    1.4710   -1.4640 hc        1 APE      0.043200
     18 HB3        -0.0320   -0.2650   -1.9720 hc        1 APE      0.043200
     19 HD1        -2.1850    2.2200   -0.5830 ha        1 APE      0.133000
     20 HD2        -1.2340   -1.9890   -0.3800 ha        1 APE      0.133000
     21 HE1        -4.4790    1.7430    0.2600 ha        1 APE      0.115500
     22 HE2        -3.5300   -2.4640    0.4690 ha        1 APE      0.115500
     23 HZ         -5.1590   -0.6000    0.7840 ha        1 APE      0.113000
     24 HN          2.3450    0.7330   -1.3990 hn        1 APE      0.234500
@<TRIPOS>BOND
     1    1    2 1   
     2    1   14 1   
     3    1   15 1   
     4    2    3 1   
     5    2   10 1   
     6    2   16 1   
     7    3    4 1   
     8    3   17 1   
     9    3   18 1   
    10    4    5 ar  
    11    4    6 ar  
    12    5    7 ar  
    13    5   19 1   
    14    6    8 ar  
    15    6   20 1   
    16    7    9 ar  
    17    7   21 1   
    18    8    9 ar  
    19    8   22 1   
    20    9   23 1   
    21   10   11 1   
    22   10   24 1   
    23   11   12 1   
    24   11   13 1   
@<TRIPOS>SUBSTRUCTURE
     1 APE         1 TEMP              0 ****  ****    0 ROOT
