@<TRIPOS>MOLECULE
APF
   30    28     1     0     0
SMALL
bcc


@<TRIPOS>ATOM
      1 CN2        -4.1180    0.8100    1.0400 c3        1 APF     -0.241000
      2 CN1        -2.6070    0.7450    1.0830 c2        1 APF      0.309000
      3 ON1        -2.0280    0.7760    2.1500 o         1 APF     -0.351000
      4 N3         -1.8680    0.6230   -0.1210 n         1 APF     -0.391000
      5 C3         -0.4500    0.7040   -0.0960 c3        1 APF     -0.001000
      6 C2         -0.0290    2.1550   -0.0510 c2        1 APF      0.195000
      7 C1          0.6080    2.7200    1.1990 c3        1 APF      0.373000
      8 C4          0.1140    0.0530   -1.3390 c3        1 APF     -0.137000
      9 O2         -0.2090    2.8700   -1.0170 o         1 APF     -0.212000
     10 F11         1.7030    3.4160    0.8670 f         1 APF     -0.152333
     11 F12         0.9480    1.7170    2.0190 f         1 APF     -0.152333
     12 F13        -0.2630    3.5270    1.8180 f         1 APF     -0.152333
     13 CP1         1.1200   -1.0050   -0.9420 c2        1 APF     -0.098000
     14 CP2         2.4770   -0.7630   -1.0960 c2        1 APF     -0.121000
     15 CP3         3.3960   -1.7600   -0.8070 c1        1 APF     -0.127000
     16 CP4         2.9590   -2.9980   -0.3640 c1        1 APF     -0.123000
     17 CP5         1.6030   -3.2410   -0.2100 c1        1 APF     -0.123000
     18 CP6         0.6840   -2.2440   -0.4990 c1        1 APF     -0.119000
     19 HC21       -4.3980    1.4750    0.3760 hc        1 APF      0.110667
     20 HC22       -4.4590    1.0670    1.9230 hc        1 APF      0.110667
     21 HC23       -4.4760   -0.0680    0.7940 hc        1 APF      0.110667
     22 HN3        -2.3050    0.5200   -0.9150 hn        1 APF      0.232000
     23 H3         -0.1120    0.2420    0.6960 h1        1 APF      0.166000
     24 H41        -0.6110   -0.3620   -1.8480 hc        1 APF      0.107000
     25 H42         0.5540    0.7310   -1.8910 hc        1 APF      0.107000
     26 HP2         2.7840    0.1090   -1.4080 ha        1 APF      0.136000
     27 HP3         4.3510   -1.5890   -0.9150 ha        1 APF      0.135000
     28 HP4         3.6070   -3.7000   -0.1600 ha        1 APF      0.135000
     29 HP5         1.2960   -4.1120    0.1020 ha        1 APF      0.135000
     30 HP6        -0.2710   -2.4150   -0.3910 ha        1 APF      0.140000
@<TRIPOS>BOND
     1    1    2 1   
     2    1   19 1   
     3    1   20 1   
     4    1   21 1   
     5    2    3 1   
     6    2    4 1   
     7    4    5 1   
     8    4   22 1   
     9    5    6 1   
    10    5    8 1   
    11    5   23 1   
    12    6    7 1   
    13    6    9 1   
    14    7   10 1   
    15    7   11 1   
    16    7   12 1   
    17    8   13 1   
    18    8   24 1   
    19    8   25 1   
    20   13   14 1   
    21   13   18 1   
    22   14   15 1   
    23   14   26 1   
    24   15   27 1   
    25   16   17 1   
    26   16   28 1   
    27   17   29 1   
    28   18   30 1   
@<TRIPOS>SUBSTRUCTURE
     1 APF         1 TEMP              0 ****  ****    0 ROOT
