@<TRIPOS>MOLECULE
APF
   30    30     1     0     0
SMALL
bcc


@<TRIPOS>ATOM
      1 CN2         3.8320   -0.2690    0.7150 c3        1 APF     -0.173100
      2 CN1         2.4480   -0.6120    0.2240 c         1 APF      0.668100
      3 ON1         2.1040   -1.7810   -0.0280 o         1 APF     -0.595100
      4 N3          1.5600    0.4430    0.0620 n         1 APF     -0.572900
      5 C3          0.2080    0.2540   -0.3760 c3        1 APF      0.031700
      6 C2          0.0010    0.7510   -1.8080 c         1 APF      0.521100
      7 C1         -1.0490   -0.0590   -2.6490 c3        1 APF      0.527900
      8 C4         -0.8350    0.9880    0.4960 c3        1 APF     -0.049100
      9 O2          0.5590    1.7100   -2.3220 o         1 APF     -0.446100
     10 F11        -1.0040    0.2110   -3.9900 f         1 APF     -0.224633
     11 F12        -0.9100   -1.4180   -2.5540 f         1 APF     -0.224633
     12 F13        -2.3450    0.1930   -2.2760 f         1 APF     -0.224633
     13 CP1        -0.8460    0.4900    1.8960 ca        1 APF     -0.087300
     14 CP2        -0.4810    1.3370    2.9480 ca        1 APF     -0.120500
     15 CP3        -0.5150    0.8780    4.2640 ca        1 APF     -0.126000
     16 CP4        -0.9120   -0.4300    4.5390 ca        1 APF     -0.124000
     17 CP5        -1.2790   -1.2790    3.4930 ca        1 APF     -0.126000
     18 CP6        -1.2480   -0.8210    2.1780 ca        1 APF     -0.120500
     19 HC21        3.7810    0.2000    1.7270 hc        1 APF      0.071033
     20 HC22        4.4300   -1.2100    0.7790 hc        1 APF      0.071033
     21 HC23        4.3360    0.4360    0.0100 hc        1 APF      0.071033
     22 HN3         1.8550    1.3700    0.2510 hn        1 APF      0.320500
     23 H3         -0.0170   -0.8600   -0.3570 h1        1 APF      0.126700
     24 H41        -0.6340    2.0920    0.4730 hc        1 APF      0.067200
     25 H42        -1.8450    0.8160    0.0310 hc        1 APF      0.067200
     26 HP2        -0.1710    2.3720    2.7390 ha        1 APF      0.133000
     27 HP3        -0.2280    1.5500    5.0860 ha        1 APF      0.135000
     28 HP4        -0.9370   -0.7920    5.5770 ha        1 APF      0.134000
     29 HP5        -1.5920   -2.3110    3.7060 ha        1 APF      0.135000
     30 HP6        -1.5390   -1.4940    1.3560 ha        1 APF      0.133000
@<TRIPOS>BOND
     1    1    2 1   
     2    1   19 1   
     3    1   20 1   
     4    1   21 1   
     5    2    3 2   
     6    2    4 1   
     7    4    5 1   
     8    4   22 1   
     9    5    6 1   
    10    5    8 1   
    11    5   23 1   
    12    6    7 1   
    13    6    9 2   
    14    7   10 1   
    15    7   11 1   
    16    7   12 1   
    17    8   13 1   
    18    8   24 1   
    19    8   25 1   
    20   13   14 ar  
    21   13   18 ar  
    22   14   15 ar  
    23   14   26 1   
    24   15   16 ar  
    25   15   27 1   
    26   16   17 ar  
    27   16   28 1   
    28   17   18 ar  
    29   17   29 1   
    30   18   30 1   
@<TRIPOS>SUBSTRUCTURE
     1 APF         1 TEMP              0 ****  ****    0 ROOT
