@<TRIPOS>MOLECULE
APF
   31    31     1     0     0
SMALL
bcc


@<TRIPOS>ATOM
      1 CN2         0.2670    1.0200    0.2620 c3        1 APF     -0.192100
      2 CN1         1.2130   -0.1270    0.1910 c         1 APF      0.555100
      3 ON1         1.5300   -0.9220    1.0590 o         1 APF     -0.393100
      4 N3          1.8730   -0.3420   -1.1670 n4        1 APF     -0.686800
      5 C3          3.3580   -0.1150   -1.1300 c3        1 APF      0.020500
      6 C2          3.7090    1.3660   -1.1220 c         1 APF      0.505100
      7 C1          5.2020    1.6990   -0.7790 c3        1 APF      0.573900
      8 C4          4.0570   -0.7970   -2.3250 c3        1 APF     -0.045100
      9 O2          2.9020    2.2540   -1.3620 o         1 APF     -0.431100
     10 F11         5.3400    2.9170   -0.1800 f         1 APF     -0.196633
     11 F12         5.7670    0.7890    0.0750 f         1 APF     -0.196633
     12 F13         5.9980    1.7150   -1.8900 f         1 APF     -0.196633
     13 CP1         3.7200   -2.2420   -2.3900 ca        1 APF     -0.166300
     14 CP2         2.7320   -2.6930   -3.2750 ca        1 APF     -0.128500
     15 CP3         2.4390   -4.0530   -3.3620 ca        1 APF     -0.112000
     16 CP4         3.1300   -4.9700   -2.5670 ca        1 APF     -0.092000
     17 CP5         4.1190   -4.5240   -1.6880 ca        1 APF     -0.112000
     18 CP6         4.4160   -3.1640   -1.6000 ca        1 APF     -0.128500
     19 HC21       -0.6520    0.8040   -0.3420 hc        1 APF      0.122367
     20 HC22        0.7410    1.9640   -0.1140 hc        1 APF      0.122367
     21 HC23       -0.0370    1.1660    1.3340 hc        1 APF      0.122367
     22 HN3         1.4540    0.2930   -1.8560 hn        1 APF      0.472800
     23 H3          3.7430   -0.5890   -0.1700 hx        1 APF      0.156700
     24 H41         5.1660   -0.6580   -2.1770 hc        1 APF      0.099700
     25 H42         3.7770   -0.2790   -3.2810 hc        1 APF      0.099700
     26 HP2         2.2170   -1.9830   -3.9410 ha        1 APF      0.138000
     27 HP3         1.6730   -4.4070   -4.0700 ha        1 APF      0.159000
     28 HP4         2.9030   -6.0460   -2.6420 ha        1 APF      0.161000
     29 HP5         4.6750   -5.2480   -1.0710 ha        1 APF      0.159000
     30 HP6         5.2110   -2.8210   -0.9200 ha        1 APF      0.138000
     31 H32         1.7220   -1.3200   -1.4720 hn        1 APF      0.472800
@<TRIPOS>BOND
     1    1    2 1   
     2    1   19 1   
     3    1   20 1   
     4    1   21 1   
     5    2    3 2   
     6    2    4 1   
     7    4    5 1   
     8    4   22 1   
     9    4   31 1   
    10    5    6 1   
    11    5    8 1   
    12    5   23 1   
    13    6    7 1   
    14    6    9 2   
    15    7   10 1   
    16    7   11 1   
    17    7   12 1   
    18    8   13 1   
    19    8   24 1   
    20    8   25 1   
    21   13   14 ar  
    22   13   18 ar  
    23   14   15 ar  
    24   14   26 1   
    25   15   16 ar  
    26   15   27 1   
    27   16   17 ar  
    28   16   28 1   
    29   17   18 ar  
    30   17   29 1   
    31   18   30 1   
@<TRIPOS>SUBSTRUCTURE
     1 APF         1 TEMP              0 ****  ****    0 ROOT
