@<TRIPOS>MOLECULE
APF
   31    31     1     0     0
SMALL
bcc


@<TRIPOS>ATOM
      1 CN2         0.2710    1.0270    0.2600 c3        1 APF     -0.192100
      2 CN1         1.2230   -0.1150    0.1950 c         1 APF      0.555100
      3 ON1         1.5520   -0.8970    1.0700 o         1 APF     -0.393100
      4 N3          1.8720   -0.3450   -1.1660 ny        1 APF     -0.686800
      5 C3          3.3560   -0.1100   -1.1450 c3        1 APF      0.020500
      6 C2          3.6990    1.3730   -1.1600 c         1 APF      0.505100
      7 C1          5.1930    1.7190   -0.8350 c3        1 APF      0.573900
      8 C4          4.0480   -0.8030   -2.3370 c3        1 APF     -0.045100
      9 O2          2.8850    2.2530   -1.4040 o         1 APF     -0.431100
     10 F11         5.3300    2.9450   -0.2540 f         1 APF     -0.196633
     11 F12         5.7710    0.8240    0.0260 f         1 APF     -0.196633
     12 F13         5.9790    1.7240   -1.9540 f         1 APF     -0.196633
     13 CP1         3.7180   -2.2510   -2.3800 ca        1 APF     -0.166300
     14 CP2         2.7250   -2.7200   -3.2510 ca        1 APF     -0.128500
     15 CP3         2.4390   -4.0820   -3.3160 ca        1 APF     -0.112000
     16 CP4         3.1420   -4.9840   -2.5150 ca        1 APF     -0.092000
     17 CP5         4.1360   -4.5220   -1.6510 ca        1 APF     -0.112000
     18 CP6         4.4260   -3.1590   -1.5840 ca        1 APF     -0.128500
     19 HC21        0.7370    1.9690   -0.1330 hc        1 APF      0.122367
     20 HC22       -0.6520    0.7980   -0.3340 hc        1 APF      0.122367
     21 HC23       -0.0240    1.1860    1.3320 hc        1 APF      0.122367
     22 HN3         1.7230   -1.3270   -1.4570 hn        1 APF      0.472800
     23 H3          3.7520   -0.5690   -0.1820 hx        1 APF      0.156700
     24 H41         5.1570   -0.6570   -2.2010 hc        1 APF      0.099700
     25 H42         3.7570   -0.3000   -3.2980 hc        1 APF      0.099700
     26 HP2         2.2010   -2.0210   -3.9210 ha        1 APF      0.138000
     27 HP3         1.6680   -4.4490   -4.0130 ha        1 APF      0.159000
     28 HP4         2.9200   -6.0620   -2.5740 ha        1 APF      0.161000
     29 HP5         4.7010   -5.2340   -1.0280 ha        1 APF      0.159000
     30 HP6         5.2250   -2.8030   -0.9150 ha        1 APF      0.138000
     31 H32         1.4430    0.2790   -1.8590 hn        1 APF      0.472800
@<TRIPOS>BOND
     1    1    2 1   
     2    1   19 1   
     3    1   20 1   
     4    1   21 1   
     5    2    3 2   
     6    2    4 1   
     7    4    5 1   
     8    4   22 1   
     9    4   31 1   
    10    5    6 1   
    11    5    8 1   
    12    5   23 1   
    13    6    7 1   
    14    6    9 2   
    15    7   10 1   
    16    7   11 1   
    17    7   12 1   
    18    8   13 1   
    19    8   24 1   
    20    8   25 1   
    21   13   14 ar  
    22   13   18 ar  
    23   14   15 ar  
    24   14   26 1   
    25   15   16 ar  
    26   15   27 1   
    27   16   17 ar  
    28   16   28 1   
    29   17   18 ar  
    30   17   29 1   
    31   18   30 1   
@<TRIPOS>SUBSTRUCTURE
     1 APF         1 TEMP              0 ****  ****    0 ROOT
