@<TRIPOS>MOLECULE
APF
   31    31     1     0     0
SMALL
bcc


@<TRIPOS>ATOM
      1 CN2         0.2530    1.0020    0.2610 c3        1 APF     -0.192100
      2 CN1         1.2090   -0.1370    0.1920 c         1 APF      0.555100
      3 ON1         1.5340   -0.9270    1.0610 o         1 APF     -0.393100
      4 N3          1.8690   -0.3510   -1.1670 n4        1 APF     -0.686800
      5 C3          3.3520   -0.1120   -1.1330 c3        1 APF      0.020500
      6 C2          3.6910    1.3710   -1.1300 c         1 APF      0.505100
      7 C1          5.1810    1.7180   -0.7900 c3        1 APF      0.573900
      8 C4          4.0540   -0.7910   -2.3280 c3        1 APF     -0.045100
      9 O2          2.8760    2.2520   -1.3710 o         1 APF     -0.431100
     10 F11         5.3110    2.9380   -0.1940 f         1 APF     -0.196633
     11 F12         5.7550    0.8150    0.0660 f         1 APF     -0.196633
     12 F13         5.9760    1.7370   -1.9020 f         1 APF     -0.196633
     13 CP1         3.7290   -2.2390   -2.3880 ca        1 APF     -0.166300
     14 CP2         2.7420   -2.7010   -3.2710 ca        1 APF     -0.128500
     15 CP3         2.4600   -4.0630   -3.3530 ca        1 APF     -0.112000
     16 CP4         3.1600   -4.9720   -2.5570 ca        1 APF     -0.092000
     17 CP5         4.1470   -4.5160   -1.6810 ca        1 APF     -0.112000
     18 CP6         4.4330   -3.1540   -1.5970 ca        1 APF     -0.128500
     19 HC21       -0.0500    1.1490    1.3330 hc        1 APF      0.122367
     20 HC22       -0.6650    0.7770   -0.3420 hc        1 APF      0.122367
     21 HC23        0.7200    1.9490   -0.1190 hc        1 APF      0.122367
     22 HN3         1.7240   -1.3310   -1.4690 hn        1 APF      0.472800
     23 H3          3.7420   -0.5810   -0.1720 hx        1 APF      0.156700
     24 H41         5.1620   -0.6430   -2.1820 hc        1 APF      0.099700
     25 H42         3.7680   -0.2780   -3.2850 hc        1 APF      0.099700
     26 HP2         2.2210   -1.9970   -3.9370 ha        1 APF      0.138000
     27 HP3         1.6960   -4.4250   -4.0590 ha        1 APF      0.159000
     28 HP4         2.9420   -6.0500   -2.6290 ha        1 APF      0.161000
     29 HP5         4.7100   -5.2340   -1.0630 ha        1 APF      0.159000
     30 HP6         5.2270   -2.8020   -0.9190 ha        1 APF      0.138000
     31 H32         1.4430    0.2780   -1.8570 hn        1 APF      0.472800
@<TRIPOS>BOND
     1    1    2 1   
     2    1   19 1   
     3    1   20 1   
     4    1   21 1   
     5    2    3 2   
     6    2    4 1   
     7    4    5 1   
     8    4   22 1   
     9    4   31 1   
    10    5    6 1   
    11    5    8 1   
    12    5   23 1   
    13    6    7 1   
    14    6    9 2   
    15    7   10 1   
    16    7   11 1   
    17    7   12 1   
    18    8   13 1   
    19    8   24 1   
    20    8   25 1   
    21   13   14 ar  
    22   13   18 ar  
    23   14   15 ar  
    24   14   26 1   
    25   15   16 ar  
    26   15   27 1   
    27   16   17 ar  
    28   16   28 1   
    29   17   18 ar  
    30   17   29 1   
    31   18   30 1   
@<TRIPOS>SUBSTRUCTURE
     1 APF         1 TEMP              0 ****  ****    0 ROOT
