@<TRIPOS>MOLECULE
APG
   21    21     1     0     0
SMALL
bcc


@<TRIPOS>ATOM
      1 C1          0.0180    0.5200    0.0880 ca        1 APG     -0.152000
      2 C2          1.4120    0.5030    0.1040 ca        1 APG     -0.122000
      3 C3          2.1030   -0.0180    1.2030 ca        1 APG     -0.045300
      4 C4          1.3730   -0.5340    2.2840 ca        1 APG     -0.122000
      5 C5         -0.0190   -0.5140    2.2650 ca        1 APG     -0.152000
      6 C6         -0.7020    0.0160    1.1690 ca        1 APG     -0.161000
      7 C12         3.6100   -0.0190    1.2510 c3        1 APG      0.054100
      8 O17         4.1300    0.3500   -0.0240 oh        1 APG     -0.640800
      9 C13         4.1530   -1.4320    1.6720 c         1 APG      0.908600
     10 C14         4.0970    1.0220    2.2530 c3        1 APG     -0.068100
     11 O14         4.7410   -2.0900    0.7680 o         1 APG     -0.824800
     12 O15         3.9960   -1.8100    2.8620 o         1 APG     -0.824800
     13 H1         -0.5140    0.9310   -0.7820 ha        1 APG      0.107500
     14 H2          1.9850    0.8960   -0.7500 ha        1 APG      0.159000
     15 H4          1.9290   -0.9790    3.1300 ha        1 APG      0.159000
     16 H5         -0.5820   -0.9240    3.1150 ha        1 APG      0.107500
     17 H6         -1.8000    0.0300    1.1570 ha        1 APG      0.103000
     18 HO17        4.4920   -0.4580   -0.4230 ho        1 APG      0.429000
     19 H141        3.6780    2.0280    2.0160 hc        1 APG      0.029033
     20 H142        3.7830    0.7110    3.2770 hc        1 APG      0.029033
     21 H143        5.2100    1.0780    2.2120 hc        1 APG      0.029033
@<TRIPOS>BOND
     1    1    2 ar  
     2    1    6 ar  
     3    1   13 1   
     4    2    3 ar  
     5    2   14 1   
     6    3    4 ar  
     7    3    7 1   
     8    4    5 ar  
     9    4   15 1   
    10    5    6 ar  
    11    5   16 1   
    12    6   17 1   
    13    7    8 1   
    14    7    9 1   
    15    7   10 1   
    16    8   18 1   
    17    9   11 1   
    18    9   12 1   
    19   10   19 1   
    20   10   20 1   
    21   10   21 1   
@<TRIPOS>SUBSTRUCTURE
     1 APG         1 TEMP              0 ****  ****    0 ROOT
