@<TRIPOS>MOLECULE
APG
   21    21     1     0     0
SMALL
bcc


@<TRIPOS>ATOM
      1 C1         -1.1760   -0.1470    2.6740 ca        1 APG     -0.152000
      2 C2         -1.2690    0.1200    1.3090 ca        1 APG     -0.122000
      3 C3         -0.1150    0.1870    0.5180 ca        1 APG     -0.045300
      4 C4          1.1340   -0.0290    1.1180 ca        1 APG     -0.122000
      5 C5          1.2230   -0.2940    2.4820 ca        1 APG     -0.152000
      6 C6          0.0690   -0.3510    3.2650 ca        1 APG     -0.161000
      7 C12        -0.1930    0.5020   -0.9530 c3        1 APG      0.054100
      8 O17        -1.5530    0.4730   -1.3780 oh        1 APG     -0.640800
      9 C13         0.6600   -0.5190   -1.7880 c         1 APG      0.908600
     10 C14         0.3260    1.9130   -1.2090 c3        1 APG     -0.068100
     11 O14         0.0070   -1.3320   -2.5010 o         1 APG     -0.824800
     12 O15         1.9160   -0.4560   -1.7190 o         1 APG     -0.824800
     13 H1         -2.0880   -0.1990    3.2840 ha        1 APG      0.107500
     14 H2         -2.2500    0.2770    0.8350 ha        1 APG      0.159000
     15 H4          2.0360   -0.0130    0.4770 ha        1 APG      0.159000
     16 H5          2.2060   -0.4670    2.9420 ha        1 APG      0.107500
     17 H6          0.1420   -0.5600    4.3410 ha        1 APG      0.103000
     18 HO17       -1.6650   -0.3360   -1.9040 ho        1 APG      0.429000
     19 H141        1.4160    1.9450   -0.9720 hc        1 APG      0.029033
     20 H142        0.1770    2.1700   -2.2840 hc        1 APG      0.029033
     21 H143       -0.2210    2.6570   -0.5840 hc        1 APG      0.029033
@<TRIPOS>BOND
     1    1    2 ar  
     2    1    6 ar  
     3    1   13 1   
     4    2    3 ar  
     5    2   14 1   
     6    3    4 ar  
     7    3    7 1   
     8    4    5 ar  
     9    4   15 1   
    10    5    6 ar  
    11    5   16 1   
    12    6   17 1   
    13    7    8 1   
    14    7    9 1   
    15    7   10 1   
    16    8   18 1   
    17    9   11 1   
    18    9   12 1   
    19   10   19 1   
    20   10   20 1   
    21   10   21 1   
@<TRIPOS>SUBSTRUCTURE
     1 APG         1 TEMP              0 ****  ****    0 ROOT
