@<TRIPOS>MOLECULE
APG
   21    18     1     0     0
SMALL
bcc


@<TRIPOS>ATOM
      1 C1         -2.2300    0.0670   -1.3860 c1        1 APG     -0.088250
      2 C2         -0.8440    0.0410   -1.3690 c1        1 APG     -0.068500
      3 C3         -0.1670   -0.0340   -0.1610 c1        1 APG     -0.011100
      4 C4         -0.8760   -0.0830    1.0290 c1        1 APG     -0.088250
      5 C5         -2.2620   -0.0570    1.0110 c1        1 APG     -0.088250
      6 C6         -2.9390    0.0180   -0.1960 c1        1 APG     -0.088250
      7 C12         1.3440   -0.1070   -0.1450 c3        1 APG      0.019900
      8 O17         1.8280   -0.1050   -1.4660 oh        1 APG     -0.640800
      9 C13         1.7800   -1.3790    0.5490 c         1 APG      0.908600
     10 C14         1.8990    1.0890    0.5980 c3        1 APG     -0.068100
     11 O14         2.3290   -2.3000   -0.1110 o         1 APG     -0.824800
     12 O15         1.5920   -1.5170    1.7860 o         1 APG     -0.824800
     13 H1         -2.7070    0.1200   -2.2360 ha        1 APG      0.066500
     14 H2         -0.3450    0.0890   -2.2060 ha        1 APG      0.082500
     15 H4         -0.3990   -0.1300    1.8790 ha        1 APG      0.066500
     16 H5         -2.7610   -0.0940    1.8500 ha        1 APG      0.066500
     17 H6         -3.9150    0.0360   -0.2080 ha        1 APG      0.066500
     18 HO17        2.6170    0.3050   -1.4920 ho        1 APG      0.429000
     19 H141        2.8610    0.9690    0.7370 hc        1 APG      0.029033
     20 H142        1.4500    1.1710    1.4650 hc        1 APG      0.029033
     21 H143        1.7440    1.9010    0.0710 hc        1 APG      0.029033
@<TRIPOS>BOND
     1    1    6 3   
     2    1   13 1   
     3    2    3 3   
     4    2   14 1   
     5    3    7 1   
     6    4    5 3   
     7    4   15 1   
     8    5   16 1   
     9    6   17 1   
    10    7    8 1   
    11    7    9 1   
    12    7   10 1   
    13    8   18 1   
    14    9   11 1   
    15    9   12 1   
    16   10   19 1   
    17   10   20 1   
    18   10   21 1   
@<TRIPOS>SUBSTRUCTURE
     1 APG         1 TEMP              0 ****  ****    0 ROOT
