@<TRIPOS>MOLECULE
APG
   21    21     1     0     0
SMALL
bcc


@<TRIPOS>ATOM
      1 C1          0.0360    0.4610    0.0320 ca        1 APG     -0.152000
      2 C2          1.4300    0.4630    0.0750 ca        1 APG     -0.122000
      3 C3          2.1070   -0.0220    1.2000 ca        1 APG     -0.045300
      4 C4          1.3620   -0.5190    2.2800 ca        1 APG     -0.122000
      5 C5         -0.0300   -0.5180    2.2350 ca        1 APG     -0.152000
      6 C6         -0.6980   -0.0250    1.1130 ca        1 APG     -0.161000
      7 C12         3.6110   -0.0020    1.2760 c3        1 APG      0.054100
      8 O17         4.1510    0.3410    0.0030 oh        1 APG     -0.640800
      9 C13         4.1650   -1.3970    1.7440 c         1 APG      0.908600
     10 C14         4.0670    1.0710    2.2600 c3        1 APG     -0.068100
     11 O14         4.7770   -2.0700    0.8690 o         1 APG     -0.824800
     12 O15         3.9890   -1.7460    2.9410 o         1 APG     -0.824800
     13 H1         -0.4840    0.8430   -0.8570 ha        1 APG      0.107500
     14 H2          2.0150    0.8410   -0.7780 ha        1 APG      0.159000
     15 H4          1.9070   -0.9360    3.1480 ha        1 APG      0.159000
     16 H5         -0.6040   -0.9130    3.0840 ha        1 APG      0.107500
     17 H6         -1.7950   -0.0250    1.0800 ha        1 APG      0.103000
     18 HO17        4.5310   -0.4730   -0.3690 ho        1 APG      0.429000
     19 H141        3.6400    2.0640    1.9890 hc        1 APG      0.029033
     20 H142        3.7370    0.7820    3.2860 hc        1 APG      0.029033
     21 H143        5.1800    1.1400    2.2380 hc        1 APG      0.029033
@<TRIPOS>BOND
     1    1    2 ar  
     2    1    6 ar  
     3    1   13 1   
     4    2    3 ar  
     5    2   14 1   
     6    3    4 ar  
     7    3    7 1   
     8    4    5 ar  
     9    4   15 1   
    10    5    6 ar  
    11    5   16 1   
    12    6   17 1   
    13    7    8 1   
    14    7    9 1   
    15    7   10 1   
    16    8   18 1   
    17    9   11 1   
    18    9   12 1   
    19   10   19 1   
    20   10   20 1   
    21   10   21 1   
@<TRIPOS>SUBSTRUCTURE
     1 APG         1 TEMP              0 ****  ****    0 ROOT
