@<TRIPOS>MOLECULE
APH
   27    24     1     0     0
SMALL
bcc


@<TRIPOS>ATOM
      1 N           0.5100   -1.8360    3.2410 n3        1 APH     -0.322000
      2 CA         -0.5280   -1.5650    2.3060 c3        1 APH     -0.126000
      3 C          -1.8380   -2.0950    2.8410 c2        1 APH      0.308000
      4 O          -2.3120   -1.6360    3.9130 o         1 APH     -0.573500
      5 CB         -0.6370   -0.0720    2.0930 c3        1 APH     -0.127000
      6 CG         -0.2390    0.2650    0.6740 c2        1 APH     -0.007000
      7 CD1        -1.1670    0.1570   -0.3500 c1        1 APH     -0.141000
      8 CD2         1.0310    0.7530    0.4090 c2        1 APH     -0.126000
      9 CE1        -0.8260    0.5390   -1.6380 c1        1 APH     -0.119000
     10 CE2         1.3720    1.1340   -0.8790 c1        1 APH     -0.105000
     11 CZ          0.4440    1.0270   -1.9030 c1        1 APH     -0.151000
     12 CF          0.8110    1.4590   -3.3050 c2        1 APH      0.129000
     13 NG1         0.5970    2.6910   -3.6860 n1        1 APH     -0.333000
     14 NG2         1.3870    0.5280   -4.2070 n3        1 APH     -0.337000
     15 OXT        -2.4630   -2.9850    2.2060 o         1 APH     -0.573500
     16 H           0.7960   -1.0510    3.6140 hn        1 APH      0.127000
     17 H2          1.2090   -2.2430    2.8110 hn        1 APH      0.127000
     18 HA         -0.3230   -2.0020    1.4550 h1        1 APH      0.085000
     19 HB2        -0.0430    0.3910    2.7160 hc        1 APH      0.102500
     20 HB3        -1.5600    0.2130    2.2490 hc        1 APH      0.102500
     21 HD1        -2.0620   -0.1870   -0.1630 ha        1 APH      0.142000
     22 HD2         1.6850    0.8290    1.1300 ha        1 APH      0.143000
     23 HE1        -1.4800    0.4630   -2.3590 ha        1 APH      0.122000
     24 HE2         2.2670    1.4780   -1.0660 ha        1 APH      0.131000
     25 HG1         0.2260    3.2910   -3.1060 DU        1 APH      0.145000
     26 HG21        1.6290    0.7940   -5.0470 hn        1 APH      0.188500
     27 HG22        1.5130   -0.3400   -3.9480 hn        1 APH      0.188500
@<TRIPOS>BOND
     1    1    2 1   
     2    1   16 1   
     3    1   17 1   
     4    2    3 1   
     5    2    5 1   
     6    2   18 1   
     7    3    4 1   
     8    3   15 1   
     9    5    6 1   
    10    5   19 1   
    11    5   20 1   
    12    6    7 1   
    13    6    8 1   
    14    7   21 1   
    15    8   10 1   
    16    8   22 1   
    17    9   11 1   
    18    9   23 1   
    19   10   24 1   
    20   11   12 1   
    21   12   13 1   
    22   12   14 1   
    23   14   26 1   
    24   14   27 1   
@<TRIPOS>SUBSTRUCTURE
     1 APH         1 TEMP              0 ****  ****    0 ROOT
