@<TRIPOS>MOLECULE
APH
   27    27     1     0     0
SMALL
bcc


@<TRIPOS>ATOM
      1 N          -2.2160    1.7190    0.6240 n3        1 APH     -0.889800
      2 CA         -2.3830    0.2810    0.4570 c3        1 APH      0.021500
      3 C          -3.8740   -0.1910    0.3520 c         1 APH      0.888600
      4 O          -4.7790    0.6790    0.4950 o         1 APH     -0.839800
      5 CB         -1.6250   -0.2740   -0.7560 c3        1 APH     -0.040100
      6 CG         -0.1490   -0.2240   -0.5820 ca        1 APH     -0.017300
      7 CD1         0.5530   -1.3550   -0.1470 ca        1 APH     -0.136000
      8 CD2         0.5640    0.9520   -0.8530 ca        1 APH     -0.136000
      9 CE1         1.9350   -1.3120    0.0270 ca        1 APH     -0.107500
     10 CE2         1.9430    1.0040   -0.6760 ca        1 APH     -0.107500
     11 CZ          2.6330   -0.1280   -0.2260 ca        1 APH     -0.179900
     12 CF          4.1090   -0.0690    0.0080 ce        1 APH      0.658800
     13 NG1         4.8750   -0.9880   -0.5010 n2        1 APH     -0.837100
     14 NG2         4.5320    1.0650    0.7470 nh        1 APH     -0.956800
     15 OXT        -4.0820   -1.4190    0.1530 o         1 APH     -0.839800
     16 H          -2.5260    2.1720   -0.2180 hn        1 APH      0.331300
     17 H2         -2.8570    2.0080    1.3460 hn        1 APH      0.331300
     18 HA         -1.9620   -0.2040    1.3850 h1        1 APH      0.045700
     19 HB2        -1.9670   -1.3380   -0.8910 hc        1 APH      0.062200
     20 HB3        -1.9150    0.2940   -1.6790 hc        1 APH      0.062200
     21 HD1         0.0020   -2.2840    0.0650 ha        1 APH      0.141000
     22 HD2         0.0170    1.8470   -1.1870 ha        1 APH      0.141000
     23 HE1         2.4760   -2.2100    0.3600 ha        1 APH      0.128000
     24 HE2         2.4880    1.9330   -0.8980 ha        1 APH      0.128000
     25 HG1         5.8490   -0.9070   -0.2980 hn        1 APH      0.365400
     26 HG21        3.8040    1.5360    1.2340 hn        1 APH      0.389800
     27 HG22        5.3620    0.9540    1.2820 hn        1 APH      0.389800
@<TRIPOS>BOND
     1    1    2 1   
     2    1   16 1   
     3    1   17 1   
     4    2    3 1   
     5    2    5 1   
     6    2   18 1   
     7    3    4 1   
     8    3   15 1   
     9    5    6 1   
    10    5   19 1   
    11    5   20 1   
    12    6    7 ar  
    13    6    8 ar  
    14    7    9 ar  
    15    7   21 1   
    16    8   10 ar  
    17    8   22 1   
    18    9   11 ar  
    19    9   23 1   
    20   10   11 ar  
    21   10   24 1   
    22   11   12 1   
    23   12   13 2   
    24   12   14 1   
    25   13   25 1   
    26   14   26 1   
    27   14   27 1   
@<TRIPOS>SUBSTRUCTURE
     1 APH         1 TEMP              0 ****  ****    0 ROOT
