@<TRIPOS>MOLECULE
API
   25    24     1     0     0
SMALL
bcc


@<TRIPOS>ATOM
      1 C1          3.7490   -0.4840   -0.1180 c         1 API      0.889600
      2 C2          2.5450    0.3160    0.4750 c3        1 API      0.029500
      3 C3          1.2550   -0.2190   -0.1570 c3        1 API     -0.071400
      4 C4         -0.0000    0.3170    0.5020 c3        1 API     -0.076400
      5 C5         -1.2550   -0.2190   -0.1570 c3        1 API     -0.071400
      6 C6         -2.5450    0.3150    0.4740 c3        1 API      0.029500
      7 C7         -3.7490   -0.4850   -0.1180 c         1 API      0.889600
      8 O1          4.5930    0.1320   -0.8380 o         1 API     -0.858300
      9 O2          3.8460   -1.7100    0.1700 o         1 API     -0.858300
     10 O3         -4.5930    0.1300   -0.8390 o         1 API     -0.858300
     11 O4         -3.8460   -1.7110    0.1700 o         1 API     -0.858300
     12 N2          2.7010    1.7630    0.3870 n3        1 API     -0.897800
     13 N6         -2.7020    1.7620    0.3860 n3        1 API     -0.897800
     14 H2          2.5140    0.0760    1.5780 h1        1 API      0.041700
     15 H31         1.2390    0.0300   -1.2510 hc        1 API      0.039200
     16 H32         1.2830   -1.3370   -0.0700 hc        1 API      0.039200
     17 H41        -0.0000    0.0320    1.5870 hc        1 API      0.031200
     18 H42        -0.0000    1.4370    0.4600 hc        1 API      0.031200
     19 H51        -1.2390    0.0300   -1.2510 hc        1 API      0.039200
     20 H52        -1.2820   -1.3380   -0.0700 hc        1 API      0.039200
     21 H6         -2.5140    0.0750    1.5780 h1        1 API      0.041700
     22 HN21        3.6710    1.9580    0.1930 hn        1 API      0.326800
     23 HN22        2.1780    2.1050   -0.4000 hn        1 API      0.326800
     24 HN61       -2.1790    2.1040   -0.4000 hn        1 API      0.326800
     25 HN62       -3.6710    1.9570    0.1930 hn        1 API      0.326800
@<TRIPOS>BOND
     1    1    2 1   
     2    1    8 1   
     3    1    9 1   
     4    2    3 1   
     5    2   12 1   
     6    2   14 1   
     7    3    4 1   
     8    3   15 1   
     9    3   16 1   
    10    4    5 1   
    11    4   17 1   
    12    4   18 1   
    13    5    6 1   
    14    5   19 1   
    15    5   20 1   
    16    6    7 1   
    17    6   13 1   
    18    6   21 1   
    19    7   10 1   
    20    7   11 1   
    21   12   22 1   
    22   12   23 1   
    23   13   24 1   
    24   13   25 1   
@<TRIPOS>SUBSTRUCTURE
     1 API         1 TEMP              0 ****  ****    0 ROOT
