@<TRIPOS>MOLECULE
API
   25    23     1     0     0
SMALL
bcc


@<TRIPOS>ATOM
      1 C1         -2.9440    0.6920   -1.8860 c1        1 API      0.776000
      2 C2         -1.4460    0.8830   -1.8120 c2        1 API      0.141200
      3 C3         -1.0040    0.8420   -0.3670 c3        1 API     -0.146700
      4 C4          0.1330   -0.1450   -0.2160 c3        1 API     -0.076400
      5 C5          0.5710   -0.1910    1.2320 c3        1 API     -0.071400
      6 C6          1.7440   -1.1330    1.3730 c3        1 API      0.029500
      7 C7          1.4080   -2.2100    2.3790 c         1 API      0.889600
      8 O1         -3.7130    1.5350   -1.3540 o         1 API     -0.826500
      9 O2         -3.4220   -0.3100   -2.4790 o         1 API     -0.826500
     10 O3          1.1640   -1.9000    3.5740 o         1 API     -0.858300
     11 O4          1.3720   -3.4160    2.0210 o         1 API     -0.858300
     12 N2         -1.1000    2.1410   -2.3780 nh        1 API     -0.484100
     13 N6          2.8840   -0.4080    1.8180 n3        1 API     -0.897800
     14 H2         -1.0020    0.1680   -2.3090 h4        1 API     -0.048200
     15 H31        -0.7020    1.7310   -0.0930 hc        1 API      0.039200
     16 H32        -1.7540    0.5640    0.1960 hc        1 API      0.039200
     17 H41        -0.1680   -1.0330   -0.4940 hc        1 API      0.031200
     18 H42         0.8840    0.1350   -0.7750 hc        1 API      0.031200
     19 H51         0.8350    0.7050    1.5210 hc        1 API      0.039200
     20 H52        -0.1700   -0.5080    1.7870 hc        1 API      0.039200
     21 H6          1.9380   -1.5450    0.5070 h1        1 API      0.041700
     22 HN21       -0.4420    2.0240   -3.0040 hn        1 API      0.171700
     23 HN22       -1.8380    2.5100   -2.7760 hn        1 API      0.171700
     24 HN61        3.4270   -0.2240    1.1040 hn        1 API      0.326800
     25 HN62        3.3450   -0.9080    2.4310 hn        1 API      0.326800
@<TRIPOS>BOND
     1    1    8 2   
     2    1    9 2   
     3    2    3 1   
     4    2   12 2   
     5    2   14 1   
     6    3    4 1   
     7    3   15 1   
     8    3   16 1   
     9    4    5 1   
    10    4   17 1   
    11    4   18 1   
    12    5    6 1   
    13    5   19 1   
    14    5   20 1   
    15    6    7 1   
    16    6   13 1   
    17    6   21 1   
    18    7   10 1   
    19    7   11 1   
    20   12   22 1   
    21   12   23 1   
    22   13   24 1   
    23   13   25 1   
@<TRIPOS>SUBSTRUCTURE
     1 API         1 TEMP              0 ****  ****    0 ROOT
