@<TRIPOS>MOLECULE
APJ
   43    47     1     0     0
SMALL
bcc


@<TRIPOS>ATOM
      1 N1          2.2130    0.2210   -2.6070 nb        1 APJ     -0.676000
      2 N2          2.4690    2.4780   -1.6830 nb        1 APJ     -0.616000
      3 N3          0.0270   -0.6760   -3.1910 n4        1 APJ     -0.577100
      4 N4         -1.4540   -1.3280   -1.2270 na        1 APJ      0.025400
      5 N5         -2.7360   -1.3440   -0.9220 nc        1 APJ     -0.410800
      6 N6          4.4370    1.0640   -2.0460 n4        1 APJ     -0.594100
      7 N7          6.0660   -1.3940    2.7040 na        1 APJ     -0.258300
      8 N8          5.2730   -2.7830    1.0470 nc        1 APJ     -0.546100
      9 C9          2.9530    1.2620   -2.1270 ca        1 APJ      0.762900
     10 C10         0.8590    0.4310   -2.6410 ca        1 APJ      0.512200
     11 C11         0.2590    1.6250   -2.2040 ca        1 APJ     -0.255600
     12 C12         1.1410    2.6350   -1.7290 ca        1 APJ      0.497200
     13 C13        -1.2480   -0.8000   -2.5260 cc        1 APJ     -0.184700
     14 C14        -3.4390   -0.7900   -1.9690 cd        1 APJ      0.398600
     15 C15        -2.5220   -0.4200   -3.0210 cd        1 APJ     -0.184300
     16 C16        -4.8830   -0.6050   -2.0250 cx        1 APJ     -0.226000
     17 C17        -5.6780   -0.3140   -0.7690 cx        1 APJ     -0.089400
     18 C18        -5.8160   -1.6430   -1.4340 cx        1 APJ     -0.089400
     19 C19         4.8270    0.4770   -0.7580 ca        1 APJ     -0.117400
     20 C20         4.7700   -0.9180   -0.6100 ca        1 APJ     -0.033000
     21 C21         5.2020   -1.4470    0.6020 ca        1 APJ      0.069400
     22 C22         5.7020   -0.5600    1.6560 ca        1 APJ     -0.021200
     23 C23         5.7310    0.8300    1.4760 ca        1 APJ     -0.091000
     24 C24         5.2830    1.3410    0.2700 ca        1 APJ     -0.091000
     25 C25         5.7910   -2.7160    2.2830 cd        1 APJ      0.479700
     26 HN3        -0.1640   -0.4670   -4.1880 hn        1 APJ      0.493800
     27 HN6         4.7400    0.4380   -2.8100 hn        1 APJ      0.491800
     28 H11        -0.8330    1.7910   -2.2150 ha        1 APJ      0.223000
     29 H12         0.7500    3.6160   -1.3700 h4        1 APJ      0.109100
     30 H15        -2.7770    0.0320   -3.9770 ha        1 APJ      0.202000
     31 H16        -5.1960   -0.1040   -2.9660 hc        1 APJ      0.106700
     32 H17        -5.1520   -0.2480    0.2010 hc        1 APJ      0.094700
     33 H17A       -6.5040    0.4190   -0.8410 hc        1 APJ      0.094700
     34 H18        -6.7410   -1.8800   -1.9930 hc        1 APJ      0.094700
     35 H18A       -5.3870   -2.5380   -0.9480 hc        1 APJ      0.094700
     36 H20         4.4200   -1.5890   -1.4110 ha        1 APJ      0.168000
     37 H23         6.1030    1.5030    2.2650 ha        1 APJ      0.184000
     38 H24         5.2990    2.4350    0.1210 ha        1 APJ      0.165000
     39 H25         5.9970   -3.5830    2.9340 h5        1 APJ      0.111800
     40 HN4        -0.7920   -1.8040   -0.6480 hn        1 APJ      0.353700
     41 H32         0.5420   -1.5730   -3.1380 hn        1 APJ      0.493800
     42 H62         4.9000    1.9830   -2.1540 hn        1 APJ      0.491800
     43 HN7         6.4690   -1.1180    3.5660 hn        1 APJ      0.341700
@<TRIPOS>BOND
     1    1    9 ar  
     2    1   10 ar  
     3    2    9 ar  
     4    2   12 ar  
     5    3   10 1   
     6    3   13 1   
     7    3   26 1   
     8    3   41 1   
     9    4    5 1   
    10    4   13 1   
    11    4   40 1   
    12    5   14 2   
    13    6    9 1   
    14    6   19 1   
    15    6   27 1   
    16    6   42 1   
    17    7   22 1   
    18    7   25 1   
    19    7   43 1   
    20    8   21 1   
    21    8   25 2   
    22   10   11 ar  
    23   11   12 ar  
    24   11   28 1   
    25   12   29 1   
    26   13   15 2   
    27   14   15 1   
    28   14   16 1   
    29   15   30 1   
    30   16   17 1   
    31   16   18 1   
    32   16   31 1   
    33   17   18 1   
    34   17   32 1   
    35   17   33 1   
    36   18   34 1   
    37   18   35 1   
    38   19   20 ar  
    39   19   24 ar  
    40   20   21 ar  
    41   20   36 1   
    42   21   22 ar  
    43   22   23 ar  
    44   23   24 ar  
    45   23   37 1   
    46   24   38 1   
    47   25   39 1   
@<TRIPOS>SUBSTRUCTURE
     1 APJ         1 TEMP              0 ****  ****    0 ROOT
