@<TRIPOS>MOLECULE
APJ
   41    45     1     0     0
SMALL
bcc


@<TRIPOS>ATOM
      1 N1          0.9140    0.8180   -0.0980 nb        1 APJ     -0.785000
      2 N2         -1.1980    2.0700   -0.3110 nb        1 APJ     -0.747000
      3 N3          3.0020    2.0110   -0.0760 nh        1 APJ     -0.698300
      4 N4          4.6400    0.7590    1.3420 na        1 APJ     -0.037600
      5 N5          5.2670   -0.4150    1.3480 nc        1 APJ     -0.510800
      6 N6         -1.1330   -0.3460   -0.3450 nh        1 APJ     -0.698300
      7 N7         -6.5980   -0.9050    0.6190 na        1 APJ     -0.290300
      8 N8         -5.9970    0.4820   -1.1130 nc        1 APJ     -0.561100
      9 C9         -0.4660    0.8920   -0.2280 ca        1 APJ      0.891900
     10 C10         1.5920    2.0020   -0.1020 ca        1 APJ      0.701200
     11 C11         0.9110    3.2560   -0.1910 ca        1 APJ     -0.462600
     12 C12        -0.4840    3.2050   -0.2920 ca        1 APJ      0.482200
     13 C13         3.7340    0.8650    0.2420 cc        1 APJ      0.081300
     14 C14         4.7280   -1.1710    0.3450 cd        1 APJ      0.345600
     15 C15         3.7490   -0.3940   -0.3900 cd        1 APJ     -0.251300
     16 C16         5.1020   -2.5570    0.0670 cx        1 APJ     -0.154000
     17 C17         5.1300   -3.0410   -1.3630 cx        1 APJ     -0.124400
     18 C18         4.0530   -3.5180   -0.4390 cx        1 APJ     -0.124400
     19 C19        -2.5120   -0.4650   -0.0280 ca        1 APJ      0.092600
     20 C20        -3.4770    0.1830   -0.8130 ca        1 APJ     -0.035000
     21 C21        -4.8260   -0.0280   -0.5090 ca        1 APJ      0.069400
     22 C22        -5.2000   -0.9050    0.5870 ca        1 APJ     -0.080200
     23 C23        -4.2270   -1.5500    1.3570 ca        1 APJ     -0.124000
     24 C24        -2.8990   -1.3190    1.0450 ca        1 APJ     -0.139000
     25 C25        -7.0140   -0.0540   -0.4230 cd        1 APJ      0.419700
     26 HN3         3.3930    2.8800    0.2250 hn        1 APJ      0.428800
     27 HN6        -0.5860   -1.1380   -0.0660 hn        1 APJ      0.435800
     28 H11         1.4450    4.2110   -0.1900 ha        1 APJ      0.152000
     29 H12        -1.0790    4.1360   -0.3600 h4        1 APJ      0.029100
     30 H15         3.1470   -0.7200   -1.2300 ha        1 APJ      0.179000
     31 H16         5.8730   -2.9570    0.7590 hc        1 APJ      0.096700
     32 H17         4.8670   -2.3330   -2.1700 hc        1 APJ      0.073700
     33 H17A        5.9320   -3.7360   -1.6670 hc        1 APJ      0.073700
     34 H18         4.0750   -4.5600   -0.0720 hc        1 APJ      0.073700
     35 H18A        3.0210   -3.1510   -0.5850 hc        1 APJ      0.073700
     36 H20        -3.1980    0.8480   -1.6450 ha        1 APJ      0.172000
     37 H23        -4.5040   -2.2150    2.1860 ha        1 APJ      0.137000
     38 H24        -2.1230   -1.8180    1.6480 ha        1 APJ      0.134000
     39 H25        -8.0780    0.1290   -0.6230 h5        1 APJ      0.068800
     40 HN7        -7.1670   -1.3940    1.2530 hn        1 APJ      0.305700
     41 HN4         5.0520    1.5220    1.8290 hn        1 APJ      0.305700
@<TRIPOS>BOND
     1    1    9 ar  
     2    1   10 ar  
     3    2    9 ar  
     4    2   12 ar  
     5    3   10 1   
     6    3   13 1   
     7    3   26 1   
     8    4    5 1   
     9    4   13 1   
    10    4   41 1   
    11    5   14 2   
    12    6    9 1   
    13    6   19 1   
    14    6   27 1   
    15    7   22 1   
    16    7   25 1   
    17    7   40 1   
    18    8   21 1   
    19    8   25 2   
    20   10   11 ar  
    21   11   12 ar  
    22   11   28 1   
    23   12   29 1   
    24   13   15 2   
    25   14   15 1   
    26   14   16 1   
    27   15   30 1   
    28   16   17 1   
    29   16   18 1   
    30   16   31 1   
    31   17   18 1   
    32   17   32 1   
    33   17   33 1   
    34   18   34 1   
    35   18   35 1   
    36   19   20 ar  
    37   19   24 ar  
    38   20   21 ar  
    39   20   36 1   
    40   21   22 ar  
    41   22   23 ar  
    42   23   24 ar  
    43   23   37 1   
    44   24   38 1   
    45   25   39 1   
@<TRIPOS>SUBSTRUCTURE
     1 APJ         1 TEMP              0 ****  ****    0 ROOT
