@<TRIPOS>MOLECULE
APJ
   41    45     1     0     0
SMALL
bcc


@<TRIPOS>ATOM
      1 N1          0.1400   -0.2190   -0.0770 nb        1 APJ     -0.785000
      2 N2          2.0860   -0.5750    1.3910 nb        1 APJ     -0.747000
      3 N3         -2.0520   -0.0150    0.8890 nh        1 APJ     -0.698300
      4 N4         -3.4340    1.5070   -0.5390 na        1 APJ     -0.037600
      5 N5         -3.9320    1.5430   -1.7730 nc        1 APJ     -0.510800
      6 N6          2.2720   -0.6430   -1.0180 nh        1 APJ     -0.698300
      7 N7          7.8240   -0.1190   -1.0060 na        1 APJ     -0.290300
      8 N8          6.9460   -1.7760    0.3240 nc        1 APJ     -0.561100
      9 C9          1.4900   -0.4550    0.1430 ca        1 APJ      0.891900
     10 C10        -0.6560   -0.1510    1.0280 ca        1 APJ      0.701200
     11 C11        -0.1190   -0.2720    2.3480 ca        1 APJ     -0.462600
     12 C12         1.2620   -0.4830    2.4450 ca        1 APJ      0.482200
     13 C13        -2.6340    0.3410   -0.3310 cc        1 APJ      0.081300
     14 C14        -3.3980    0.4890   -2.4610 cd        1 APJ      0.345600
     15 C15        -2.5670   -0.3070   -1.5790 cd        1 APJ     -0.251300
     16 C16        -3.6460    0.2190   -3.8760 cx        1 APJ     -0.154000
     17 C17        -3.7360   -1.2120   -4.3490 cx        1 APJ     -0.124400
     18 C18        -2.5460   -0.3820   -4.7180 cx        1 APJ     -0.124400
     19 C19         3.6760   -0.4370   -0.9930 ca        1 APJ      0.092600
     20 C20         4.5030   -1.2840   -0.2410 ca        1 APJ     -0.035000
     21 C21         5.8860   -1.0910   -0.3110 ca        1 APJ      0.069400
     22 C22         6.4350   -0.0410   -1.1530 ca        1 APJ     -0.080200
     23 C23         5.6000    0.7930   -1.9020 ca        1 APJ     -0.124000
     24 C24         4.2340    0.5890   -1.8100 ca        1 APJ     -0.139000
     25 C25         8.0650   -1.1770   -0.1080 cd        1 APJ      0.419700
     26 HN3        -2.5070    0.3300    1.7100 hn        1 APJ      0.428800
     27 HN6         1.8330   -0.3350   -1.8650 hn        1 APJ      0.435800
     28 H11        -0.7470   -0.2150    3.2410 ha        1 APJ      0.152000
     29 H12         1.7480   -0.5820    3.4330 h4        1 APJ      0.029100
     30 H15        -2.0030   -1.1970   -1.8330 ha        1 APJ      0.179000
     31 H16        -4.3140    0.9630   -4.3590 hc        1 APJ      0.096700
     32 H17        -4.4830   -1.4640   -5.1230 hc        1 APJ      0.073700
     33 H17A       -3.6120   -2.0260   -3.6120 hc        1 APJ      0.073700
     34 H18        -1.5730   -0.6020   -4.2430 hc        1 APJ      0.073700
     35 H18A       -2.4300   -0.0310   -5.7580 hc        1 APJ      0.073700
     36 H20         4.0900   -2.0810    0.3970 ha        1 APJ      0.172000
     37 H23         6.0090    1.5870   -2.5410 ha        1 APJ      0.137000
     38 H24         3.5650    1.2430   -2.3920 ha        1 APJ      0.134000
     39 H25         9.0840   -1.4560    0.1870 h5        1 APJ      0.068800
     40 HN7         8.4900    0.4610   -1.4370 hn        1 APJ      0.305700
     41 HN4        -3.8840    2.0360    0.1720 hn        1 APJ      0.305700
@<TRIPOS>BOND
     1    1    9 ar  
     2    1   10 ar  
     3    2    9 ar  
     4    2   12 ar  
     5    3   10 1   
     6    3   13 1   
     7    3   26 1   
     8    4    5 1   
     9    4   13 1   
    10    4   41 1   
    11    5   14 2   
    12    6    9 1   
    13    6   19 1   
    14    6   27 1   
    15    7   22 1   
    16    7   25 1   
    17    7   40 1   
    18    8   21 1   
    19    8   25 2   
    20   10   11 ar  
    21   11   12 ar  
    22   11   28 1   
    23   12   29 1   
    24   13   15 2   
    25   14   15 1   
    26   14   16 1   
    27   15   30 1   
    28   16   17 1   
    29   16   18 1   
    30   16   31 1   
    31   17   18 1   
    32   17   32 1   
    33   17   33 1   
    34   18   34 1   
    35   18   35 1   
    36   19   20 ar  
    37   19   24 ar  
    38   20   21 ar  
    39   20   36 1   
    40   21   22 ar  
    41   22   23 ar  
    42   23   24 ar  
    43   23   37 1   
    44   24   38 1   
    45   25   39 1   
@<TRIPOS>SUBSTRUCTURE
     1 APJ         1 TEMP              0 ****  ****    0 ROOT
