@<TRIPOS>MOLECULE
APJ
   41    45     1     0     0
SMALL
bcc


@<TRIPOS>ATOM
      1 N1          0.1390   -0.2130   -0.0780 nb        1 APJ     -0.785000
      2 N2          2.0840   -0.5620    1.3940 nb        1 APJ     -0.747000
      3 N3         -2.0540   -0.0020    0.8860 nu        1 APJ     -0.698300
      4 N4         -3.4350    1.5110   -0.5520 na        1 APJ     -0.037600
      5 N5         -3.9320    1.5400   -1.7870 nc        1 APJ     -0.511800
      6 N6          2.2710   -0.6440   -1.0140 nu        1 APJ     -0.698300
      7 N7          7.8230   -0.1220   -1.0000 na        1 APJ     -0.290300
      8 N8          6.9440   -1.7710    0.3390 nc        1 APJ     -0.561100
      9 C9          1.4880   -0.4490    0.1450 ca        1 APJ      0.891900
     10 C10        -0.6580   -0.1380    1.0270 ca        1 APJ      0.701200
     11 C11        -0.1220   -0.2520    2.3470 ca        1 APJ     -0.462600
     12 C12         1.2580   -0.4630    2.4460 ca        1 APJ      0.482200
     13 C13        -2.6340    0.3470   -0.3370 cc        1 APJ      0.081300
     14 C14        -3.3960    0.4830   -2.4680 cd        1 APJ      0.345600
     15 C15        -2.5660   -0.3080   -1.5820 cd        1 APJ     -0.251300
     16 C16        -3.6430    0.2050   -3.8820 cx        1 APJ     -0.154000
     17 C17        -3.7310   -1.2280   -4.3480 cx        1 APJ     -0.124400
     18 C18        -2.5410   -0.3980   -4.7200 cx        1 APJ     -0.124400
     19 C19         3.6760   -0.4390   -0.9900 ca        1 APJ      0.092600
     20 C20         4.5010   -1.2810   -0.2320 ca        1 APJ     -0.035000
     21 C21         5.8850   -1.0890   -0.3020 ca        1 APJ      0.069400
     22 C22         6.4350   -0.0450   -1.1490 ca        1 APJ     -0.080200
     23 C23         5.6000    0.7850   -1.9050 ca        1 APJ     -0.124000
     24 C24         4.2350    0.5820   -1.8120 ca        1 APJ     -0.139000
     25 C25         8.0640   -1.1740   -0.0960 cd        1 APJ      0.419700
     26 HN3        -2.5090    0.3470    1.7040 hn        1 APJ      0.428800
     27 HN6         1.8340   -0.3410   -1.8630 hn        1 APJ      0.435800
     28 H11        -0.7510   -0.1890    3.2400 ha        1 APJ      0.152000
     29 H12         1.7440   -0.5560    3.4360 h4        1 APJ      0.029100
     30 H15        -2.0010   -1.1990   -1.8310 ha        1 APJ      0.179000
     31 H16        -4.3120    0.9460   -4.3700 hc        1 APJ      0.096700
     32 H17        -4.4770   -1.4840   -5.1210 hc        1 APJ      0.073700
     33 H17A       -3.6080   -2.0380   -3.6070 hc        1 APJ      0.073700
     34 H18        -2.4250   -0.0530   -5.7620 hc        1 APJ      0.073700
     35 H18A       -1.5690   -0.6150   -4.2430 hc        1 APJ      0.073700
     36 H20         4.0880   -2.0740    0.4110 ha        1 APJ      0.172000
     37 H23         6.0110    1.5750   -2.5470 ha        1 APJ      0.137000
     38 H24         3.5660    1.2330   -2.3990 ha        1 APJ      0.134000
     39 H25         9.0820   -1.4520    0.2020 h5        1 APJ      0.068800
     40 HN7         8.4900    0.4550   -1.4340 hn        1 APJ      0.305700
     41 HN4        -3.8860    2.0430    0.1560 hn        1 APJ      0.305700
@<TRIPOS>BOND
     1    1    9 ar  
     2    1   10 ar  
     3    2    9 ar  
     4    2   12 ar  
     5    3   10 1   
     6    3   13 1   
     7    3   26 1   
     8    4    5 1   
     9    4   13 1   
    10    4   41 1   
    11    5   14 2   
    12    6    9 1   
    13    6   19 1   
    14    6   27 1   
    15    7   22 1   
    16    7   25 1   
    17    7   40 1   
    18    8   21 1   
    19    8   25 2   
    20   10   11 ar  
    21   11   12 ar  
    22   11   28 1   
    23   12   29 1   
    24   13   15 2   
    25   14   15 1   
    26   14   16 1   
    27   15   30 1   
    28   16   17 1   
    29   16   18 1   
    30   16   31 1   
    31   17   18 1   
    32   17   32 1   
    33   17   33 1   
    34   18   34 1   
    35   18   35 1   
    36   19   20 ar  
    37   19   24 ar  
    38   20   21 ar  
    39   20   36 1   
    40   21   22 ar  
    41   22   23 ar  
    42   23   24 ar  
    43   23   37 1   
    44   24   38 1   
    45   25   39 1   
@<TRIPOS>SUBSTRUCTURE
     1 APJ         1 TEMP              0 ****  ****    0 ROOT
