@<TRIPOS>MOLECULE
APK
   56    58     1     0     0
SMALL
bcc


@<TRIPOS>ATOM
      1 O           9.7040    2.2210   -0.9860 o         1 APK     -0.534100
      2 C           8.6900    1.8750   -1.5910 c         1 APK      0.571900
      3 CA          7.9990    0.5310   -1.4140 c3        1 APK      0.048500
      4 N           8.9010   -0.5160   -0.9790 n3        1 APK     -0.898800
      5 CB          6.7680    0.7840   -0.5240 c3        1 APK     -0.112400
      6 CG          5.8060   -0.3830   -0.5460 c3        1 APK     -0.075400
      7 CD          4.5360   -0.0510    0.2070 c3        1 APK     -0.110400
      8 CE          3.5650   -1.2400    0.1540 c3        1 APK      0.225800
      9 NZ          2.3130   -1.0310    0.7840 n3        1 APK     -0.949300
     10 P           0.9620   -0.9430   -0.0840 p5        1 APK      1.443700
     11 O1P        -0.2320   -1.1940    0.7830 o         1 APK     -0.858500
     12 O2P         1.1100   -1.5590   -1.4240 o         1 APK     -0.858500
     13 O5'         0.7880    0.7150   -0.3740 os        1 APK     -0.591200
     14 C5'        -0.5030    1.1420   -0.6390 c3        1 APK      0.201400
     15 C4'        -1.0350    2.0460    0.4880 c3        1 APK      0.080100
     16 O4'        -2.4630    2.1730    0.3690 os        1 APK     -0.427600
     17 C3'        -0.7470    1.4980    1.8930 c3        1 APK      0.089100
     18 O3'        -0.3320    2.4940    2.8050 oh        1 APK     -0.603800
     19 C2'        -2.0730    0.8540    2.3520 c3        1 APK      0.077100
     20 O2'        -2.4970    1.3520    3.6110 oh        1 APK     -0.611800
     21 C1'        -3.1380    1.3290    1.3160 c3        1 APK      0.252800
     22 N9         -3.8370    0.2470    0.6630 na        1 APK     -0.276000
     23 C8         -3.3310   -1.0140    0.2450 cc        1 APK      0.442700
     24 N7         -4.2340   -1.7570   -0.4110 nd        1 APK     -0.577100
     25 C5         -5.3950   -0.9700   -0.4680 ca        1 APK     -0.208200
     26 C4         -5.1590    0.3100    0.1950 ca        1 APK      0.448800
     27 N3         -6.1090    1.2890    0.2960 nb        1 APK     -0.719000
     28 C2         -7.2750    0.9480   -0.2980 ca        1 APK      0.655900
     29 N1         -7.6290   -0.1910   -0.9560 nb        1 APK     -0.797000
     30 C6         -6.6890   -1.1880   -1.0350 ca        1 APK      0.713200
     31 N6         -6.9990   -2.4180   -1.5990 nh        1 APK     -0.936500
     32 HC          8.1800    2.5500   -2.3130 h4        1 APK     -0.002800
     33 HA          7.6250    0.2130   -2.4370 h1        1 APK      0.078700
     34 H           9.4940   -0.1850   -0.2420 hn        1 APK      0.355800
     35 H2          8.3760   -1.3040   -0.6500 hn        1 APK      0.355800
     36 HB2         7.0960    0.9890    0.5280 hc        1 APK      0.049200
     37 HB3         6.2400    1.7010   -0.8970 hc        1 APK      0.049200
     38 HG2         5.5520   -0.6440   -1.6080 hc        1 APK      0.040700
     39 HG3         6.2840   -1.2880   -0.0870 hc        1 APK      0.040700
     40 HD2         4.7810    0.1960    1.2730 hc        1 APK      0.042700
     41 HD3         4.0550    0.8570   -0.2430 hc        1 APK      0.042700
     42 HE2         3.3590   -1.4950   -0.9300 h1        1 APK      0.042700
     43 HE3         4.1040   -2.1210    0.6180 h1        1 APK      0.042700
     44 HZ          2.3450   -0.8520    1.7510 hn        1 APK      0.407800
     45 H5'1       -0.4930    1.7490   -1.5880 h1        1 APK      0.032200
     46 H5'2       -1.2000    0.2670   -0.7680 h1        1 APK      0.032200
     47 H4'        -0.6390    3.0910    0.3720 h1        1 APK      0.069700
     48 H3'         0.0850    0.7360    1.8620 h1        1 APK      0.139700
     49 HO3'       -1.0090    3.1830    2.8010 ho        1 APK      0.399000
     50 H2'        -1.9600   -0.2640    2.3930 h1        1 APK      0.113700
     51 HO2'       -1.7190    1.3360    4.1850 ho        1 APK      0.417000
     52 H1'        -3.9130    1.9940    1.8040 h2        1 APK      0.110700
     53 H8         -2.2820   -1.3200    0.4720 h5        1 APK      0.159800
     54 HC2        -8.0730    1.7180   -0.2510 h5        1 APK      0.036100
     55 HN61       -6.2180   -2.9770   -1.8550 hn        1 APK      0.419800
     56 HN62       -7.7840   -2.4570   -2.2070 hn        1 APK      0.419800
@<TRIPOS>BOND
     1    1    2 2   
     2    2    3 1   
     3    2   32 1   
     4    3    4 1   
     5    3    5 1   
     6    3   33 1   
     7    4   34 1   
     8    4   35 1   
     9    5    6 1   
    10    5   36 1   
    11    5   37 1   
    12    6    7 1   
    13    6   38 1   
    14    6   39 1   
    15    7    8 1   
    16    7   40 1   
    17    7   41 1   
    18    8    9 1   
    19    8   42 1   
    20    8   43 1   
    21    9   10 1   
    22    9   44 1   
    23   10   11 1   
    24   10   12 1   
    25   10   13 1   
    26   13   14 1   
    27   14   15 1   
    28   14   45 1   
    29   14   46 1   
    30   15   16 1   
    31   15   17 1   
    32   15   47 1   
    33   16   21 1   
    34   17   18 1   
    35   17   19 1   
    36   17   48 1   
    37   18   49 1   
    38   19   20 1   
    39   19   21 1   
    40   19   50 1   
    41   20   51 1   
    42   21   22 1   
    43   21   52 1   
    44   22   23 1   
    45   22   26 1   
    46   23   24 2   
    47   23   53 1   
    48   24   25 1   
    49   25   26 ar  
    50   25   30 ar  
    51   26   27 ar  
    52   27   28 ar  
    53   28   29 ar  
    54   28   54 1   
    55   29   30 ar  
    56   30   31 1   
    57   31   55 1   
    58   31   56 1   
@<TRIPOS>SUBSTRUCTURE
     1 APK         1 TEMP              0 ****  ****    0 ROOT
