@<TRIPOS>MOLECULE
APK
   56    53     1     0     0
SMALL
bcc


@<TRIPOS>ATOM
      1 O          -7.9130    5.9770   -2.2600 o         1 APK     -0.291000
      2 C          -7.1310    6.5830   -1.6210 c1        1 APK      0.189000
      3 CA         -6.4300    5.9280   -0.4940 c2        1 APK     -0.096000
      4 N          -7.3720    5.6240    0.5390 n3        1 APK     -0.332000
      5 CB         -5.7760    4.6330   -0.9880 c3        1 APK     -0.190000
      6 CG         -4.4750    4.3940   -0.2280 c3        1 APK     -0.155000
      7 CD         -3.7550    3.1670   -0.8150 c3        1 APK     -0.182000
      8 CE         -2.8120    2.5440    0.2780 c3        1 APK     -0.012000
      9 NZ         -2.1500    1.3910   -0.2530 n3        1 APK     -0.890000
     10 P          -1.4990    0.2620    0.7830 p5        1 APK      1.944000
     11 O1P        -2.6220   -0.4870    1.4850 o         1 APK     -0.833000
     12 O2P        -0.6480    0.9530    1.8020 o         1 APK     -0.833000
     13 O5'        -0.6010   -0.7770   -0.0480 os        1 APK     -0.742000
     14 C5'         0.3900   -1.5440    0.6610 c3        1 APK      0.036000
     15 C4'         1.2890   -2.2020   -0.3080 c3        1 APK     -0.052000
     16 O4'         2.5170   -1.8490   -0.0880 os        1 APK     -0.269000
     17 C3'         1.2340   -3.8440   -0.1120 c3        1 APK     -0.015000
     18 O3'         0.0700   -4.4060   -0.8500 oh        1 APK     -0.339000
     19 C2'         2.2900   -4.2820   -0.5850 c3        1 APK      0.004000
     20 O2'         2.1050   -4.6350   -2.0280 oh        1 APK     -0.311000
     21 C1'         3.3420   -3.0710   -0.4400 c3        1 APK      0.122000
     22 N9          4.1800   -3.3210    0.4850 n3        1 APK     -0.187000
     23 C8          4.1700   -3.8160    1.7420 c1        1 APK     -0.025000
     24 N7          5.4660   -3.8580    2.1920 n2        1 APK     -0.132000
     25 C5          6.2750   -3.3840    1.1970 c1        1 APK     -0.229000
     26 C4          5.4960   -3.0500    0.1440 c1        1 APK      0.067000
     27 N3          6.0490   -2.4620   -0.9460 n1        1 APK     -0.196000
     28 C2          7.3940   -2.2060   -0.9760 c1        1 APK      0.007000
     29 N1          8.1730   -2.5420    0.0850 n1        1 APK     -0.272000
     30 C6          7.6270   -3.1250    1.1630 c1        1 APK      0.212000
     31 N6          8.6090   -3.4900    2.1500 n3        1 APK     -0.341000
     32 HC         -6.9260    7.5000   -1.8520 ha        1 APK      0.085000
     33 HA         -5.7640    6.5100   -0.1550 h4        1 APK      0.113000
     34 H          -8.2120    5.9190    0.2860 hn        1 APK      0.154000
     35 H2         -7.1180    6.0500    1.3230 hn        1 APK      0.154000
     36 HB2        -6.3850    3.8820   -0.8360 hc        1 APK      0.087000
     37 HB3        -5.5910    4.7070   -1.9190 hc        1 APK      0.087000
     38 HG2        -4.6740    4.2330    0.7170 hc        1 APK      0.081500
     39 HG3        -3.8930    5.1880   -0.3120 hc        1 APK      0.081500
     40 HD2        -4.4380    2.4820   -1.1020 hc        1 APK      0.078000
     41 HD3        -3.2100    3.4490   -1.6090 hc        1 APK      0.078000
     42 HE2        -3.3460    2.2810    1.0600 h1        1 APK      0.076000
     43 HE3        -2.1470    3.2040    0.5460 h1        1 APK      0.076000
     44 HZ         -2.0390    1.3020   -1.1540 hn        1 APK      0.199000
     45 H5'1       -0.0470   -2.2160    1.2010 h1        1 APK      0.078500
     46 H5'2        0.9180   -0.9440    1.2430 h1        1 APK      0.078500
     47 H4'         1.0330   -1.9660   -1.2120 h1        1 APK      0.110000
     48 H3'         1.1710   -4.0710    0.8560 h1        1 APK      0.122000
     49 HO3'       -0.6940   -4.0090   -0.5590 ho        1 APK      0.243000
     50 H2'         2.5830   -5.0330   -0.0970 h1        1 APK      0.131000
     51 HO2'        2.4360   -5.5010   -2.1840 ho        1 APK      0.222000
     52 H1'         3.8000   -2.9300   -1.2710 h2        1 APK      0.158000
     53 H8          3.3930   -4.1390    2.2190 DU        1 APK      0.221000
     54 HC2         7.7900   -1.7920   -1.7530 ha        1 APK      0.180000
     55 HN61        9.0220   -2.8450    2.6420 hn        1 APK      0.225000
     56 HN62        8.8470   -4.3650    2.2540 hn        1 APK      0.225000
@<TRIPOS>BOND
     1    1    2 1   
     2    2   32 1   
     3    3    4 1   
     4    3    5 1   
     5    3   33 1   
     6    4   34 1   
     7    4   35 1   
     8    5    6 1   
     9    5   36 1   
    10    5   37 1   
    11    6    7 1   
    12    6   38 1   
    13    6   39 1   
    14    7    8 1   
    15    7   40 1   
    16    7   41 1   
    17    8    9 1   
    18    8   42 1   
    19    8   43 1   
    20    9   10 1   
    21    9   44 1   
    22   10   11 1   
    23   10   12 1   
    24   10   13 1   
    25   13   14 1   
    26   14   15 1   
    27   14   45 1   
    28   14   46 1   
    29   15   16 1   
    30   15   17 1   
    31   15   47 1   
    32   16   21 1   
    33   17   18 1   
    34   17   19 1   
    35   17   48 1   
    36   18   49 1   
    37   19   20 1   
    38   19   21 1   
    39   19   50 1   
    40   20   51 1   
    41   21   22 1   
    42   21   52 1   
    43   22   23 1   
    44   22   26 1   
    45   23   24 1   
    46   24   25 1   
    47   25   30 1   
    48   26   27 1   
    49   28   29 1   
    50   28   54 1   
    51   30   31 1   
    52   31   55 1   
    53   31   56 1   
@<TRIPOS>SUBSTRUCTURE
     1 APK         1 TEMP              0 ****  ****    0 ROOT
