@<TRIPOS>MOLECULE
APL
   34    34     1     0     0
SMALL
bcc


@<TRIPOS>ATOM
      1 CN2         0.1870   -0.8480    0.1190 c3        1 APL     -0.190100
      2 CN1         1.6320   -0.4920    0.2070 c         1 APL      0.558100
      3 ON1         2.3860   -0.6300    1.1540 o         1 APL     -0.394100
      4 N3          2.2050    0.1230   -1.0630 n4        1 APL     -0.682800
      5 C3          3.7060    0.1720   -1.1400 c3        1 APL      0.123500
      6 C2          4.2040    1.6370   -1.3510 c3        1 APL      0.312600
      7 C1          4.0030    2.5110   -0.0310 c3        1 APL      0.578900
      8 C4          4.2460   -0.7050   -2.2820 c3        1 APL     -0.045100
      9 OY          5.5330    1.6030   -1.7690 oh        1 APL     -0.603800
     10 OX          3.4660    2.2350   -2.3810 oh        1 APL     -0.603800
     11 F11         4.5600    3.7520   -0.1540 f         1 APL     -0.211967
     12 F12         2.6830    2.7040    0.2750 f         1 APL     -0.211967
     13 F13         4.5700    1.9480    1.0770 f         1 APL     -0.211967
     14 CP1         3.6740   -2.0750   -2.2640 ca        1 APL     -0.156300
     15 CP2         2.6550   -2.4210   -3.1620 ca        1 APL     -0.134000
     16 CP3         2.1470   -3.7190   -3.1770 ca        1 APL     -0.116500
     17 CP4         2.6520   -4.6790   -2.2990 ca        1 APL     -0.102000
     18 CP5         3.6700   -4.3400   -1.4080 ca        1 APL     -0.116500
     19 CP6         4.1830   -3.0430   -1.3910 ca        1 APL     -0.134000
     20 HC21       -0.1700   -1.1330    1.1460 hc        1 APL      0.116033
     21 HC22        0.0450   -1.7250   -0.5630 hc        1 APL      0.116033
     22 HC23       -0.4290    0.0120   -0.2480 hc        1 APL      0.116033
     23 HN3         1.8600   -0.4290   -1.8640 hn        1 APL      0.474300
     24 H3          4.1300   -0.1940   -0.1540 hx        1 APL      0.147700
     25 H41         5.3660   -0.7430   -2.1580 hc        1 APL      0.102700
     26 H42         4.0420   -0.1960   -3.2640 hc        1 APL      0.102700
     27 HY          6.0350    2.3160   -1.3410 ho        1 APL      0.471500
     28 HX          4.0700    2.6890   -2.9940 ho        1 APL      0.471500
     29 HP2         2.2870   -1.6840   -3.8930 ha        1 APL      0.139000
     30 HP3         1.3590   -3.9920   -3.8980 ha        1 APL      0.156000
     31 HP4         2.2570   -5.7070   -2.3200 ha        1 APL      0.158000
     32 HP5         4.0820   -5.1010   -0.7250 ha        1 APL      0.156000
     33 HP6         5.0030   -2.7870   -0.7020 ha        1 APL      0.139000
     34 H32         1.8280    1.0790   -1.1480 hn        1 APL      0.474300
@<TRIPOS>BOND
     1    1    2 1   
     2    1   20 1   
     3    1   21 1   
     4    1   22 1   
     5    2    3 2   
     6    2    4 1   
     7    4    5 1   
     8    4   23 1   
     9    4   34 1   
    10    5    6 1   
    11    5    8 1   
    12    5   24 1   
    13    6    7 1   
    14    6    9 1   
    15    6   10 1   
    16    7   11 1   
    17    7   12 1   
    18    7   13 1   
    19    8   14 1   
    20    8   25 1   
    21    8   26 1   
    22    9   27 1   
    23   10   28 1   
    24   14   15 ar  
    25   14   19 ar  
    26   15   16 ar  
    27   15   29 1   
    28   16   17 ar  
    29   16   30 1   
    30   17   18 ar  
    31   17   31 1   
    32   18   19 ar  
    33   18   32 1   
    34   19   33 1   
@<TRIPOS>SUBSTRUCTURE
     1 APL         1 TEMP              0 ****  ****    0 ROOT
