@<TRIPOS>MOLECULE
APL
   34    34     1     0     0
SMALL
bcc


@<TRIPOS>ATOM
      1 CN2         0.1870   -0.8230    0.1200 c3        1 APL     -0.190100
      2 CN1         1.6320   -0.4600    0.1980 c         1 APL      0.558100
      3 ON1         2.3860   -0.5710    1.1480 o         1 APL     -0.394100
      4 N3          2.2010    0.1240   -1.0880 ny        1 APL     -0.682800
      5 C3          3.7020    0.1780   -1.1670 c3        1 APL      0.123500
      6 C2          4.1930    1.6400   -1.4150 c3        1 APL      0.312600
      7 C1          3.9880    2.5470   -0.1190 c3        1 APL      0.578900
      8 C4          4.2460   -0.7260   -2.2850 c3        1 APL     -0.045100
      9 OY          5.5220    1.6010   -1.8330 oh        1 APL     -0.603800
     10 OX          3.4520    2.2070   -2.4610 oh        1 APL     -0.603800
     11 F11         4.5390    3.7870   -0.2740 f         1 APL     -0.211967
     12 F12         2.6670    2.7410    0.1820 f         1 APL     -0.211967
     13 F13         4.5570    2.0160    1.0030 f         1 APL     -0.211967
     14 CP1         3.6810   -2.0980   -2.2320 ca        1 APL     -0.156300
     15 CP2         2.6630   -2.4720   -3.1200 ca        1 APL     -0.134000
     16 CP3         2.1610   -3.7720   -3.1010 ca        1 APL     -0.116500
     17 CP4         2.6710   -4.7060   -2.1970 ca        1 APL     -0.102000
     18 CP5         3.6880   -4.3390   -1.3160 ca        1 APL     -0.116500
     19 CP6         4.1940   -3.0400   -1.3330 ca        1 APL     -0.134000
     20 HC21        0.0480   -1.7180   -0.5400 hc        1 APL      0.116033
     21 HC22       -0.1680   -1.0830    1.1540 hc        1 APL      0.116033
     22 HC23       -0.4320    0.0250   -0.2680 hc        1 APL      0.116033
     23 HN3         1.8190    1.0750   -1.1980 hn        1 APL      0.474300
     24 H3          4.1270   -0.1600   -0.1710 hx        1 APL      0.147700
     25 H41         5.3660   -0.7560   -2.1610 hc        1 APL      0.102700
     26 H42         4.0390   -0.2440   -3.2800 hc        1 APL      0.102700
     27 HY          6.0210    2.3270   -1.4240 ho        1 APL      0.471500
     28 HX          4.0530    2.6470   -3.0860 ho        1 APL      0.471500
     29 HP2         2.2910   -1.7560   -3.8690 ha        1 APL      0.139000
     30 HP3         1.3750   -4.0670   -3.8130 ha        1 APL      0.156000
     31 HP4         2.2800   -5.7370   -2.1920 ha        1 APL      0.158000
     32 HP5         4.1030   -5.0800   -0.6140 ha        1 APL      0.156000
     33 HP6         5.0130   -2.7620   -0.6510 ha        1 APL      0.139000
     34 H32         1.8590   -0.4510   -1.8740 hn        1 APL      0.474300
@<TRIPOS>BOND
     1    1    2 1   
     2    1   20 1   
     3    1   21 1   
     4    1   22 1   
     5    2    3 2   
     6    2    4 1   
     7    4    5 1   
     8    4   23 1   
     9    4   34 1   
    10    5    6 1   
    11    5    8 1   
    12    5   24 1   
    13    6    7 1   
    14    6    9 1   
    15    6   10 1   
    16    7   11 1   
    17    7   12 1   
    18    7   13 1   
    19    8   14 1   
    20    8   25 1   
    21    8   26 1   
    22    9   27 1   
    23   10   28 1   
    24   14   15 ar  
    25   14   19 ar  
    26   15   16 ar  
    27   15   29 1   
    28   16   17 ar  
    29   16   30 1   
    30   17   18 ar  
    31   17   31 1   
    32   18   19 ar  
    33   18   32 1   
    34   19   33 1   
@<TRIPOS>SUBSTRUCTURE
     1 APL         1 TEMP              0 ****  ****    0 ROOT
