@<TRIPOS>MOLECULE
APL
   34    34     1     0     0
SMALL
bcc


@<TRIPOS>ATOM
      1 CN2         0.1740   -0.8140    0.0900 c3        1 APL     -0.190100
      2 CN1         1.6150   -0.4410    0.1790 c         1 APL      0.558100
      3 ON1         2.3590   -0.5330    1.1400 o         1 APL     -0.394100
      4 N3          2.1960    0.1270   -1.1080 n4        1 APL     -0.682800
      5 C3          3.6980    0.1830   -1.1720 c3        1 APL      0.123500
      6 C2          4.1890    1.6420   -1.4370 c3        1 APL      0.312600
      7 C1          3.9690    2.5670   -0.1570 c3        1 APL      0.578900
      8 C4          4.2560   -0.7360   -2.2710 c3        1 APL     -0.045100
      9 OY          5.5220    1.5990   -1.8410 oh        1 APL     -0.603800
     10 OX          3.4580    2.1920   -2.4990 oh        1 APL     -0.603800
     11 F11         4.5190    3.8060   -0.3250 f         1 APL     -0.211967
     12 F12         2.6440    2.7630    0.1280 f         1 APL     -0.211967
     13 F13         4.5280    2.0550    0.9790 f         1 APL     -0.211967
     14 CP1         3.6920   -2.1080   -2.2030 ca        1 APL     -0.156300
     15 CP2         2.6850   -2.4980   -3.0960 ca        1 APL     -0.134000
     16 CP3         2.1850   -3.7990   -3.0630 ca        1 APL     -0.116500
     17 CP4         2.6870   -4.7180   -2.1410 ca        1 APL     -0.102000
     18 CP5         3.6940   -4.3360   -1.2540 ca        1 APL     -0.116500
     19 CP6         4.1980   -3.0370   -1.2850 ca        1 APL     -0.134000
     20 HC21       -0.1930   -1.0580    1.1240 hc        1 APL      0.116033
     21 HC22       -0.4450    0.0230   -0.3210 hc        1 APL      0.116033
     22 HC23        0.0480   -1.7210   -0.5550 hc        1 APL      0.116033
     23 HN3         1.8140    1.0760   -1.2350 hn        1 APL      0.474300
     24 H3          4.1140   -0.1390   -0.1670 hx        1 APL      0.147700
     25 H41         4.0590   -0.2700   -3.2750 hc        1 APL      0.102700
     26 H42         5.3740   -0.7620   -2.1340 hc        1 APL      0.102700
     27 HY          6.0160    2.3330   -1.4360 ho        1 APL      0.471500
     28 HX          4.0650    2.6260   -3.1230 ho        1 APL      0.471500
     29 HP2         2.3200   -1.7940   -3.8600 ha        1 APL      0.139000
     30 HP3         1.4060   -4.1060   -3.7790 ha        1 APL      0.156000
     31 HP4         2.2990   -5.7490   -2.1240 ha        1 APL      0.158000
     32 HP5         4.1030   -5.0660   -0.5360 ha        1 APL      0.156000
     33 HP6         5.0090   -2.7460   -0.5990 ha        1 APL      0.139000
     34 H32         1.8630   -0.4590   -1.8900 hn        1 APL      0.474300
@<TRIPOS>BOND
     1    1    2 1   
     2    1   20 1   
     3    1   21 1   
     4    1   22 1   
     5    2    3 2   
     6    2    4 1   
     7    4    5 1   
     8    4   23 1   
     9    4   34 1   
    10    5    6 1   
    11    5    8 1   
    12    5   24 1   
    13    6    7 1   
    14    6    9 1   
    15    6   10 1   
    16    7   11 1   
    17    7   12 1   
    18    7   13 1   
    19    8   14 1   
    20    8   25 1   
    21    8   26 1   
    22    9   27 1   
    23   10   28 1   
    24   14   15 ar  
    25   14   19 ar  
    26   15   16 ar  
    27   15   29 1   
    28   16   17 ar  
    29   16   30 1   
    30   17   18 ar  
    31   17   31 1   
    32   18   19 ar  
    33   18   32 1   
    34   19   33 1   
@<TRIPOS>SUBSTRUCTURE
     1 APL         1 TEMP              0 ****  ****    0 ROOT
