@<TRIPOS>MOLECULE
APL
   33    31     1     0     0
SMALL
bcc


@<TRIPOS>ATOM
      1 CN2        -3.3880   -0.9340    1.5210 c3        1 APL     -0.241000
      2 CN1        -1.9360   -0.5180    1.3590 c2        1 APL      0.314000
      3 ON1        -1.0800   -0.9240    2.1670 o         1 APL     -0.351000
      4 N3         -1.5330    0.2210    0.2100 n         1 APL     -0.392000
      5 C3         -0.2500    0.7940    0.1620 c3        1 APL      0.031000
      6 C2         -0.3640    2.2990    0.3200 c3        1 APL      0.154000
      7 C1          0.0220    2.6820    1.7230 c3        1 APL      0.406000
      8 C4          0.4070    0.4670   -1.1710 c3        1 APL     -0.141000
      9 OY         -1.7180    2.7060    0.0660 oh        1 APL     -0.338500
     10 OX          0.5020    2.9390   -0.6010 oh        1 APL     -0.338500
     11 F11         1.3200    3.0720    1.7440 f         1 APL     -0.154667
     12 F12        -0.1410    1.6170    2.5420 f         1 APL     -0.154667
     13 F13        -0.7370    3.6690    2.1320 f         1 APL     -0.154667
     14 CP1         1.1900   -0.8560   -1.0460 c2        1 APL     -0.078000
     15 CP2         2.5600   -0.8300   -0.7640 c2        1 APL     -0.111000
     16 CP3         3.3100   -2.0050   -0.8420 c1        1 APL     -0.122000
     17 CP4         2.6920   -3.2050   -1.2010 c1        1 APL     -0.127500
     18 CP5         1.3310   -3.2300   -1.4810 c1        1 APL     -0.127500
     19 CP6         0.5770   -2.0560   -1.4040 c1        1 APL     -0.127000
     20 HC21       -3.5800   -1.6930    0.9210 hc        1 APL      0.108667
     21 HC22       -3.9800   -0.1700    1.2890 hc        1 APL      0.108667
     22 HC23       -3.5500   -1.2010    2.4440 hc        1 APL      0.108667
     23 HN3        -2.0890    0.2620   -0.5350 hn        1 APL      0.230000
     24 H3          0.3000    0.4280    0.8980 h1        1 APL      0.165000
     25 H41         1.0220    1.1900   -1.4180 hc        1 APL      0.100000
     26 H42        -0.2970    0.3720   -1.8770 hc        1 APL      0.100000
     27 HY         -1.7260    3.3330   -0.5740 ho        1 APL      0.235000
     28 HX          0.1590    3.7330   -0.8300 ho        1 APL      0.235000
     29 HP2         2.9860   -0.0030   -0.5150 ha        1 APL      0.138000
     30 HP3         4.2510   -1.9880   -0.6480 ha        1 APL      0.136000
     31 HP4         3.2150   -4.0230   -1.2550 ha        1 APL      0.132000
     32 HP5         0.9000   -4.0720   -1.7330 ha        1 APL      0.132000
     33 HP6        -0.3740   -2.0750   -1.6000 ha        1 APL      0.126000
@<TRIPOS>BOND
     1    1    2 1   
     2    1   20 1   
     3    1   21 1   
     4    1   22 1   
     5    2    3 1   
     6    2    4 1   
     7    4    5 1   
     8    4   23 1   
     9    5    6 1   
    10    5    8 1   
    11    5   24 1   
    12    6    7 1   
    13    6    9 1   
    14    6   10 1   
    15    7   11 1   
    16    7   12 1   
    17    7   13 1   
    18    8   14 1   
    19    8   25 1   
    20    8   26 1   
    21    9   27 1   
    22   10   28 1   
    23   14   15 1   
    24   14   19 1   
    25   15   16 1   
    26   15   29 1   
    27   16   30 1   
    28   17   18 1   
    29   17   31 1   
    30   18   32 1   
    31   19   33 1   
@<TRIPOS>SUBSTRUCTURE
     1 APL         1 TEMP              0 ****  ****    0 ROOT
