@<TRIPOS>MOLECULE
APL
   33    33     1     0     0
SMALL
bcc


@<TRIPOS>ATOM
      1 CN2         3.3720   -0.0830    0.1270 c3        1 APL     -0.174100
      2 CN1         1.9530   -0.5580   -0.0530 c         1 APL      0.659100
      3 ON1         1.6610   -1.7670   -0.0850 o         1 APL     -0.583100
      4 N3          0.9790    0.4250   -0.2430 n         1 APL     -0.566900
      5 C3         -0.4240    0.1050   -0.2180 c3        1 APL      0.052700
      6 C2         -1.1300    0.5880   -1.5300 c3        1 APL      0.319600
      7 C1         -0.4770   -0.0730   -2.8280 c3        1 APL      0.560900
      8 C4         -1.1990    0.7310    0.9570 c3        1 APL     -0.055100
      9 OY         -2.5050    0.3080   -1.5140 oh        1 APL     -0.550800
     10 OX         -1.1480    1.9840   -1.6630 oh        1 APL     -0.550800
     11 F11        -1.3250   -0.0790   -3.9030 f         1 APL     -0.229300
     12 F12         0.6450    0.5820   -3.2610 f         1 APL     -0.229300
     13 F13        -0.1150   -1.3820   -2.6660 f         1 APL     -0.229300
     14 CP1        -0.6460    0.3640    2.2850 ca        1 APL     -0.092300
     15 CP2        -0.2020    1.3630    3.1610 ca        1 APL     -0.124000
     16 CP3         0.2850    1.0260    4.4230 ca        1 APL     -0.126500
     17 CP4         0.3340   -0.3090    4.8220 ca        1 APL     -0.127000
     18 CP5        -0.1090   -1.3080    3.9550 ca        1 APL     -0.126500
     19 CP6        -0.5990   -0.9750    2.6940 ca        1 APL     -0.124000
     20 HC21        4.0390   -0.9740    0.2240 hc        1 APL      0.070700
     21 HC22        3.6980    0.5190   -0.7560 hc        1 APL      0.070700
     22 HC23        3.4620    0.5400    1.0490 hc        1 APL      0.070700
     23 HN3         1.2110    1.3520    0.0320 hn        1 APL      0.303500
     24 H3         -0.5340   -1.0220   -0.1770 h1        1 APL      0.105700
     25 H41        -1.2160    1.8480    0.8280 hc        1 APL      0.074200
     26 H42        -2.2640    0.3780    0.8820 hc        1 APL      0.074200
     27 HY         -2.5910   -0.6560   -1.5220 ho        1 APL      0.428500
     28 HX         -0.2520    2.2570   -1.9070 ho        1 APL      0.428500
     29 HP2        -0.2460    2.4190    2.8560 ha        1 APL      0.133500
     30 HP3         0.6290    1.8180    5.1050 ha        1 APL      0.135000
     31 HP4         0.7190   -0.5730    5.8170 ha        1 APL      0.134000
     32 HP5        -0.0710   -2.3630    4.2660 ha        1 APL      0.135000
     33 HP6        -0.9440   -1.7670    2.0130 ha        1 APL      0.133500
@<TRIPOS>BOND
     1    1    2 1   
     2    1   20 1   
     3    1   21 1   
     4    1   22 1   
     5    2    3 2   
     6    2    4 1   
     7    4    5 1   
     8    4   23 1   
     9    5    6 1   
    10    5    8 1   
    11    5   24 1   
    12    6    7 1   
    13    6    9 1   
    14    6   10 1   
    15    7   11 1   
    16    7   12 1   
    17    7   13 1   
    18    8   14 1   
    19    8   25 1   
    20    8   26 1   
    21    9   27 1   
    22   10   28 1   
    23   14   15 ar  
    24   14   19 ar  
    25   15   16 ar  
    26   15   29 1   
    27   16   17 ar  
    28   16   30 1   
    29   17   18 ar  
    30   17   31 1   
    31   18   19 ar  
    32   18   32 1   
    33   19   33 1   
@<TRIPOS>SUBSTRUCTURE
     1 APL         1 TEMP              0 ****  ****    0 ROOT
