@<TRIPOS>MOLECULE
APM
   27    27     1     0     0
SMALL
bcc


@<TRIPOS>ATOM
      1 N           1.6510    0.9160    2.3850 n3        1 APM     -0.888800
      2 CA          0.2730    0.6390    2.0020 c3        1 APM      0.021500
      3 C          -0.7480    0.6590    3.1900 c         1 APM      0.887600
      4 O          -0.3100    0.9400    4.3420 o         1 APM     -0.840300
      5 CB          0.1170   -0.6950    1.2600 c3        1 APM     -0.035100
      6 CG          0.5840   -0.6170   -0.1510 ca        1 APM     -0.040300
      7 CD1        -0.3410   -0.4050   -1.1810 ca        1 APM     -0.127000
      8 CD2         1.9410   -0.7490   -0.4720 ca        1 APM     -0.105000
      9 CE1         0.0870   -0.3270   -2.5100 ca        1 APM     -0.151900
     10 CE2         2.3620   -0.6830   -1.7980 ca        1 APM     -0.149000
     11 CZ          1.4400   -0.4760   -2.8250 ca        1 APM     -0.106000
     12 CF         -0.9160   -0.0770   -3.5930 ce        1 APM      0.658800
     13 NG1        -0.9310   -0.8550   -4.6350 n2        1 APM     -0.844100
     14 NG2        -1.7170    1.0710   -3.3860 nh        1 APM     -0.953800
     15 OXT        -1.9560    0.4140    2.9200 o         1 APM     -0.840300
     16 H           1.9610    0.1810    2.9980 hn        1 APM      0.331300
     17 H2          1.6410    1.7550    2.9400 hn        1 APM      0.331300
     18 HA         -0.0440    1.4680    1.3040 h1        1 APM      0.044700
     19 HB2         0.6760   -1.5060    1.7960 hc        1 APM      0.060200
     20 HB3        -0.9770   -0.9590    1.2900 hc        1 APM      0.060200
     21 HD1        -1.4070   -0.3070   -0.9260 ha        1 APM      0.137000
     22 HD2         2.6730   -0.8860    0.3390 ha        1 APM      0.142000
     23 HE2         3.4290   -0.7900   -2.0400 ha        1 APM      0.118000
     24 HZ          1.7720   -0.4310   -3.8710 ha        1 APM      0.132000
     25 HG1        -1.6230   -0.6480   -5.3240 hn        1 APM      0.366400
     26 HG21       -2.6270    1.0500   -3.7850 hn        1 APM      0.395300
     27 HG22       -1.6940    1.4370   -2.4600 hn        1 APM      0.395300
@<TRIPOS>BOND
     1    1    2 1   
     2    1   16 1   
     3    1   17 1   
     4    2    3 1   
     5    2    5 1   
     6    2   18 1   
     7    3    4 1   
     8    3   15 1   
     9    5    6 1   
    10    5   19 1   
    11    5   20 1   
    12    6    7 ar  
    13    6    8 ar  
    14    7    9 ar  
    15    7   21 1   
    16    8   10 ar  
    17    8   22 1   
    18    9   11 ar  
    19    9   12 1   
    20   10   11 ar  
    21   10   23 1   
    22   11   24 1   
    23   12   13 2   
    24   12   14 1   
    25   13   25 1   
    26   14   26 1   
    27   14   27 1   
@<TRIPOS>SUBSTRUCTURE
     1 APM         1 TEMP              0 ****  ****    0 ROOT
