@<TRIPOS>MOLECULE
APN
   36    37     1     0     0
SMALL
bcc


@<TRIPOS>ATOM
      1 C8'        -0.3740    0.6030    0.5110 c3        1 APN     -0.022700
      2 C7'        -1.1070   -0.2700   -0.5200 c         1 APN      0.639100
      3 O7'        -0.6300   -1.3230   -0.9860 o         1 APN     -0.616100
      4 C5'        -3.1250    1.1270   -0.1720 c3        1 APN     -0.051000
      5 C'         -3.8440    0.4370    1.0070 c         1 APN      0.869600
      6 O1'        -3.1300   -0.1410    1.8840 o         1 APN     -0.834300
      7 OXT        -5.0990    0.2960    0.9440 o         1 APN     -0.834300
      8 N4'        -2.3700    0.1580   -0.9470 n         1 APN     -0.453800
      9 C3'        -3.1310   -0.7290   -1.7880 c3        1 APN      0.082000
     10 C2'        -3.4100   -2.1510   -1.2380 c3        1 APN      0.064800
     11 N1'        -4.0450   -2.1830    0.0990 n4        1 APN     -0.865600
     12 N9          0.9180    0.1370    0.8890 na        1 APN     -0.256000
     13 C8          1.2100   -0.8130    1.9050 cc        1 APN      0.418700
     14 N7          2.4980   -1.1740    1.9460 nd        1 APN     -0.545100
     15 C5          3.1120   -0.4690    0.8980 ca        1 APN     -0.231200
     16 C6          4.4630   -0.4140    0.4200 ca        1 APN      0.762200
     17 N6          5.4470   -1.1350    1.0450 nh        1 APN     -0.962500
     18 N1          4.7520    0.3900   -0.6600 nb        1 APN     -0.796000
     19 C2          3.7300    1.1000   -1.2050 ca        1 APN      0.686900
     20 N3          2.4210    1.1550   -0.8610 nb        1 APN     -0.735000
     21 C4          2.1260    0.3510    0.2030 ca        1 APN      0.467800
     22 H8'1       -0.2630    1.6410    0.0790 h1        1 APN      0.120200
     23 H8'2       -1.0300    0.6350    1.4380 h1        1 APN      0.120200
     24 H5'1       -3.8870    1.6120   -0.8440 h1        1 APN      0.071700
     25 H5'2       -2.4400    1.9300    0.2090 h1        1 APN      0.071700
     26 H3'1       -4.1120   -0.2370   -2.0410 h1        1 APN      0.086200
     27 H3'2       -2.5460   -0.9000   -2.7390 h1        1 APN      0.086200
     28 H2'1       -4.0930   -2.6710   -1.9660 hx        1 APN      0.102200
     29 H2'2       -2.4320   -2.7140   -1.1750 hx        1 APN      0.102200
     30 H1'1       -4.8580   -1.5310    0.1430 hn        1 APN      0.474467
     31 H1'2       -4.3490   -3.1260    0.3260 hn        1 APN      0.474467
     32 H1'3       -3.3810   -1.8520    0.8320 hn        1 APN      0.474467
     33 H8          0.4240   -1.1610    2.5870 h5        1 APN      0.079800
     34 HN61        5.1940   -1.7510    1.7750 hn        1 APN      0.448300
     35 HN62        6.3700   -1.1410    0.6910 hn        1 APN      0.448300
     36 H2          4.0180    1.7340   -2.0710 h5        1 APN      0.050100
@<TRIPOS>BOND
     1    1    2 1   
     2    1   12 1   
     3    1   22 1   
     4    1   23 1   
     5    2    3 2   
     6    2    8 1   
     7    4    5 1   
     8    4    8 1   
     9    4   24 1   
    10    4   25 1   
    11    5    6 1   
    12    5    7 1   
    13    8    9 1   
    14    9   10 1   
    15    9   26 1   
    16    9   27 1   
    17   10   11 1   
    18   10   28 1   
    19   10   29 1   
    20   11   30 1   
    21   11   31 1   
    22   11   32 1   
    23   12   13 1   
    24   12   21 1   
    25   13   14 2   
    26   13   33 1   
    27   14   15 1   
    28   15   16 ar  
    29   15   21 ar  
    30   16   17 1   
    31   16   18 ar  
    32   17   34 1   
    33   17   35 1   
    34   18   19 ar  
    35   19   20 ar  
    36   19   36 1   
    37   20   21 ar  
@<TRIPOS>SUBSTRUCTURE
     1 APN         1 TEMP              0 ****  ****    0 ROOT
