@<TRIPOS>MOLECULE
APN
   36    33     1     0     0
SMALL
bcc


@<TRIPOS>ATOM
      1 C8'        -1.0620    0.2920   -0.3580 c3        1 APN     -0.012700
      2 C7'         0.4260    0.7010   -0.4850 c         1 APN      0.650100
      3 O7'         0.9870    1.2630    0.4440 o         1 APN     -0.664100
      4 C5'         1.7670    1.6610   -2.2400 c3        1 APN     -0.005000
      5 C'          2.6980    2.2200   -1.1800 c         1 APN      0.869600
      6 O1'         3.9980    1.8400   -1.1550 o         1 APN     -0.594300
      7 OXT         2.2840    3.1550   -0.3910 o         1 APN     -0.594300
      8 N4'         1.0690    0.5960   -1.7320 n         1 APN     -0.475800
      9 C3'         0.8940   -0.6360   -2.5610 c3        1 APN      0.225000
     10 C2'         2.2050   -1.3040   -2.7180 c3        1 APN     -0.562200
     11 N1'         2.1380   -2.2890   -3.8370 n4        1 APN     -0.650600
     12 N9         -1.5570    0.6550    0.9650 n3        1 APN     -0.109400
     13 C8         -2.0330    1.8620    1.2830 c1        1 APN      0.196400
     14 N7         -2.4900    1.8080    2.5690 ne        1 APN     -0.399400
     15 C5         -2.2890    0.5580    3.0330 cg        1 APN     -0.184000
     16 C6         -2.5630   -0.0270    4.2460 c1        1 APN      0.619600
     17 N6         -2.9280    0.2150    5.5150 n3        1 APN     -0.821400
     18 N1         -2.2520   -1.3390    4.4580 n1        1 APN     -0.595800
     19 C2         -1.6630   -2.0830    3.4560 c1        1 APN      0.404300
     20 N3         -1.3950   -1.5140    2.2710 n1        1 APN     -0.539800
     21 C4         -1.7140   -0.1630    2.0530 c1        1 APN      0.007700
     22 H8'1       -1.5880    0.7580   -1.0440 h1        1 APN      0.101700
     23 H8'2       -1.1480   -0.6840   -0.4860 h1        1 APN      0.101700
     24 H5'1        1.1860    2.3050   -2.5000 h1        1 APN      0.086200
     25 H5'2        2.3100    1.3550   -3.0380 h1        1 APN      0.086200
     26 H3'1        0.2370   -1.2710   -2.0950 h1        1 APN      0.039200
     27 H3'2        0.5010   -0.3620   -3.5510 h1        1 APN      0.039200
     28 H2'1        2.9080   -0.6150   -2.9190 hx        1 APN      0.173700
     29 H2'2        2.4260   -1.7510   -1.9160 hx        1 APN      0.173700
     30 H1'1        3.0260   -2.5930   -4.0490 hn        1 APN      0.395800
     31 H1'2        1.7650   -1.8860   -4.5820 hn        1 APN      0.395800
     32 H1'3        1.6390   -2.9790   -3.5950 hn        1 APN      0.395800
     33 H8         -2.0620    2.7240    0.6350 DU        1 APN      0.225000
     34 HN61       -2.9060    1.1090    5.8560 hn        1 APN      0.446800
     35 HN62       -3.3070   -0.5090    6.0620 hn        1 APN      0.446800
     36 H2         -1.5070   -3.0710    3.5890 ha        1 APN      0.128500
@<TRIPOS>BOND
     1    1    2 1   
     2    1   12 1   
     3    1   22 1   
     4    1   23 1   
     5    2    3 2   
     6    2    8 1   
     7    4    5 1   
     8    4    8 1   
     9    4   24 1   
    10    4   25 1   
    11    5    6 1   
    12    5    7 1   
    13    8    9 1   
    14    9   10 1   
    15    9   26 1   
    16    9   27 1   
    17   10   11 1   
    18   10   28 1   
    19   10   29 1   
    20   11   30 1   
    21   11   31 1   
    22   11   32 1   
    23   12   13 2   
    24   12   21 1   
    25   13   14 2   
    26   14   15 1   
    27   15   21 3   
    28   16   17 1   
    29   16   18 3   
    30   17   34 1   
    31   17   35 1   
    32   19   20 3   
    33   19   36 1   
@<TRIPOS>SUBSTRUCTURE
     1 APN         1 TEMP              0 ****  ****    0 ROOT
