@<TRIPOS>MOLECULE
APO
   15    14     1     0     0
SMALL
bcc


@<TRIPOS>ATOM
      1 C1         -0.5660    0.4430    0.2450 c3        1 APO      0.118500
      2 N2         -1.9870    0.3620    0.4360 n3        1 APO     -0.915800
      3 C3          0.1030    0.7050    1.5690 c         1 APO      0.907600
      4 O4          0.8810    1.6730    1.6940 o         1 APO     -0.919300
      5 O5         -0.0290   -0.0970    2.4870 o         1 APO     -0.919300
      6 C6         -0.0530   -0.8610   -0.3190 c3        1 APO     -0.269600
      7 P7          1.5020   -0.5650   -1.2260 p5        1 APO      1.226700
      8 O8          2.6060   -0.2070   -0.2390 o         1 APO     -0.979167
      9 O9          1.3150    0.5620   -2.1880 o         1 APO     -0.979167
     10 O10         1.8890   -1.8210   -1.9850 o         1 APO     -0.979167
     11 HC1        -0.3570    1.1830   -0.3840 h1        1 APO      0.005700
     12 HN21       -2.4000    0.1980   -0.3780 hn        1 APO      0.328300
     13 HN22       -2.2980    1.1690    0.7860 hn        1 APO      0.328300
     14 HC61        0.1170   -1.5050    0.4330 hc        1 APO      0.023700
     15 HC62       -0.7220   -1.2400   -0.9300 hc        1 APO      0.023700
@<TRIPOS>BOND
     1    1    2 1   
     2    1    3 1   
     3    1    6 1   
     4    1   11 1   
     5    2   12 1   
     6    2   13 1   
     7    3    4 1   
     8    3    5 1   
     9    6    7 1   
    10    6   14 1   
    11    6   15 1   
    12    7    8 1   
    13    7    9 1   
    14    7   10 1   
@<TRIPOS>SUBSTRUCTURE
     1 APO         1 TEMP              0 ****  ****    0 ROOT
