@<TRIPOS>MOLECULE
APO
   15    14     1     0     0
SMALL
bcc


@<TRIPOS>ATOM
      1 C1          0.1860    0.4880   -1.1720 c3        1 APO      0.122500
      2 N2          1.6440    0.6110   -1.0970 n3        1 APO     -0.939800
      3 C3         -0.2500   -0.0260   -2.5720 c         1 APO      0.902600
      4 O4          0.3400   -1.0100   -3.1270 o         1 APO     -0.918800
      5 O5         -1.1910    0.5770   -3.1900 o         1 APO     -0.918800
      6 C6         -0.4510   -0.3520   -0.0630 c3        1 APO     -0.287600
      7 P7         -0.0970   -0.1750    1.7250 p5        1 APO      1.221700
      8 O8         -0.5180   -1.5210    2.2880 o         1 APO     -0.971833
      9 O9          1.3970    0.0840    1.8410 o         1 APO     -0.971833
     10 O10        -0.9560    0.9660    2.2330 o         1 APO     -0.971833
     11 HC1        -0.2120    1.5460   -1.0970 h1        1 APO      0.016700
     12 HN21        1.8760    0.6350   -0.1070 hn        1 APO      0.343300
     13 HN22        2.0400   -0.2340   -1.4700 hn        1 APO      0.343300
     14 HC61       -1.5540   -0.2130   -0.1400 hc        1 APO      0.015200
     15 HC62       -0.2330   -1.4250   -0.2770 hc        1 APO      0.015200
@<TRIPOS>BOND
     1    1    2 1   
     2    1    3 1   
     3    1    6 1   
     4    1   11 1   
     5    2   12 1   
     6    2   13 1   
     7    3    4 1   
     8    3    5 1   
     9    6    7 1   
    10    6   14 1   
    11    6   15 1   
    12    7    8 1   
    13    7    9 1   
    14    7   10 1   
@<TRIPOS>SUBSTRUCTURE
     1 APO         1 TEMP              0 ****  ****    0 ROOT
