@<TRIPOS>MOLECULE
APP
   24    24     1     0     0
SMALL
bcc


@<TRIPOS>ATOM
      1 N1         -0.2740    0.3210   -0.5450 n         1 APP     -0.421800
      2 C          -1.0560    1.2750   -1.2990 c         1 APP      0.658100
      3 O          -0.4970    2.1260   -1.9700 o         1 APP     -0.650100
      4 CM         -2.5840    1.1810   -1.3010 c3        1 APP     -0.170100
      5 C2          1.2110    0.3210   -0.5450 c3        1 APP     -0.039300
      6 C'          1.7650   -0.8350   -1.3520 c         1 APP      0.909600
      7 O1          2.9340   -1.2590   -1.1270 o         1 APP     -0.836300
      8 O2          1.0910   -1.3200   -2.3030 o         1 APP     -0.836300
      9 C3          1.7120    0.3210    0.9180 c3        1 APP     -0.068400
     10 C4          1.0890   -0.7490    1.7420 c3        1 APP     -0.076400
     11 C5         -0.3650   -0.7290    1.6740 c3        1 APP     -0.075400
     12 C6         -0.8810   -0.7240    0.2780 c3        1 APP      0.080000
     13 HM1        -2.9220    1.3450   -0.4000 hc        1 APP      0.048700
     14 HM2        -2.9500    1.8480   -1.9120 hc        1 APP      0.048700
     15 HM3        -2.8550    0.2890   -1.5930 hc        1 APP      0.048700
     16 H2          1.5710    1.0840   -1.0350 h1        1 APP      0.079700
     17 H31         2.6800    0.1940    0.9190 hc        1 APP      0.038200
     18 H32         1.5070    1.1860    1.3200 hc        1 APP      0.038200
     19 H41         1.3620   -0.6320    2.6710 hc        1 APP      0.038700
     20 H42         1.4070   -1.6160    1.4260 hc        1 APP      0.038700
     21 H51        -0.6900    0.0690    2.1320 hc        1 APP      0.020700
     22 H52        -0.7120   -1.5180    2.1330 hc        1 APP      0.020700
     23 H61        -0.6960   -1.5920   -0.1290 h1        1 APP      0.052700
     24 H62        -1.8470   -0.5850    0.3000 h1        1 APP      0.052700
@<TRIPOS>BOND
     1    1    2 1   
     2    1    5 1   
     3    1   12 1   
     4    2    3 2   
     5    2    4 1   
     6    4   13 1   
     7    4   14 1   
     8    4   15 1   
     9    5    6 1   
    10    5    9 1   
    11    5   16 1   
    12    6    7 1   
    13    6    8 1   
    14    9   10 1   
    15    9   17 1   
    16    9   18 1   
    17   10   11 1   
    18   10   19 1   
    19   10   20 1   
    20   11   12 1   
    21   11   21 1   
    22   11   22 1   
    23   12   23 1   
    24   12   24 1   
@<TRIPOS>SUBSTRUCTURE
     1 APP         1 TEMP              0 ****  ****    0 ROOT
