@<TRIPOS>MOLECULE
APP
   24    24     1     0     0
SMALL
bcc


@<TRIPOS>ATOM
      1 N1          0.5780    0.3550   -0.3940 n         1 APP     -0.417800
      2 C           1.6500    0.7850    0.3620 c         1 APP      0.658100
      3 O           1.5010    1.3590    1.4660 o         1 APP     -0.648100
      4 CM          3.0440    0.6370   -0.2110 c3        1 APP     -0.172100
      5 C2         -0.7250    0.1180    0.2150 c3        1 APP     -0.039300
      6 C'         -0.9950   -1.3710    0.6470 c         1 APP      0.908600
      7 O1         -0.1960   -2.2840    0.2970 o         1 APP     -0.836300
      8 O2         -2.0400   -1.5560    1.3300 o         1 APP     -0.836300
      9 C3         -1.8620    0.5670   -0.7160 c3        1 APP     -0.070400
     10 C4         -1.5590    0.3350   -2.1860 c3        1 APP     -0.061400
     11 C5         -0.4820   -0.7120   -2.3690 c3        1 APP     -0.088400
     12 C6          0.8120   -0.3250   -1.6500 c3        1 APP      0.110000
     13 HM1         3.7800    1.0320    0.5290 hc        1 APP      0.049033
     14 HM2         3.2650   -0.4400   -0.4070 hc        1 APP      0.049033
     15 HM3         3.1430    1.2100   -1.1630 hc        1 APP      0.049033
     16 H2         -0.7730    0.7300    1.1630 h1        1 APP      0.078700
     17 H31        -2.0730    1.6560   -0.5550 hc        1 APP      0.041700
     18 H32        -2.7780   -0.0050   -0.4110 hc        1 APP      0.041700
     19 H41        -1.2250    1.2960   -2.6600 hc        1 APP      0.015200
     20 H42        -2.4900    0.0110   -2.7190 hc        1 APP      0.015200
     21 H51        -0.2570   -0.8570   -3.4550 hc        1 APP      0.053700
     22 H52        -0.8400   -1.6900   -1.9420 hc        1 APP      0.053700
     23 H61         1.4130    0.3650   -2.3130 h1        1 APP      0.022700
     24 H62         1.4130   -1.2650   -1.4800 h1        1 APP      0.022700
@<TRIPOS>BOND
     1    1    2 1   
     2    1    5 1   
     3    1   12 1   
     4    2    3 2   
     5    2    4 1   
     6    4   13 1   
     7    4   14 1   
     8    4   15 1   
     9    5    6 1   
    10    5    9 1   
    11    5   16 1   
    12    6    7 1   
    13    6    8 1   
    14    9   10 1   
    15    9   17 1   
    16    9   18 1   
    17   10   11 1   
    18   10   19 1   
    19   10   20 1   
    20   11   12 1   
    21   11   21 1   
    22   11   22 1   
    23   12   23 1   
    24   12   24 1   
@<TRIPOS>SUBSTRUCTURE
     1 APP         1 TEMP              0 ****  ****    0 ROOT
