@<TRIPOS>MOLECULE
APQ
   34    35     1     0     0
SMALL
bcc


@<TRIPOS>ATOM
      1 C10        -0.0530   -0.3630    3.9640 c3        1 APQ     -0.010300
      2 C11        -0.0330    0.7290    5.0030 c3        1 APQ     -0.071400
      3 C12        -0.6760    0.2700    6.2880 c3        1 APQ     -0.092100
      4 S1          0.7250    0.2720    2.5070 ss        1 APQ     -0.311200
      5 C9          0.6020   -1.1220    1.4070 c3        1 APQ      0.048000
      6 C2          0.8880   -0.6480    0.0340 ca        1 APQ     -0.036300
      7 C3         -0.1550   -0.3790   -0.8990 ca        1 APQ      0.186400
      8 N3         -1.4900   -0.5580   -0.5380 nc        1 APQ     -0.670100
      9 C8         -2.4380   -0.3080   -1.4470 cd        1 APQ      0.651800
     10 N1         -2.1680    0.1890   -2.7430 n         1 APQ     -0.502400
     11 C7         -0.8440    0.3770   -3.1710 c         1 APQ      0.716100
     12 O1         -0.6550    0.7860   -4.3310 o         1 APQ     -0.625500
     13 C4          0.2160    0.0800   -2.1900 ca        1 APQ     -0.165600
     14 C5          1.5500    0.2580   -2.5570 ca        1 APQ     -0.118000
     15 C6          2.5750   -0.0210   -1.6390 ca        1 APQ      0.108600
     16 N4          3.9230    0.0560   -2.0140 nh        1 APQ     -0.810200
     17 C1          2.2140   -0.4700   -0.3430 ca        1 APQ     -0.131000
     18 N2         -3.7970   -0.6020   -1.1460 nh        1 APQ     -0.879800
     19 H101        0.4930   -1.2650    4.3320 h1        1 APQ      0.057700
     20 H102       -1.1030   -0.6720    3.7380 h1        1 APQ      0.057700
     21 H111       -0.5760    1.6310    4.6120 hc        1 APQ      0.054200
     22 H112        1.0270    1.0390    5.2030 hc        1 APQ      0.054200
     23 H121       -0.6520    1.0920    7.0450 hc        1 APQ      0.035033
     24 H122       -1.7400   -0.0210    6.1160 hc        1 APQ      0.035033
     25 H123       -0.1350   -0.6120    6.7080 hc        1 APQ      0.035033
     26 H91         1.3540   -1.8940    1.7140 h1        1 APQ      0.075200
     27 H92        -0.4080   -1.5900    1.4940 h1        1 APQ      0.075200
     28 HN11       -2.9010    0.3160   -3.4040 hn        1 APQ      0.336500
     29 H51         1.7730    0.6130   -3.5770 ha        1 APQ      0.159000
     30 HN41        4.0920    0.6600   -2.7880 hn        1 APQ      0.388800
     31 HN42        4.5450    0.2200   -1.2520 hn        1 APQ      0.388800
     32 H11         3.0050   -0.6880    0.3950 ha        1 APQ      0.144000
     33 HN21       -3.9400   -0.8810   -0.1970 hn        1 APQ      0.408300
     34 HN22       -4.4380    0.1030   -1.4410 hn        1 APQ      0.408300
@<TRIPOS>BOND
     1    1    2 1   
     2    1    4 1   
     3    1   19 1   
     4    1   20 1   
     5    2    3 1   
     6    2   21 1   
     7    2   22 1   
     8    3   23 1   
     9    3   24 1   
    10    3   25 1   
    11    4    5 1   
    12    5    6 1   
    13    5   26 1   
    14    5   27 1   
    15    6    7 ar  
    16    6   17 ar  
    17    7    8 1   
    18    7   13 ar  
    19    8    9 2   
    20    9   10 1   
    21    9   18 1   
    22   10   11 1   
    23   10   28 1   
    24   11   12 2   
    25   11   13 1   
    26   13   14 ar  
    27   14   15 ar  
    28   14   29 1   
    29   15   16 1   
    30   15   17 ar  
    31   16   30 1   
    32   16   31 1   
    33   17   32 1   
    34   18   33 1   
    35   18   34 1   
@<TRIPOS>SUBSTRUCTURE
     1 APQ         1 TEMP              0 ****  ****    0 ROOT
