@<TRIPOS>MOLECULE
APQ
   34    31     1     0     0
SMALL
bcc


@<TRIPOS>ATOM
      1 C10         1.0260    3.0690    1.2750 c3        1 APQ     -0.275000
      2 C11         2.3990    3.5140    0.8500 c3        1 APQ     -0.159000
      3 C12         2.3110    4.8970    0.2000 c3        1 APQ     -0.212000
      4 S1          0.7940    1.3430    0.8440 ss        1 APQ      0.056000
      5 C9         -0.8320    1.1210    0.1910 c3        1 APQ     -0.221000
      6 C2         -1.1930   -0.3900    0.2020 c2        1 APQ     -0.029000
      7 C3         -0.5840   -1.4200   -0.5630 c2        1 APQ      0.047000
      8 N3          0.3760   -1.1140   -1.4770 n1        1 APQ     -0.242000
      9 C8          0.9630   -2.1050   -2.2080 c1        1 APQ      0.205000
     10 N1          0.5810   -3.4260   -2.0220 n2        1 APQ     -0.342000
     11 C7         -0.3620   -3.7300   -1.1250 c1        1 APQ      0.353000
     12 O1         -0.7320   -4.8720   -1.0040 o         1 APQ     -0.350000
     13 C4         -0.9600   -2.7260   -0.3790 c1        1 APQ     -0.145000
     14 C5         -1.9440   -3.0420    0.5630 c1        1 APQ     -0.118000
     15 C6         -2.5410   -2.0260    1.3140 c1        1 APQ      0.027000
     16 N4         -3.5530   -2.3110    2.2900 n2        1 APQ     -0.319000
     17 C1         -2.1560   -0.6980    1.1240 c2        1 APQ     -0.130000
     18 N2          1.9060   -1.7870   -3.1890 n3        1 APQ     -0.318000
     19 H101        0.9410    3.1720    2.1880 h1        1 APQ      0.109000
     20 H102        0.3250    3.6340    0.8040 h1        1 APQ      0.109000
     21 H111        2.9720    3.5600    1.6150 hc        1 APQ      0.089500
     22 H112        2.7650    2.8720    0.2070 hc        1 APQ      0.089500
     23 H121        3.1880    5.1110   -0.2570 hc        1 APQ      0.073667
     24 H122        1.5730    4.9040   -0.4750 hc        1 APQ      0.073667
     25 H123        2.1170    5.6150    0.9350 hc        1 APQ      0.073667
     26 H91        -0.8650    1.4510   -0.7080 h1        1 APQ      0.114500
     27 H92        -1.4690    1.6110    0.7370 h1        1 APQ      0.114500
     28 HN11        0.9960   -4.1260   -2.5390 hn        1 APQ      0.250000
     29 H51        -2.1590   -4.0010    0.7570 ha        1 APQ      0.159000
     30 HN41       -3.8370   -3.1870    2.4230 hn        1 APQ      0.184000
     31 HN42       -3.9160   -1.6080    2.8170 hn        1 APQ      0.184000
     32 H11        -2.5630   -0.0020    1.6430 ha        1 APQ      0.144000
     33 HN21        2.3540   -2.4470   -3.6150 hn        1 APQ      0.204000
     34 HN22        2.0780   -0.8550   -3.4160 hn        1 APQ      0.204000
@<TRIPOS>BOND
     1    1    2 1   
     2    1    4 1   
     3    1   19 1   
     4    1   20 1   
     5    2    3 1   
     6    2   21 1   
     7    2   22 1   
     8    3   23 1   
     9    3   24 1   
    10    3   25 1   
    11    4    5 1   
    12    5    6 1   
    13    5   26 1   
    14    5   27 1   
    15    6    7 1   
    16    6   17 1   
    17    7    8 1   
    18    7   13 1   
    19    9   10 1   
    20    9   18 1   
    21   10   28 1   
    22   11   12 1   
    23   11   13 1   
    24   14   15 1   
    25   14   29 1   
    26   15   17 1   
    27   16   30 1   
    28   16   31 1   
    29   17   32 1   
    30   18   33 1   
    31   18   34 1   
@<TRIPOS>SUBSTRUCTURE
     1 APQ         1 TEMP              0 ****  ****    0 ROOT
