@<TRIPOS>MOLECULE
APQ
   36    37     1     0     0
SMALL
bcc


@<TRIPOS>ATOM
      1 C10        -0.1300   -0.0950    0.0640 c3        1 APQ      0.009700
      2 C11         1.3430    0.1900   -0.0890 c3        1 APQ     -0.075400
      3 C12         2.1250   -0.4090    1.0550 c3        1 APQ     -0.096100
      4 S1         -0.9330    0.6710   -1.3260 ss        1 APQ     -0.310200
      5 C9         -2.6390    0.2420   -1.0880 c3        1 APQ      0.003000
      6 C2         -3.2550    0.1320   -2.4300 ca        1 APQ      0.031700
      7 C3         -3.5320    1.2880   -3.2180 ca        1 APQ      0.209400
      8 N3         -3.2490    2.5630   -2.7090 nc        1 APQ     -0.554100
      9 C8         -3.4700    3.6060   -3.4940 cd        1 APQ      0.572800
     10 N1         -3.9940    3.5780   -4.7850 n         1 APQ     -0.493400
     11 C7         -4.3380    2.3190   -5.3560 c         1 APQ      0.719100
     12 O1         -4.8150    2.3070   -6.4910 o         1 APQ     -0.500500
     13 C4         -4.0780    1.1270   -4.5170 ca        1 APQ     -0.146600
     14 C5         -4.3690   -0.1370   -5.0370 ca        1 APQ     -0.035000
     15 C6         -4.1020   -1.2610   -4.2460 ca        1 APQ     -0.044400
     16 N4         -4.3890   -2.6000   -4.7640 n4        1 APQ     -0.707000
     17 C1         -3.5510   -1.1270   -2.9550 ca        1 APQ     -0.075000
     18 N2         -3.1160    4.9460   -2.9150 n4        1 APQ     -0.805600
     19 H101       -0.3240   -1.1940    0.0680 h1        1 APQ      0.073200
     20 H102       -0.5200    0.3320    1.0190 h1        1 APQ      0.073200
     21 H111        1.5140    1.3000   -0.1190 hc        1 APQ      0.058200
     22 H112        1.7140   -0.2340   -1.0600 hc        1 APQ      0.058200
     23 H121        1.7910    0.0190    2.0310 hc        1 APQ      0.050700
     24 H122        3.2130   -0.1890    0.9260 hc        1 APQ      0.050700
     25 H123        1.9910   -1.5170    1.0900 hc        1 APQ      0.050700
     26 H91        -2.7210   -0.7200   -0.5200 h1        1 APQ      0.099700
     27 H92        -3.1520    1.0280   -0.4750 h1        1 APQ      0.099700
     28 HN11       -4.1370    4.4000   -5.3380 hn        1 APQ      0.374500
     29 H51        -4.7960   -0.2060   -6.0560 ha        1 APQ      0.198000
     30 HN41       -3.5140   -3.1380   -4.8350 hn        1 APQ      0.478467
     31 HN42       -4.8210   -2.5400   -5.6950 hn        1 APQ      0.478467
     32 H11        -3.3340   -2.0180   -2.3370 ha        1 APQ      0.182000
     33 HN21       -3.9590    5.5330   -2.8540 hn        1 APQ      0.496800
     34 HN22       -2.7210    4.8220   -1.9660 hn        1 APQ      0.496800
     35 H43        -5.0320   -3.0890   -4.1270 hn        1 APQ      0.478467
     36 H23        -2.4110    5.4040   -3.5100 hn        1 APQ      0.496800
@<TRIPOS>BOND
     1    1    2 1   
     2    1    4 1   
     3    1   19 1   
     4    1   20 1   
     5    2    3 1   
     6    2   21 1   
     7    2   22 1   
     8    3   23 1   
     9    3   24 1   
    10    3   25 1   
    11    4    5 1   
    12    5    6 1   
    13    5   26 1   
    14    5   27 1   
    15    6    7 ar  
    16    6   17 ar  
    17    7    8 1   
    18    7   13 ar  
    19    8    9 2   
    20    9   10 1   
    21    9   18 1   
    22   10   11 1   
    23   10   28 1   
    24   11   12 2   
    25   11   13 1   
    26   13   14 ar  
    27   14   15 ar  
    28   14   29 1   
    29   15   16 1   
    30   15   17 ar  
    31   16   30 1   
    32   16   31 1   
    33   16   35 1   
    34   17   32 1   
    35   18   33 1   
    36   18   34 1   
    37   18   36 1   
@<TRIPOS>SUBSTRUCTURE
     1 APQ         1 TEMP              0 ****  ****    0 ROOT
