@<TRIPOS>MOLECULE
APQ
   34    35     1     0     0
SMALL
bcc


@<TRIPOS>ATOM
      1 C10        -0.0910    0.0380   -0.0110 c3        1 APQ     -0.012300
      2 C11         1.4070   -0.1220   -0.0710 c3        1 APQ     -0.071400
      3 C12         2.0480    0.2370    1.2460 c3        1 APQ     -0.092100
      4 S1         -0.7380   -0.4140   -1.5940 ss        1 APQ     -0.301200
      5 C9         -2.4820   -0.1580   -1.3460 c3        1 APQ      0.045000
      6 C2         -3.1300   -0.0670   -2.6750 ca        1 APQ     -0.035300
      7 C3         -3.4510    1.1900   -3.2660 ca        1 APQ      0.184400
      8 N3         -3.1520    2.3800   -2.6030 nc        1 APQ     -0.669100
      9 C8         -3.4810    3.5380   -3.1860 cd        1 APQ      0.650800
     10 N1         -4.0720    3.6280   -4.4680 ns        1 APQ     -0.502400
     11 C7         -4.4170    2.4660   -5.1760 c         1 APQ      0.716100
     12 O1         -4.9770    2.5950   -6.2790 o         1 APQ     -0.625500
     13 C4         -4.0730    1.1800   -4.5410 ca        1 APQ     -0.163600
     14 C5         -4.3720   -0.0080   -5.2100 ca        1 APQ     -0.120000
     15 C6         -4.0520   -1.2440   -4.6240 ca        1 APQ      0.111600
     16 N4         -4.2550   -2.4440   -5.3160 nv        1 APQ     -0.812200
     17 C1         -3.4350   -1.2440   -3.3470 ca        1 APQ     -0.134000
     18 N2         -3.2940    4.7580   -2.4810 nv        1 APQ     -0.879800
     19 H101       -0.3630    1.0940    0.2320 h1        1 APQ      0.057200
     20 H102       -0.5230   -0.6140    0.7860 h1        1 APQ      0.057200
     21 H111        1.6620   -1.1830   -0.3360 hc        1 APQ      0.054700
     22 H112        1.8230    0.5320   -0.8830 hc        1 APQ      0.054700
     23 H121        1.8270    1.2980    1.5170 hc        1 APQ      0.034700
     24 H122        1.6660   -0.4210    2.0640 hc        1 APQ      0.034700
     25 H123        3.1560    0.1130    1.1810 hc        1 APQ      0.034700
     26 H91        -2.6500    0.7580   -0.7290 h1        1 APQ      0.073700
     27 H92        -2.8970   -1.0270   -0.7740 h1        1 APQ      0.073700
     28 HN11       -4.3430    4.5090   -4.8440 hn        1 APQ      0.336500
     29 H51        -4.8520    0.0510   -6.2010 ha        1 APQ      0.160000
     30 HN41       -4.3430   -3.2440   -4.7290 hn        1 APQ      0.389800
     31 HN42       -4.9600   -2.3940   -6.0180 hn        1 APQ      0.389800
     32 H11        -3.1730   -2.2040   -2.8730 ha        1 APQ      0.143000
     33 HN21       -2.8070    4.6440   -1.6150 hn        1 APQ      0.408300
     34 HN22       -2.9160    5.4930   -3.0400 hn        1 APQ      0.408300
@<TRIPOS>BOND
     1    1    2 1   
     2    1    4 1   
     3    1   19 1   
     4    1   20 1   
     5    2    3 1   
     6    2   21 1   
     7    2   22 1   
     8    3   23 1   
     9    3   24 1   
    10    3   25 1   
    11    4    5 1   
    12    5    6 1   
    13    5   26 1   
    14    5   27 1   
    15    6    7 ar  
    16    6   17 ar  
    17    7    8 1   
    18    7   13 ar  
    19    8    9 2   
    20    9   10 1   
    21    9   18 1   
    22   10   11 1   
    23   10   28 1   
    24   11   12 2   
    25   11   13 1   
    26   13   14 ar  
    27   14   15 ar  
    28   14   29 1   
    29   15   16 1   
    30   15   17 ar  
    31   16   30 1   
    32   16   31 1   
    33   17   32 1   
    34   18   33 1   
    35   18   34 1   
@<TRIPOS>SUBSTRUCTURE
     1 APQ         1 TEMP              0 ****  ****    0 ROOT
