@<TRIPOS>MOLECULE
APS
   26    27     1     0     0
SMALL
bcc


@<TRIPOS>ATOM
      1 C7          0.0600    0.0330   -0.0250 c3        1 APS     -0.008700
      2 C8          1.6080    0.0920   -0.0230 c3        1 APS      0.125100
      3 O1          2.1000    0.2130    1.2960 oh        1 APS     -0.590800
      4 C9          2.1440   -1.1340   -0.7350 c3        1 APS     -0.137100
      5 C4         -0.7450    1.2560    2.0400 ca        1 APS      0.467800
      6 C3         -1.2570    2.6340    2.2350 ca        1 APS     -0.137200
      7 C2         -1.5200    2.9970    3.5670 ca        1 APS      0.520200
      8 N2         -1.3200    2.1420    4.6000 nb        1 APS     -0.680000
      9 C1         -0.8500    0.9000    4.2850 ca        1 APS      0.673900
     10 N5         -2.0230    4.3570    3.8370 n4        1 APS     -0.815300
     11 N4         -0.5800    1.1310    0.6510 na        1 APS     -0.229000
     12 N3         -1.3630    3.2840    1.0040 nc        1 APS     -0.585100
     13 C6         -0.9410    2.3780    0.0990 cd        1 APS      0.502700
     14 N1         -0.5460    0.3900    3.0630 nb        1 APS     -0.615000
     15 H72        -0.2990    0.0270   -1.0930 h1        1 APS      0.091200
     16 H71        -0.2710   -0.9200    0.4800 h1        1 APS      0.091200
     17 H8          1.9610    1.0340   -0.5350 h1        1 APS      0.086700
     18 H1          2.0500   -0.6560    1.7150 ho        1 APS      0.416000
     19 H93         1.8140   -1.1410   -1.8010 hc        1 APS      0.062367
     20 H92         1.7880   -2.0700   -0.2400 hc        1 APS      0.062367
     21 H91         3.2610   -1.1200   -0.7040 hc        1 APS      0.062367
     22 H52        -2.8660    4.5110    3.2690 hn        1 APS      0.477800
     23 H51        -1.3000    5.0320    3.5570 hn        1 APS      0.477800
     24 H6         -0.8940    2.5590   -0.9890 h5        1 APS      0.106800
     25 H53        -2.2460    4.4820    4.8330 hn        1 APS      0.477800
     26 H1C1       -0.6940    0.2180    5.1540 h5        1 APS      0.099100
@<TRIPOS>BOND
     1    1    2 1   
     2    1   11 1   
     3    1   15 1   
     4    1   16 1   
     5    2    3 1   
     6    2    4 1   
     7    2   17 1   
     8    3   18 1   
     9    4   19 1   
    10    4   20 1   
    11    4   21 1   
    12    5    6 ar  
    13    5   11 1   
    14    5   14 ar  
    15    6    7 ar  
    16    6   12 1   
    17    7    8 ar  
    18    7   10 1   
    19    8    9 ar  
    20    9   14 ar  
    21    9   26 1   
    22   10   22 1   
    23   10   23 1   
    24   10   25 1   
    25   11   13 1   
    26   12   13 2   
    27   13   24 1   
@<TRIPOS>SUBSTRUCTURE
     1 APS         1 TEMP              0 ****  ****    0 ROOT
