@<TRIPOS>MOLECULE
APS
   25    26     1     0     0
SMALL
bcc


@<TRIPOS>ATOM
      1 C7          0.1690   -0.1400    0.3710 c3        1 APS      0.048300
      2 C8          1.6020    0.0320   -0.1800 c3        1 APS      0.121100
      3 O1          2.4580    0.0990    0.9500 oh        1 APS     -0.586800
      4 C9          1.9520   -1.1510   -1.0650 c3        1 APS     -0.134100
      5 C4         -0.8060    1.2420    2.2630 ca        1 APS      0.469800
      6 C3         -1.2230    2.6390    2.3340 ca        1 APS     -0.235200
      7 C2         -1.7080    3.1150    3.5980 ca        1 APS      0.760200
      8 N2         -1.7420    2.2480    4.6650 nb        1 APS     -0.797000
      9 C1         -1.3280    0.9700    4.4480 ca        1 APS      0.686900
     10 N5         -2.1590    4.4050    3.7230 nh        1 APS     -0.958500
     11 N4         -0.4070    1.0420    0.9320 na        1 APS     -0.256000
     12 N3         -1.0570    3.2550    1.0850 nc        1 APS     -0.542100
     13 C6         -0.5680    2.2950    0.2870 cd        1 APS      0.397700
     14 N1         -0.8600    0.3810    3.3240 nb        1 APS     -0.730000
     15 H72        -0.4860   -0.4790   -0.4840 h1        1 APS      0.081200
     16 H71         0.1890   -0.9430    1.1630 h1        1 APS      0.081200
     17 H8          1.6890    0.9880   -0.7700 h1        1 APS      0.035700
     18 H1          3.3620    0.1480    0.6160 ho        1 APS      0.403000
     19 H93         3.0020   -1.0560   -1.4310 hc        1 APS      0.048367
     20 H92         1.8630   -2.1050   -0.4920 hc        1 APS      0.048367
     21 H91         1.2690   -1.1920   -1.9470 hc        1 APS      0.048367
     22 H52        -2.4080    4.7630    4.6120 hn        1 APS      0.445300
     23 H51        -2.0130    5.0300    2.9700 hn        1 APS      0.445300
     24 H6         -0.3190    2.4210   -0.7730 h5        1 APS      0.068800
     25 H1C1       -1.3820    0.3100    5.3410 h5        1 APS      0.051100
@<TRIPOS>BOND
     1    1    2 1   
     2    1   11 1   
     3    1   15 1   
     4    1   16 1   
     5    2    3 1   
     6    2    4 1   
     7    2   17 1   
     8    3   18 1   
     9    4   19 1   
    10    4   20 1   
    11    4   21 1   
    12    5    6 ar  
    13    5   11 1   
    14    5   14 ar  
    15    6    7 ar  
    16    6   12 1   
    17    7    8 ar  
    18    7   10 1   
    19    8    9 ar  
    20    9   14 ar  
    21    9   25 1   
    22   10   22 1   
    23   10   23 1   
    24   11   13 1   
    25   12   13 2   
    26   13   24 1   
@<TRIPOS>SUBSTRUCTURE
     1 APS         1 TEMP              0 ****  ****    0 ROOT
