@<TRIPOS>MOLECULE
APS
   25    26     1     0     0
SMALL
bcc


@<TRIPOS>ATOM
      1 C7          0.4420   -0.7810    2.1480 c3        1 APS      0.010300
      2 C8          0.0800    0.4610    2.9930 c3        1 APS      0.121100
      3 O1         -0.9520    1.2280    2.4060 oh        1 APS     -0.584800
      4 C9         -0.3030    0.0060    4.3900 c3        1 APS     -0.131100
      5 C4         -0.1490   -0.3970   -0.2800 ca        1 APS      0.465800
      6 C3          0.6520    0.0010   -1.4320 ca        1 APS     -0.232200
      7 C2         -0.0370    0.1750   -2.6790 ca        1 APS      0.763200
      8 N2         -1.3980   -0.0240   -2.7170 nb        1 APS     -0.796000
      9 C1         -2.0130   -0.3920   -1.5620 ca        1 APS      0.689900
     10 N5          0.6590    0.5040   -3.8130 nh        1 APS     -0.956500
     11 N4          0.7630   -0.5230    0.7800 na        1 APS     -0.259000
     12 N3          1.9970    0.1360   -1.0580 nc        1 APS     -0.540100
     13 C6          2.0280   -0.1620    0.2490 cd        1 APS      0.404700
     14 N1         -1.5000   -0.6010   -0.3260 nb        1 APS     -0.746000
     15 H72         1.3300   -1.2820    2.6290 h1        1 APS      0.071700
     16 H71        -0.4320   -1.4960    2.1700 h1        1 APS      0.071700
     17 H8          0.9530    1.1730    3.0370 h1        1 APS      0.079700
     18 H1         -1.6940    0.6370    2.2250 ho        1 APS      0.412000
     19 H93        -0.5900    0.8930    5.0040 hc        1 APS      0.048033
     20 H92        -1.1720   -0.6930    4.3530 hc        1 APS      0.048033
     21 H91         0.5560   -0.5100    4.8780 hc        1 APS      0.048033
     22 H52         0.1790    0.7080   -4.6540 hn        1 APS      0.446800
     23 H51         1.6160    0.7440   -3.7270 hn        1 APS      0.446800
     24 H6          2.9250   -0.1620    0.8780 h5        1 APS      0.070800
     25 H1C1       -3.1110   -0.5390   -1.6510 h5        1 APS      0.050100
@<TRIPOS>BOND
     1    1    2 1   
     2    1   11 1   
     3    1   15 1   
     4    1   16 1   
     5    2    3 1   
     6    2    4 1   
     7    2   17 1   
     8    3   18 1   
     9    4   19 1   
    10    4   20 1   
    11    4   21 1   
    12    5    6 ar  
    13    5   11 1   
    14    5   14 ar  
    15    6    7 ar  
    16    6   12 1   
    17    7    8 ar  
    18    7   10 1   
    19    8    9 ar  
    20    9   14 ar  
    21    9   25 1   
    22   10   22 1   
    23   10   23 1   
    24   11   13 1   
    25   12   13 2   
    26   13   24 1   
@<TRIPOS>SUBSTRUCTURE
     1 APS         1 TEMP              0 ****  ****    0 ROOT
