@<TRIPOS>MOLECULE
APS
   25    20     1     0     0
SMALL
bcc


@<TRIPOS>ATOM
      1 C7          0.3300   -1.3260   -1.0000 c3        1 APS      0.192800
      2 C8          1.7910   -1.1350   -1.4060 c3        1 APS      0.121100
      3 O1          2.5310   -0.7660   -0.2950 oh        1 APS     -0.586800
      4 C9          2.3420   -2.4420   -1.9750 c3        1 APS     -0.134100
      5 C4         -0.7190    0.2230    0.6510 c1        1 APS     -0.083000
      6 C3         -1.3440    1.4060    0.5990 c1        1 APS     -0.083000
      7 C2         -1.9250    1.9340    1.7370 c1        1 APS      0.620600
      8 N2         -1.8640    1.2600    2.9010 n1        1 APS     -0.596800
      9 C1         -1.2240    0.0470    2.9610 c1        1 APS      0.407300
     10 N5         -2.5450    3.2070    1.9730 n3        1 APS     -0.821400
     11 N4         -0.2310   -0.0560   -0.6120 n2        1 APS     -0.518600
     12 N3         -1.2540    1.8740   -0.6800 n1        1 APS     -0.115000
     13 C6         -0.5660    0.9640   -1.4190 c1        1 APS      0.162400
     14 N1         -0.6560   -0.4720    1.8520 n1        1 APS     -0.529800
     15 H72        -0.1900   -1.6950   -1.7760 h1        1 APS      0.081200
     16 H71         0.2800   -1.9530   -0.2420 h1        1 APS      0.081200
     17 H8          1.8550   -0.3670   -2.1530 h1        1 APS      0.035700
     18 H1          3.1710   -0.2040   -0.5380 ho        1 APS      0.403000
     19 H93         2.5660   -3.1060   -1.1860 hc        1 APS      0.048367
     20 H92         3.1200   -2.2660   -2.4640 hc        1 APS      0.048367
     21 H91         1.6810   -2.8430   -2.5570 hc        1 APS      0.048367
     22 H1C1       -1.1810   -0.4450    3.8150 ha        1 APS      0.130500
     23 H52        -3.1150    3.5170    1.4100 hn        1 APS      0.445300
     24 H51        -2.3780    3.6710    2.7800 hn        1 APS      0.445300
     25 H6         -0.4760    0.9730   -2.3760 DU        1 APS      0.198000
@<TRIPOS>BOND
     1    1    2 1   
     2    1   11 1   
     3    1   15 1   
     4    1   16 1   
     5    2    3 1   
     6    2    4 1   
     7    2   17 1   
     8    3   18 1   
     9    4   19 1   
    10    4   20 1   
    11    4   21 1   
    12    5    6 1   
    13    7    8 3   
    14    7   10 1   
    15    9   14 3   
    16    9   22 1   
    17   10   23 1   
    18   10   24 1   
    19   11   13 2   
    20   12   13 2   
@<TRIPOS>SUBSTRUCTURE
     1 APS         1 TEMP              0 ****  ****    0 ROOT
