@<TRIPOS>MOLECULE
APS
   25    26     1     0     0
SMALL
bcc


@<TRIPOS>ATOM
      1 C7          0.1700   -0.1440    0.3740 c3        1 APS      0.048300
      2 C8          1.5940    0.0400   -0.1980 c3        1 APS      0.121100
      3 O1          2.4650    0.1260    0.9200 oh        1 APS     -0.586800
      4 C9          1.9460   -1.1440   -1.0790 c3        1 APS     -0.134100
      5 C4         -0.7950    1.2400    2.2700 ca        1 APS      0.469800
      6 C3         -1.2260    2.6320    2.3380 ca        1 APS     -0.235200
      7 C2         -1.6990    3.1120    3.6060 ca        1 APS      0.760200
      8 N2         -1.7090    2.2510    4.6780 nb        1 APS     -0.797000
      9 C1         -1.2830    0.9770    4.4640 ca        1 APS      0.686900
     10 N5         -2.1630    4.3970    3.7280 nv        1 APS     -0.958500
     11 N4         -0.4120    1.0350    0.9350 na        1 APS     -0.256000
     12 N3         -1.0840    3.2410    1.0830 nc        1 APS     -0.542100
     13 C6         -0.5960    2.2820    0.2840 cd        1 APS      0.397700
     14 N1         -0.8240    0.3850    3.3370 nb        1 APS     -0.730000
     15 H72         0.2110   -0.9410    1.1710 h1        1 APS      0.081200
     16 H71        -0.4920   -0.4960   -0.4690 h1        1 APS      0.081200
     17 H8          1.6610    0.9940   -0.7960 h1        1 APS      0.035700
     18 H1          3.3630    0.1840    0.5730 ho        1 APS      0.403000
     19 H93         1.2510   -1.2000   -1.9500 hc        1 APS      0.048367
     20 H92         1.8770   -2.0950   -0.4980 hc        1 APS      0.048367
     21 H91         2.9900   -1.0390   -1.4610 hc        1 APS      0.048367
     22 H52        -2.4030    4.7580    4.6170 hn        1 APS      0.445300
     23 H51        -2.0340    5.0190    2.9690 hn        1 APS      0.445300
     24 H6         -0.3620    2.4030   -0.7800 h5        1 APS      0.068800
     25 H1C1       -1.3170    0.3230    5.3620 h5        1 APS      0.051100
@<TRIPOS>BOND
     1    1    2 1   
     2    1   11 1   
     3    1   15 1   
     4    1   16 1   
     5    2    3 1   
     6    2    4 1   
     7    2   17 1   
     8    3   18 1   
     9    4   19 1   
    10    4   20 1   
    11    4   21 1   
    12    5    6 ar  
    13    5   11 1   
    14    5   14 ar  
    15    6    7 ar  
    16    6   12 1   
    17    7    8 ar  
    18    7   10 1   
    19    8    9 ar  
    20    9   14 ar  
    21    9   25 1   
    22   10   22 1   
    23   10   23 1   
    24   11   13 1   
    25   12   13 2   
    26   13   24 1   
@<TRIPOS>SUBSTRUCTURE
     1 APS         1 TEMP              0 ****  ****    0 ROOT
