@<TRIPOS>MOLECULE
APT
   35    36     1     0     0
SMALL
bcc


@<TRIPOS>ATOM
      1 C8         -0.1920   -0.4760    0.5190 c2        1 APT     -0.070100
      2 N9          3.4510   -0.9690    0.4300 n1        1 APT     -0.484500
      3 C9          3.5760   -0.0070    1.4230 ca        1 APT      0.106400
      4 N3          4.8480    0.5580    1.6440 na        1 APT     -0.386900
      5 C10         5.4310    0.5160    2.9210 ca        1 APT      0.672000
      6 N2          6.7530    0.9740    3.0670 nh        1 APT     -0.504900
      7 N1          4.7400    0.1420    4.0210 nb        1 APT     -0.865000
      8 C11         3.3860   -0.1200    3.8700 ca        1 APT      0.724600
      9 O6          2.6720   -0.3210    5.0210 oh        1 APT     -0.581300
     10 C12         2.7310   -0.1780    2.6330 ca        1 APT     -0.100900
     11 N7          1.3500   -0.3670    2.5600 ne        1 APT     -0.353800
     12 C13         0.6700   -0.4370    1.5220 c1        1 APT      0.160500
     13 C14         3.1260   -1.3710   -0.6300 c1        1 APT      0.159300
     14 N4         -0.5420   -1.6510   -0.1640 nh        1 APT     -0.600800
     15 C1         -2.2250   -3.1020   -1.0610 ce        1 APT     -0.277000
     16 C2         -3.4490   -3.4590   -1.7100 ce        1 APT      0.010000
     17 C3         -4.4030   -2.6580   -2.1560 cd        1 APT     -0.112100
     18 C4         -3.1860    0.0630    0.1350 c2        1 APT     -0.175000
     19 C5         -2.7070   -0.6830   -0.8590 cf        1 APT     -0.165000
     20 C6         -1.8270   -1.8490   -0.6690 cf        1 APT      0.205000
     21 O2         -5.7300   -0.5100   -2.7260 o         1 APT     -0.510500
     22 O3         -5.6570   -2.8960   -2.8290 os        1 APT     -0.374200
     23 H82        -2.9760   -0.4880   -1.9130 ha        1 APT      0.147000
     24 H81        -0.6700    0.4520    0.1540 h4        1 APT      0.177000
     25 H3          5.3200    0.9820    0.8810 hn        1 APT      0.298700
     26 H21         7.3700    0.7920    2.3090 hn        1 APT      0.271700
     27 H22         7.1490    0.8600    3.9740 hn        1 APT      0.271700
     28 HO6         3.2530   -0.1910    5.7900 ho        1 APT      0.439000
     29 H9          2.7400   -1.5160   -1.6130 ha        1 APT      0.213500
     30 HN4        -0.0720   -2.4810    0.1380 hn        1 APT      0.419800
     31 H1         -1.5580   -3.9640   -0.8760 ha        1 APT      0.132000
     32 H2         -3.6000   -4.5480   -1.8610 ha        1 APT      0.150000
     33 H4         -2.9400   -0.1150    1.1910 ha        1 APT      0.127000
     34 H5         -3.8700    0.9030   -0.0530 ha        1 APT      0.127000
     35 C7         -5.2490   -1.6000   -2.5340 c         1 APT      0.750800
@<TRIPOS>BOND
     1    1   12 2   
     2    1   14 1   
     3    1   24 1   
     4    2    3 1   
     5    2   13 3   
     6    3    4 1   
     7    3   10 ar  
     8    4    5 2   
     9    4   25 1   
    10    5    6 1   
    11    5    7 ar  
    12    6   26 1   
    13    6   27 1   
    14    7    8 ar  
    15    8    9 1   
    16    8   10 ar  
    17    9   28 1   
    18   10   11 1   
    19   11   12 2   
    20   13   29 1   
    21   14   20 1   
    22   14   30 1   
    23   15   16 1   
    24   15   20 2   
    25   15   31 1   
    26   16   17 2   
    27   16   32 1   
    28   17   22 1   
    29   17   35 1   
    30   18   19 2   
    31   18   33 1   
    32   18   34 1   
    33   19   20 1   
    34   19   23 1   
    35   21   35 2   
    36   22   35 1   
@<TRIPOS>SUBSTRUCTURE
     1 APT         1 TEMP              0 ****  ****    0 ROOT
