@<TRIPOS>MOLECULE
APT
   35    36     1     0     0
SMALL
bcc


@<TRIPOS>ATOM
      1 C8         -0.1660   -0.1240    0.0650 c2        1 APT      0.073000
      2 N9          3.9140    0.6750   -0.2160 n1        1 APT     -0.845400
      3 C9          4.0390    0.3760    1.1210 cc        1 APT      0.186300
      4 N3          5.2150    0.7020    1.7650 na        1 APT     -0.166200
      5 C10         5.5180    0.1710    2.9940 cc        1 APT      0.308800
      6 N2          6.7080    0.6540    3.6360 nv        1 APT     -0.434100
      7 N1          4.6970   -0.7740    3.5970 nc        1 APT     -0.748000
      8 C11         3.5320   -1.0560    3.0300 cc        1 APT      0.583300
      9 O6          2.7650   -2.0690    3.5340 oh        1 APT     -0.538600
     10 C12         2.9700   -0.3570    1.8320 cc        1 APT      0.369700
     11 N7          1.7020   -0.4320    1.5730 nf        1 APT     -0.608300
     12 C13         1.0400    0.2690    0.5770 cf        1 APT     -0.040400
     13 C14         3.7790    0.9090   -1.3690 c1        1 APT      0.461800
     14 N4         -0.8460   -1.2780    0.4040 nu        1 APT     -0.618800
     15 C1         -2.4560   -3.0000   -0.0030 ce        1 APT     -0.271000
     16 C2         -3.6270   -3.6090   -0.5530 ce        1 APT      0.007000
     17 C3         -4.5130   -3.0810   -1.3830 cd        1 APT     -0.111100
     18 C4         -3.1650    0.3740   -0.8360 c2        1 APT     -0.175000
     19 C5         -2.6990   -0.8300   -1.1660 cf        1 APT     -0.168000
     20 C6         -1.9920   -1.7300   -0.2400 cf        1 APT      0.212000
     21 O2         -5.7340   -1.3890   -2.9140 o         1 APT     -0.509500
     22 O3         -5.7110   -3.5960   -2.0010 os        1 APT     -0.372200
     23 H82        -2.8540   -1.2550   -2.1740 ha        1 APT      0.148000
     24 H81        -0.6600    0.5200   -0.6900 h4        1 APT      0.156000
     25 H3          5.8890    1.2920    1.3100 hn        1 APT      0.316700
     26 H21         7.3960   -0.0770    3.6640 hn        1 APT      0.231700
     27 H22         6.4960    0.9570    4.5690 hn        1 APT      0.231700
     28 HO6         3.2130   -2.4700    4.3010 ho        1 APT      0.440000
     29 H9          1.4390    1.2380    0.2210 h4        1 APT      0.132000
     30 HN4        -0.4200   -1.8970    1.0620 hn        1 APT      0.456800
     31 H1         -1.8980   -3.6590    0.6870 ha        1 APT      0.137000
     32 H2         -3.8000   -4.6600   -0.2410 ha        1 APT      0.151000
     33 H4         -3.0380    0.8130    0.1640 ha        1 APT      0.127500
     34 H5         -3.7220    0.9930   -1.5530 ha        1 APT      0.127500
     35 C7         -5.2970   -2.2900   -2.2420 c         1 APT      0.750800
@<TRIPOS>BOND
     1    1   12 2   
     2    1   14 1   
     3    1   24 1   
     4    2    3 1   
     5    2   13 3   
     6    3    4 2   
     7    3   10 1   
     8    4    5 1   
     9    4   25 1   
    10    5    6 2   
    11    5    7 1   
    12    6   26 1   
    13    6   27 1   
    14    7    8 2   
    15    8    9 1   
    16    8   10 1   
    17    9   28 1   
    18   10   11 2   
    19   11   12 1   
    20   12   29 1   
    21   14   20 1   
    22   14   30 1   
    23   15   16 1   
    24   15   20 2   
    25   15   31 1   
    26   16   17 2   
    27   16   32 1   
    28   17   22 1   
    29   17   35 1   
    30   18   19 2   
    31   18   33 1   
    32   18   34 1   
    33   19   20 1   
    34   19   23 1   
    35   21   35 2   
    36   22   35 1   
@<TRIPOS>SUBSTRUCTURE
     1 APT         1 TEMP              0 ****  ****    0 ROOT
