@<TRIPOS>MOLECULE
APT
   35    36     1     0     0
SMALL
bcc


@<TRIPOS>ATOM
      1 C8          0.0690   -0.4220   -0.2630 c2        1 APT      0.150000
      2 N9          4.7550    0.2440   -0.0390 n1        1 APT     -0.855300
      3 C9          4.0710    0.6490    1.1480 c3        1 APT      0.427700
      4 N3          4.9430    1.1990    2.1720 n2        1 APT     -0.723900
      5 C10         5.2160    0.4620    3.2440 ce        1 APT      0.852200
      6 N2          5.9400    1.0250    4.3060 nh        1 APT     -0.882800
      7 N1          4.7670   -0.8920    3.4670 ne        1 APT     -0.814000
      8 C11         3.7990   -1.3190    2.6960 cf        1 APT      0.647300
      9 O6          3.3290   -2.5950    2.8280 oh        1 APT     -0.554600
     10 C12         3.1530   -0.5150    1.6130 cf        1 APT      0.263000
     11 N7          1.9740   -0.8050    1.1740 ne        1 APT     -0.493300
     12 C13         1.3370   -0.1050    0.1630 ce        1 APT     -0.114400
     13 C14         5.3450   -0.0560   -1.0170 c1        1 APT      0.448800
     14 N4         -0.7240   -1.4160    0.2470 nh        1 APT     -0.616800
     15 C1         -2.5610   -2.9450    0.0880 ce        1 APT     -0.226000
     16 C2         -3.8460   -3.4350   -0.3140 ce        1 APT     -0.014000
     17 C3         -4.7720   -2.8080   -1.0200 cd        1 APT     -0.088100
     18 C4         -2.8850    0.4650   -0.9050 c2        1 APT     -0.170000
     19 C5         -2.6560   -0.8190   -1.1770 cf        1 APT     -0.174000
     20 C6         -1.9820   -1.7560   -0.2670 cf        1 APT      0.186000
     21 O2         -6.0010   -0.9680   -2.3660 o         1 APT     -0.497500
     22 O3         -6.0810   -3.1870   -1.4820 os        1 APT     -0.362200
     23 H82        -3.0060   -1.2810   -2.1180 ha        1 APT      0.149000
     24 H81        -0.3730    0.1760   -1.0870 h4        1 APT      0.162000
     25 H3          3.4050    1.5300    0.8570 h2        1 APT      0.093700
     26 H21         6.4950    1.8190    4.0780 hn        1 APT      0.424300
     27 H22         6.3510    0.3830    4.9440 hn        1 APT      0.424300
     28 HO6         3.8120   -3.0580    3.5370 ho        1 APT      0.446000
     29 H9          1.8430    0.7330   -0.3520 h4        1 APT      0.140000
     30 HN4        -0.3380   -2.0290    0.9360 hn        1 APT      0.461800
     31 H1         -2.0170   -3.6370    0.7580 ha        1 APT      0.142000
     32 H2         -4.0790   -4.4690    0.0170 ha        1 APT      0.158000
     33 H4         -2.5660    0.9470    0.0300 ha        1 APT      0.130000
     34 H5         -3.4280    1.1150   -1.6060 ha        1 APT      0.130000
     35 C7         -5.5770   -1.9220   -1.7650 c         1 APT      0.748800
@<TRIPOS>BOND
     1    1   12 2   
     2    1   14 1   
     3    1   24 1   
     4    2    3 1   
     5    2   13 3   
     6    3    4 1   
     7    3   10 1   
     8    3   25 1   
     9    4    5 2   
    10    5    6 1   
    11    5    7 1   
    12    6   26 1   
    13    6   27 1   
    14    7    8 2   
    15    8    9 1   
    16    8   10 1   
    17    9   28 1   
    18   10   11 2   
    19   11   12 1   
    20   12   29 1   
    21   14   20 1   
    22   14   30 1   
    23   15   16 1   
    24   15   20 2   
    25   15   31 1   
    26   16   17 2   
    27   16   32 1   
    28   17   22 1   
    29   17   35 1   
    30   18   19 2   
    31   18   33 1   
    32   18   34 1   
    33   19   20 1   
    34   19   23 1   
    35   21   35 2   
    36   22   35 1   
@<TRIPOS>SUBSTRUCTURE
     1 APT         1 TEMP              0 ****  ****    0 ROOT
