@<TRIPOS>MOLECULE
APT
   35    30     1     0     0
SMALL
bcc


@<TRIPOS>ATOM
      1 C8         -0.8300    0.7320    0.4050 c3        1 APT     -0.013000
      2 N9          2.2700    0.6680    2.5450 n1        1 APT     -0.105000
      3 C9          3.2150    0.8550    1.5570 c1        1 APT      0.128000
      4 N3          4.5450    0.9810    1.8840 n2        1 APT     -0.211000
      5 C10         5.4930    1.1680    0.8870 c1        1 APT      0.317000
      6 N2          6.9270    1.3400    1.0230 n3        1 APT     -0.248000
      7 N1          5.1120    1.2280   -0.4160 n1        1 APT     -0.223000
      8 C11         3.8010    1.1040   -0.7480 c1        1 APT      0.288000
      9 O6          4.0150    1.4540   -2.0680 oh        1 APT     -0.182000
     10 C12         2.8330    0.9140    0.2600 c1        1 APT     -0.210000
     11 N7          1.5010    0.7870   -0.0720 n1        1 APT     -0.060000
     12 C13         0.5770    0.6040    0.8960 c2        1 APT     -0.091000
     13 C14         0.9630    0.5430    2.2150 c2        1 APT     -0.012000
     14 N4         -1.2800   -0.5310   -0.0930 n3        1 APT     -0.241000
     15 C1         -2.7450   -1.5490   -1.3960 c1        1 APT     -0.174000
     16 C2         -3.9560   -1.9510   -1.9270 c1        1 APT     -0.090000
     17 C3         -5.1360   -1.5920   -1.3080 c1        1 APT     -0.135000
     18 C4         -5.1080   -0.8250   -0.1490 c1        1 APT     -0.137000
     19 C5         -3.8990   -0.4240    0.3810 c1        1 APT     -0.137000
     20 C6         -2.7150   -0.7860   -0.2420 c1        1 APT     -0.016000
     21 C7         -6.4610   -1.9740   -1.9280 c2        1 APT      0.346000
     22 O2         -7.0740   -1.1480   -2.6640 o         1 APT     -0.583500
     23 O3         -7.0230   -3.1070   -1.6140 o         1 APT     -0.583500
     24 H82        -0.8630    1.3720   -0.2860 h1        1 APT      0.110000
     25 H81        -1.3960    1.0100    1.1270 h1        1 APT      0.110000
     26 H3          4.8080    0.9300    2.7630 hn        1 APT      0.332000
     27 H21         7.4420    1.5650    0.2800 hn        1 APT      0.297000
     28 H22         7.3150    1.2300    1.8210 hn        1 APT      0.297000
     29 HO6         3.7000    0.8140   -2.6010 ho        1 APT      0.269000
     30 H9          0.2920    0.4590    2.9140 h4        1 APT      0.197000
     31 HN4        -0.6870   -1.1860   -0.2630 hn        1 APT      0.174000
     32 H1         -1.8830   -1.8130   -1.8500 ha        1 APT      0.134000
     33 H2         -3.9770   -2.4890   -2.7390 ha        1 APT      0.160000
     34 H4         -5.8980   -0.5010    0.2090 ha        1 APT      0.146000
     35 H5         -3.8770    0.1170    1.1970 ha        1 APT      0.146000
@<TRIPOS>BOND
     1    1   12 1   
     2    1   14 1   
     3    1   24 1   
     4    1   25 1   
     5    2   13 1   
     6    3    4 1   
     7    3   10 1   
     8    4   26 1   
     9    5    6 1   
    10    5    7 1   
    11    6   27 1   
    12    6   28 1   
    13    8    9 1   
    14    8   10 1   
    15    9   29 1   
    16   11   12 1   
    17   12   13 1   
    18   13   30 1   
    19   14   20 1   
    20   14   31 1   
    21   15   20 1   
    22   15   32 1   
    23   16   17 1   
    24   16   33 1   
    25   17   21 1   
    26   18   19 1   
    27   18   34 1   
    28   19   35 1   
    29   21   22 1   
    30   21   23 1   
@<TRIPOS>SUBSTRUCTURE
     1 APT         1 TEMP              0 ****  ****    0 ROOT
