@<TRIPOS>MOLECULE
APT
   35    37     1     0     0
SMALL
bcc


@<TRIPOS>ATOM
      1 C8         -0.6720    2.8640    1.4320 c3        1 APT      0.129500
      2 N9          1.1470   -0.3150    2.1960 nb        1 APT     -0.631000
      3 C9          1.7150   -0.5040    0.9420 ca        1 APT      0.479500
      4 N3          2.0340   -1.7920    0.5020 na        1 APT     -0.437700
      5 C10         2.4370   -1.9450   -0.8400 ca        1 APT      0.732000
      6 N2          2.3930   -3.1790   -1.4060 nh        1 APT     -0.410900
      7 N1          2.9850   -0.8670   -1.5710 nb        1 APT     -0.749000
      8 C11         2.7250    0.3610   -1.1280 ca        1 APT      0.721300
      9 O6          3.2480    1.3660   -1.8750 oh        1 APT     -0.553300
     10 C12         1.9180    0.6220    0.0710 ca        1 APT      0.053000
     11 N7          1.2520    1.8010    0.2700 nb        1 APT     -0.586000
     12 C13         0.4760    1.8730    1.3540 ca        1 APT      0.266300
     13 C14         0.5490    0.8520    2.3830 ca        1 APT      0.387900
     14 N4         -1.7810    2.5270    0.5480 nh        1 APT     -0.685600
     15 C1         -1.9410    0.1190    1.0530 ca        1 APT     -0.179500
     16 C2         -1.6850   -1.1970    0.6760 ca        1 APT     -0.089500
     17 C3         -1.2910   -1.4960   -0.6310 ca        1 APT     -0.155600
     18 C4         -1.3740   -0.4950   -1.6070 ca        1 APT     -0.089500
     19 C5         -1.6200    0.8250   -1.2440 ca        1 APT     -0.179500
     20 C6         -1.7970    1.1650    0.1160 ca        1 APT      0.065600
     21 O2         -0.0620   -3.4550    0.0000 o         1 APT     -0.848800
     22 O3         -0.3620   -3.1040   -2.1550 o         1 APT     -0.848800
     23 H82        -0.3090    3.9060    1.2140 h1        1 APT      0.070700
     24 H81        -1.0710    2.8440    2.4870 h1        1 APT      0.070700
     25 H3          1.5360   -2.5730    0.9440 hn        1 APT      0.381700
     26 H21         2.6270   -3.2580   -2.3760 hn        1 APT      0.346700
     27 H22         1.6960   -3.8400   -1.0550 hn        1 APT      0.346700
     28 HO6         2.9120    2.2180   -1.5410 ho        1 APT      0.470000
     29 H9          0.0770    1.0170    3.3710 h4        1 APT      0.060100
     30 HN4        -1.7960    3.1400   -0.2480 hn        1 APT      0.378800
     31 H1         -2.2200    0.3460    2.0930 ha        1 APT      0.132000
     32 H2         -1.7350   -2.0130    1.4160 ha        1 APT      0.161000
     33 H4         -1.1920   -0.7680   -2.6600 ha        1 APT      0.161000
     34 H5         -1.6390    1.6050   -2.0200 ha        1 APT      0.132000
     35 C7         -0.5890   -2.7840   -0.9560 c         1 APT      0.897200
@<TRIPOS>BOND
     1    1   12 1   
     2    1   14 1   
     3    1   23 1   
     4    1   24 1   
     5    2    3 ar  
     6    2   13 ar  
     7    3    4 1   
     8    3   10 ar  
     9    4    5 2   
    10    4   25 1   
    11    5    6 1   
    12    5    7 ar  
    13    6   26 1   
    14    6   27 1   
    15    7    8 ar  
    16    8    9 1   
    17    8   10 ar  
    18    9   28 1   
    19   10   11 ar  
    20   11   12 ar  
    21   12   13 ar  
    22   13   29 1   
    23   14   20 1   
    24   14   30 1   
    25   15   16 ar  
    26   15   20 ar  
    27   15   31 1   
    28   16   17 ar  
    29   16   32 1   
    30   17   18 ar  
    31   17   35 1   
    32   18   19 ar  
    33   18   33 1   
    34   19   20 ar  
    35   19   34 1   
    36   21   35 1   
    37   22   35 1   
@<TRIPOS>SUBSTRUCTURE
     1 APT         1 TEMP              0 ****  ****    0 ROOT
