@<TRIPOS>MOLECULE
APV
   43    44     1     0     0
SMALL
bcc


@<TRIPOS>ATOM
      1 C1          3.0160    1.6400    0.6960 c         1 APV      0.939600
      2 C2          4.1010    1.3050    1.8330 c3        1 APV     -0.076500
      3 C3          3.4620    0.3180    2.8070 c3        1 APV     -0.087400
      4 C4          3.6570   -1.1000    2.2960 c3        1 APV     -0.083400
      5 C7          3.4000   -2.1310    3.3870 c3        1 APV     -0.150400
      6 C10         4.4260   -3.2300    3.3700 c         1 APV      0.556100
      7 N11         5.6880   -3.0220    4.1980 n4        1 APV     -0.672800
      8 C12         6.5910   -2.0410    3.5770 cy        1 APV     -0.057500
      9 C13         8.0220   -1.8030    4.2350 c         1 APV      0.679500
     10 N14         4.5930    2.5520    2.4810 n4        1 APV     -0.818600
     11 O15         4.3770   -4.3030    2.7900 o         1 APV     -0.422100
     12 C16         6.3410   -0.5530    3.9710 cy        1 APV      0.132800
     13 S17         5.4300   -0.3820    5.5350 ss        1 APV     -0.408200
     14 O18         8.9260   -2.5820    4.4690 o         1 APV     -0.504500
     15 O19         2.6050    0.6390    0.0780 o         1 APV     -0.765300
     16 O20         2.7170    2.8510    0.5780 o         1 APV     -0.765300
     17 N29         7.7800   -0.4030    4.2720 n         1 APV     -0.309800
     18 C30         7.9560    0.5230    5.3720 c3        1 APV     -0.105300
     19 C31         7.7610    2.0210    4.8380 c         1 APV      0.964600
     20 C32         6.8860    0.2470    6.4520 c3        1 APV      0.028400
     21 C33         6.5320    1.4840    7.2590 c3        1 APV      0.126400
     22 O42         8.5640    2.8510    5.3010 o         1 APV     -0.808300
     23 O32         6.0590    1.1270    8.5420 oh        1 APV     -0.596800
     24 O43         6.8030    2.2370    4.0440 o         1 APV     -0.808300
     25 H2          4.9780    0.8370    1.3050 hx        1 APV      0.078700
     26 H3C1        3.8830    0.4240    3.8460 hc        1 APV      0.066200
     27 H3C2        2.3610    0.5330    2.8730 hc        1 APV      0.066200
     28 H4C1        4.6970   -1.2240    1.8910 hc        1 APV      0.085200
     29 H4C2        2.9570   -1.2560    1.4250 hc        1 APV      0.085200
     30 H7C1        2.4000   -2.6220    3.2180 hc        1 APV      0.108700
     31 H7C2        3.3750   -1.6400    4.4010 hc        1 APV      0.108700
     32 H11         5.4200   -2.6490    5.1400 hn        1 APV      0.469300
     33 H12         6.6600   -2.2250    2.4720 hx        1 APV      0.141700
     34 H141        5.5870    2.7030    2.2720 hn        1 APV      0.462467
     35 H142        4.5140    2.5120    3.5000 hn        1 APV      0.462467
     36 H16         5.9880    0.1530    3.1860 h2        1 APV      0.164700
     37 H30         8.9900    0.4360    5.7990 h1        1 APV      0.119700
     38 H32         7.2020   -0.5770    7.1390 h1        1 APV      0.068700
     39 H331        5.6850    2.0420    6.7730 h1        1 APV      0.097200
     40 H332        7.4270    2.1650    7.3230 h1        1 APV      0.097200
     41 HA          6.8300    0.9610    9.0980 ho        1 APV      0.400000
     42 H112        6.1870   -3.9130    4.3030 hn        1 APV      0.469300
     43 H143        4.0320    3.3380    2.1040 hn        1 APV      0.462467
@<TRIPOS>BOND
     1    1    2 1   
     2    1   15 1   
     3    1   16 1   
     4    2    3 1   
     5    2   10 1   
     6    2   25 1   
     7    3    4 1   
     8    3   26 1   
     9    3   27 1   
    10    4    5 1   
    11    4   28 1   
    12    4   29 1   
    13    5    6 1   
    14    5   30 1   
    15    5   31 1   
    16    6    7 1   
    17    6   11 2   
    18    7    8 1   
    19    7   32 1   
    20    7   42 1   
    21    8    9 1   
    22    8   12 1   
    23    8   33 1   
    24    9   14 2   
    25    9   17 1   
    26   10   34 1   
    27   10   35 1   
    28   10   43 1   
    29   12   13 1   
    30   12   17 1   
    31   12   36 1   
    32   13   20 1   
    33   17   18 1   
    34   18   19 1   
    35   18   20 1   
    36   18   37 1   
    37   19   22 1   
    38   19   24 1   
    39   20   21 1   
    40   20   38 1   
    41   21   23 1   
    42   21   39 1   
    43   21   40 1   
    44   23   41 1   
@<TRIPOS>SUBSTRUCTURE
     1 APV         1 TEMP              0 ****  ****    0 ROOT
