@<TRIPOS>MOLECULE
APV
   41    41     1     0     0
SMALL
bcc


@<TRIPOS>ATOM
      1 C1         -0.8270    6.1040   -3.5250 c1        1 APV      0.772000
      2 C2          0.0570    4.9940   -2.9570 c2        1 APV      0.134200
      3 C3         -0.6660    4.3310   -1.7640 c3        1 APV     -0.139700
      4 C4         -0.5100    2.6860   -1.8840 c3        1 APV     -0.074400
      5 C7         -0.6610    2.0150   -0.4560 c3        1 APV     -0.151400
      6 C10        -0.2310    0.1330   -0.6150 c         1 APV      0.666100
      7 N11        -0.3070   -0.9100    0.8830 n         1 APV     -0.550900
      8 C12        -0.3140   -0.9470    0.8810 cy        1 APV      0.003700
      9 C13         0.6620   -1.4930    0.1680 c         1 APV      0.645500
     10 N14         1.2950    5.5540   -2.5420 nh        1 APV     -0.476100
     11 O15        -0.3700   -0.3650   -1.6480 o         1 APV     -0.627100
     12 C16         0.3610   -1.5480    2.0630 cy        1 APV      0.119800
     13 S17        -0.6390   -2.6140    3.0430 ss        1 APV     -0.387200
     14 O18         1.1320   -1.2950   -0.9700 o         1 APV     -0.569500
     15 O19        -1.0570    7.1150   -2.8520 o         1 APV     -0.817000
     16 O20        -1.2870    6.0110   -4.7390 o         1 APV     -0.817000
     17 N29         1.0710   -2.2850    1.3440 n         1 APV     -0.341800
     18 C30         0.1290   -3.9080    1.1130 c3        1 APV     -0.076300
     19 C31         0.9710   -4.8850    0.7350 c         1 APV      0.933600
     20 C32        -0.4650   -4.1230    2.3640 c3        1 APV      0.003400
     21 C33         0.5560   -5.0900    3.3370 c3        1 APV      0.153400
     22 O42         0.4840   -6.0260    0.3130 o         1 APV     -0.818800
     23 O32        -0.0340   -5.2390    4.6600 oh        1 APV     -0.646800
     24 O43         2.2080   -4.7540    0.8990 o         1 APV     -0.818800
     25 H2          0.2190    4.3300   -3.6330 h4        1 APV     -0.047200
     26 H3C1       -1.6650    4.5760   -1.7970 hc        1 APV      0.046200
     27 H3C2       -0.2890    4.6390   -0.9450 hc        1 APV      0.046200
     28 H4C1       -1.2120    2.3360   -2.4800 hc        1 APV      0.048700
     29 H4C2        0.3840    2.4650   -2.2610 hc        1 APV      0.048700
     30 H7C1       -1.6610    2.1200   -0.1210 hc        1 APV      0.063700
     31 H7C2       -0.0460    2.4520    0.1890 hc        1 APV      0.063700
     32 H11        -0.2510   -0.4340    1.8900 hn        1 APV      0.322500
     33 H12        -1.4860   -0.9550    0.6280 h1        1 APV      0.123700
     34 H141        1.9870    4.9190   -2.6550 hn        1 APV      0.174700
     35 H142        1.4790    6.3070   -3.0630 hn        1 APV      0.174700
     36 H16         0.9000   -0.8800    2.5900 h2        1 APV      0.113700
     37 H30        -0.5510   -3.9490    0.3750 h1        1 APV      0.078700
     38 H32        -1.3530   -4.5630    2.2500 h1        1 APV      0.062700
     39 H331        0.6620   -6.0260    2.9050 h1        1 APV      0.054200
     40 H332        1.4490   -4.6580    3.4210 h1        1 APV      0.054200
     41 HA         -0.1250   -6.1400    4.8540 ho        1 APV      0.451000
@<TRIPOS>BOND
     1    1   15 2   
     2    1   16 2   
     3    2    3 1   
     4    2   10 2   
     5    2   25 1   
     6    3    4 1   
     7    3   26 1   
     8    3   27 1   
     9    4    5 1   
    10    4   28 1   
    11    4   29 1   
    12    5    6 1   
    13    5   30 1   
    14    5   31 1   
    15    6    7 1   
    16    6   11 2   
    17    7    8 1   
    18    7   32 1   
    19    8    9 1   
    20    8   12 1   
    21    8   33 1   
    22    9   14 2   
    23    9   17 1   
    24   10   34 1   
    25   10   35 1   
    26   12   13 1   
    27   12   17 1   
    28   12   36 1   
    29   13   20 1   
    30   17   18 1   
    31   18   19 1   
    32   18   20 1   
    33   18   37 1   
    34   19   22 1   
    35   19   24 1   
    36   20   21 1   
    37   20   38 1   
    38   21   23 1   
    39   21   39 1   
    40   21   40 1   
    41   23   41 1   
@<TRIPOS>SUBSTRUCTURE
     1 APV         1 TEMP              0 ****  ****    0 ROOT
