@<TRIPOS>MOLECULE
APV
   43    44     1     0     0
SMALL
bcc


@<TRIPOS>ATOM
      1 C1          3.2360    1.9520    0.7180 c         1 APV      0.939600
      2 C2          4.2470    1.5060    1.8850 c3        1 APV     -0.076500
      3 C3          3.5440    0.4400    2.7230 c3        1 APV     -0.087400
      4 C4          3.7680   -0.9280    2.0970 c3        1 APV     -0.083400
      5 C7          3.4390   -2.0510    3.0720 c3        1 APV     -0.150400
      6 C10         4.4600   -3.1530    3.0180 c         1 APV      0.556100
      7 N11         5.6690   -3.0320    3.9380 ny        1 APV     -0.672800
      8 C12         6.6120   -2.0070    3.4670 cy        1 APV     -0.057500
      9 C13         8.0000   -1.8420    4.2320 c         1 APV      0.679500
     10 N14         4.7020    2.6840    2.6740 nz        1 APV     -0.818600
     11 O15         4.4450   -4.1690    2.3400 o         1 APV     -0.422100
     12 C16         6.3420   -0.5590    3.9790 cy        1 APV      0.132800
     13 S17         5.3360   -0.5220    5.4920 ss        1 APV     -0.408200
     14 O18         8.8850   -2.6480    4.4490 o         1 APV     -0.504500
     15 O19         2.8620    1.0160   -0.0140 o         1 APV     -0.765300
     16 O20         2.9490    3.1720    0.6930 o         1 APV     -0.765300
     17 N29         7.7600   -0.4490    4.3810 n         1 APV     -0.309800
     18 C30         7.8690    0.3710    5.5710 c3        1 APV     -0.105300
     19 C31         7.7130    1.9130    5.1650 c         1 APV      0.964600
     20 C32         6.7330    0.0070    6.5520 c3        1 APV      0.028400
     21 C33         6.3330    1.1680    7.4450 c3        1 APV      0.126400
     22 O42         8.4880    2.6910    5.7510 o         1 APV     -0.808300
     23 O32         5.7790    0.7000    8.6580 oh        1 APV     -0.596800
     24 O43         6.8070    2.2090    4.3360 o         1 APV     -0.808300
     25 H2          5.1540    1.0810    1.3720 hx        1 APV      0.078700
     26 H3C1        3.9010    0.4480    3.7910 hc        1 APV      0.066200
     27 H3C2        2.4430    0.6580    2.7400 hc        1 APV      0.066200
     28 H4C1        3.1220   -0.9980    1.1740 hc        1 APV      0.085200
     29 H4C2        4.8300   -1.0230    1.7480 hc        1 APV      0.085200
     30 H7C1        2.4500   -2.5160    2.7960 hc        1 APV      0.108700
     31 H7C2        3.3520   -1.6550    4.1220 hc        1 APV      0.108700
     32 H11         5.3440   -2.7440    4.8910 hn        1 APV      0.469300
     33 H12         6.7490   -2.0900    2.3560 hx        1 APV      0.141700
     34 H141        4.1670    3.5060    2.3360 hn        1 APV      0.462467
     35 H142        4.5580    2.5520    3.6780 hn        1 APV      0.462467
     36 H16         6.0420    0.2190    3.2410 h2        1 APV      0.164700
     37 H30         8.8750    0.2360    6.0510 h1        1 APV      0.119700
     38 H32         7.0030   -0.8780    7.1790 h1        1 APV      0.068700
     39 H331        7.2240    1.8330    7.6270 h1        1 APV      0.097200
     40 H332        5.5200    1.7760    6.9600 h1        1 APV      0.097200
     41 HA          6.5130    0.4770    9.2430 ho        1 APV      0.400000
     42 H112        6.1580   -3.9340    3.9920 hn        1 APV      0.469300
     43 H143        5.7070    2.8450    2.5410 hn        1 APV      0.462467
@<TRIPOS>BOND
     1    1    2 1   
     2    1   15 1   
     3    1   16 1   
     4    2    3 1   
     5    2   10 1   
     6    2   25 1   
     7    3    4 1   
     8    3   26 1   
     9    3   27 1   
    10    4    5 1   
    11    4   28 1   
    12    4   29 1   
    13    5    6 1   
    14    5   30 1   
    15    5   31 1   
    16    6    7 1   
    17    6   11 2   
    18    7    8 1   
    19    7   32 1   
    20    7   42 1   
    21    8    9 1   
    22    8   12 1   
    23    8   33 1   
    24    9   14 2   
    25    9   17 1   
    26   10   34 1   
    27   10   35 1   
    28   10   43 1   
    29   12   13 1   
    30   12   17 1   
    31   12   36 1   
    32   13   20 1   
    33   17   18 1   
    34   18   19 1   
    35   18   20 1   
    36   18   37 1   
    37   19   22 1   
    38   19   24 1   
    39   20   21 1   
    40   20   38 1   
    41   21   23 1   
    42   21   39 1   
    43   21   40 1   
    44   23   41 1   
@<TRIPOS>SUBSTRUCTURE
     1 APV         1 TEMP              0 ****  ****    0 ROOT
