@<TRIPOS>MOLECULE
APV
   41    42     1     0     0
SMALL
bcc


@<TRIPOS>ATOM
      1 C1          0.8510   -0.2010    7.1930 c         1 APV      0.885600
      2 C2          0.4240    0.6520    5.9530 c3        1 APV      0.023500
      3 C3          0.2930   -0.2800    4.7470 c3        1 APV     -0.065400
      4 C4         -0.4030    0.3770    3.5740 c3        1 APV     -0.072400
      5 C7         -0.5740   -0.6110    2.4360 c3        1 APV     -0.144400
      6 C10        -1.3840   -0.0120    1.3020 c         1 APV      0.665100
      7 N11        -0.9100   -0.2030    0.0100 n         1 APV     -0.553900
      8 C12        -1.5620    0.3260   -1.1290 cy        1 APV      0.004700
      9 C13        -1.9660   -0.6890   -2.2610 c         1 APV      0.647500
     10 N14         1.2730    1.8100    5.7010 n3        1 APV     -0.890800
     11 O15        -2.4630    0.5810    1.4990 o         1 APV     -0.620100
     12 C16        -0.6700    0.9830   -2.2560 cy        1 APV      0.131800
     13 S17         1.0980    0.6670   -2.1760 ss        1 APV     -0.430200
     14 O18        -2.6610   -1.6950   -2.3110 o         1 APV     -0.570500
     15 O19         1.8310    0.2020    7.8860 o         1 APV     -0.848800
     16 O20         0.1790   -1.2370    7.4560 o         1 APV     -0.848800
     17 N29        -1.2740    0.0790   -3.2530 n         1 APV     -0.349800
     18 C30        -0.3330   -0.4910   -4.1960 c3        1 APV     -0.073300
     19 C31        -0.4110    0.1840   -5.6240 c         1 APV      0.934600
     20 C32         1.1090   -0.4130   -3.6370 c3        1 APV      0.021400
     21 C33         2.0940    0.0890   -4.6740 c3        1 APV      0.122400
     22 O42        -0.4130    1.4360   -5.7190 o         1 APV     -0.816800
     23 O32         3.4370   -0.0520   -4.2420 oh        1 APV     -0.621800
     24 O43        -0.4270   -0.6300   -6.5850 o         1 APV     -0.816800
     25 H2         -0.6020    1.0610    6.1910 h1        1 APV      0.043700
     26 H3C1        1.3070   -0.6400    4.4300 hc        1 APV      0.045200
     27 H3C2       -0.2900   -1.1770    5.0890 hc        1 APV      0.045200
     28 H4C1       -1.4100    0.7570    3.8900 hc        1 APV      0.053200
     29 H4C2        0.1890    1.2600    3.2190 hc        1 APV      0.053200
     30 H7C1        0.4340   -0.9610    2.0910 hc        1 APV      0.059200
     31 H7C2       -1.1410   -1.5100    2.7970 hc        1 APV      0.059200
     32 H11         0.0140   -0.5500   -0.1290 hn        1 APV      0.327500
     33 H12        -2.4270    0.9760   -0.8260 h1        1 APV      0.113700
     34 H141        1.5300    2.1910    6.5980 hn        1 APV      0.329300
     35 H142        2.1270    1.4950    5.2750 hn        1 APV      0.329300
     36 H16        -0.8690    2.0570   -2.4510 h2        1 APV      0.116700
     37 H30        -0.6020   -1.5770   -4.3520 h1        1 APV      0.078700
     38 H32         1.4380   -1.4170   -3.2710 h1        1 APV      0.063700
     39 H331        2.0190   -0.5430   -5.6040 h1        1 APV      0.089700
     40 H332        1.8710    1.1590   -4.9390 h1        1 APV      0.089700
     41 HA          3.5370    0.5080   -3.4620 ho        1 APV      0.393000
@<TRIPOS>BOND
     1    1    2 1   
     2    1   15 1   
     3    1   16 1   
     4    2    3 1   
     5    2   10 1   
     6    2   25 1   
     7    3    4 1   
     8    3   26 1   
     9    3   27 1   
    10    4    5 1   
    11    4   28 1   
    12    4   29 1   
    13    5    6 1   
    14    5   30 1   
    15    5   31 1   
    16    6    7 1   
    17    6   11 2   
    18    7    8 1   
    19    7   32 1   
    20    8    9 1   
    21    8   12 1   
    22    8   33 1   
    23    9   14 2   
    24    9   17 1   
    25   10   34 1   
    26   10   35 1   
    27   12   13 1   
    28   12   17 1   
    29   12   36 1   
    30   13   20 1   
    31   17   18 1   
    32   18   19 1   
    33   18   20 1   
    34   18   37 1   
    35   19   22 1   
    36   19   24 1   
    37   20   21 1   
    38   20   38 1   
    39   21   23 1   
    40   21   39 1   
    41   21   40 1   
    42   23   41 1   
@<TRIPOS>SUBSTRUCTURE
     1 APV         1 TEMP              0 ****  ****    0 ROOT
