@<TRIPOS>MOLECULE
APV
   43    44     1     0     0
SMALL
bcc


@<TRIPOS>ATOM
      1 C1          3.1410    1.7250    0.6540 c         1 APV      0.939600
      2 C2          4.1800    1.3640    1.8260 c3        1 APV     -0.076500
      3 C3          3.5140    0.3330    2.7330 c3        1 APV     -0.087400
      4 C4          3.7540   -1.0630    2.1800 c3        1 APV     -0.083400
      5 C7          3.4660   -2.1360    3.2210 c3        1 APV     -0.150400
      6 C10         4.5080   -3.2200    3.2090 c         1 APV      0.556100
      7 N11         5.7300   -3.0240    4.1000 n4        1 APV     -0.672800
      8 C12         6.6440   -2.0090    3.5550 cy        1 APV     -0.057500
      9 C13         8.0410   -1.7750    4.2850 c         1 APV      0.679500
     10 N14         4.6240    2.5930    2.5390 n4        1 APV     -0.818600
     11 O15         4.5020   -4.2710    2.5890 o         1 APV     -0.422100
     12 C16         6.3530   -0.5400    3.9920 cy        1 APV      0.132800
     13 S17         5.3720   -0.4400    5.5180 ss        1 APV     -0.408200
     14 O18         8.9450   -2.5500    4.5290 o         1 APV     -0.504500
     15 O19         2.7730    0.7420   -0.0180 o         1 APV     -0.765300
     16 O20         2.8280    2.9360    0.5670 o         1 APV     -0.765300
     17 N29         7.7750   -0.3810    4.3610 n         1 APV     -0.309800
     18 C30         7.8880    0.5060    5.5010 c3        1 APV     -0.105300
     19 C31         7.6930    2.0200    5.0140 c         1 APV      0.964600
     20 C32         6.7760    0.1750    6.5220 c3        1 APV      0.028400
     21 C33         6.3670    1.3760    7.3570 c3        1 APV      0.126400
     22 O42         8.4620    2.8440    5.5420 o         1 APV     -0.808300
     23 O32         5.8440    0.9660    8.6040 oh        1 APV     -0.596800
     24 O43         6.7670    2.2520    4.1870 o         1 APV     -0.808300
     25 H2          5.0860    0.9290    1.3200 hx        1 APV      0.078700
     26 H3C1        2.4080    0.5300    2.7590 hc        1 APV      0.066200
     27 H3C2        3.8880    0.4070    3.7930 hc        1 APV      0.066200
     28 H4C1        3.0950   -1.1960    1.2740 hc        1 APV      0.085200
     29 H4C2        4.8120   -1.1560    1.8180 hc        1 APV      0.085200
     30 H7C1        3.3890   -1.6840    4.2500 hc        1 APV      0.108700
     31 H7C2        2.4820   -2.6350    2.9900 hc        1 APV      0.108700
     32 H11         6.2380   -3.9120    4.1940 hn        1 APV      0.469300
     33 H12         6.7630   -2.1510    2.4490 hx        1 APV      0.141700
     34 H141        5.6230    2.7650    2.3810 hn        1 APV      0.462467
     35 H142        4.0670    3.3840    2.1660 hn        1 APV      0.462467
     36 H16         6.0240    0.1890    3.2170 h2        1 APV      0.164700
     37 H30         8.9040    0.4170    5.9710 h1        1 APV      0.119700
     38 H32         7.0750   -0.6690    7.1920 h1        1 APV      0.068700
     39 H331        7.2480    2.0670    7.4860 h1        1 APV      0.097200
     40 H332        5.5340    1.9400    6.8540 h1        1 APV      0.097200
     41 HA          6.5920    0.7900    9.1870 ho        1 APV      0.400000
     42 H112        5.4150   -2.6900    5.0410 hn        1 APV      0.469300
     43 H143        4.5000    2.5150    3.5510 hn        1 APV      0.462467
@<TRIPOS>BOND
     1    1    2 1   
     2    1   15 1   
     3    1   16 1   
     4    2    3 1   
     5    2   10 1   
     6    2   25 1   
     7    3    4 1   
     8    3   26 1   
     9    3   27 1   
    10    4    5 1   
    11    4   28 1   
    12    4   29 1   
    13    5    6 1   
    14    5   30 1   
    15    5   31 1   
    16    6    7 1   
    17    6   11 2   
    18    7    8 1   
    19    7   32 1   
    20    7   42 1   
    21    8    9 1   
    22    8   12 1   
    23    8   33 1   
    24    9   14 2   
    25    9   17 1   
    26   10   34 1   
    27   10   35 1   
    28   10   43 1   
    29   12   13 1   
    30   12   17 1   
    31   12   36 1   
    32   13   20 1   
    33   17   18 1   
    34   18   19 1   
    35   18   20 1   
    36   18   37 1   
    37   19   22 1   
    38   19   24 1   
    39   20   21 1   
    40   20   38 1   
    41   21   23 1   
    42   21   39 1   
    43   21   40 1   
    44   23   41 1   
@<TRIPOS>SUBSTRUCTURE
     1 APV         1 TEMP              0 ****  ****    0 ROOT
