@<TRIPOS>MOLECULE
APY
   16    16     1     0     0
SMALL
bcc


@<TRIPOS>ATOM
      1 N           0.2320   -0.0790    2.9460 n3        1 APY     -0.894800
      2 CM         -0.7590    0.0180    1.9140 c3        1 APY      0.107500
      3 C2         -0.3100   -0.0310    0.4640 ca        1 APY      0.364600
      4 C3         -1.3090    0.0670   -0.5310 ca        1 APY     -0.246300
      5 C4         -0.9330    0.0260   -1.8730 ca        1 APY     -0.088000
      6 C5          0.4190   -0.1090   -2.1920 ca        1 APY     -0.251300
      7 C6          1.3450   -0.1990   -1.1380 ca        1 APY      0.402200
      8 N1          1.0040   -0.1620    0.1630 nb        1 APY     -0.680000
      9 HN1         0.8920    0.6720    2.8840 hn        1 APY      0.355800
     10 HN2         0.7310   -0.9460    2.8880 hn        1 APY      0.355800
     11 HM1        -1.4960   -0.8260    2.0570 h1        1 APY      0.062700
     12 HM2        -1.3150    0.9910    2.0530 h1        1 APY      0.062700
     13 H3         -2.3620    0.1730   -0.2410 ha        1 APY      0.143000
     14 H4         -1.6900    0.1000   -2.6660 ha        1 APY      0.138000
     15 H5          0.7570   -0.1460   -3.2350 ha        1 APY      0.144000
     16 H6          2.4260   -0.3080   -1.3420 h4        1 APY      0.021100
@<TRIPOS>BOND
     1    1    2 1   
     2    1    9 1   
     3    1   10 1   
     4    2    3 1   
     5    2   11 1   
     6    2   12 1   
     7    3    4 ar  
     8    3    8 ar  
     9    4    5 ar  
    10    4   13 1   
    11    5    6 ar  
    12    5   14 1   
    13    6    7 ar  
    14    6   15 1   
    15    7    8 ar  
    16    7   16 1   
@<TRIPOS>SUBSTRUCTURE
     1 APY         1 TEMP              0 ****  ****    0 ROOT
