@<TRIPOS>MOLECULE
APY
   17    17     1     0     0
SMALL
bcc


@<TRIPOS>ATOM
      1 N          -0.0360   -0.0040   -0.0890 n4        1 APY     -0.826600
      2 CM          1.4500   -0.0070    0.0410 c3        1 APY      0.069500
      3 C2          1.9410   -0.0060    1.4680 ca        1 APY      0.321600
      4 C3          3.3320    0.0020    1.6670 ca        1 APY     -0.203300
      5 C4          3.8130    0.0000    2.9830 ca        1 APY     -0.069000
      6 C5          2.9030   -0.0080    4.0380 ca        1 APY     -0.201300
      7 C6          1.5230   -0.0150    3.7380 ca        1 APY      0.428200
      8 N1          1.0410   -0.0150    2.4860 nb        1 APY     -0.714000
      9 HN1        -0.4300   -0.8340    0.3710 hn        1 APY      0.468133
     10 HN2        -0.3020   -0.0030   -1.0770 hn        1 APY      0.468133
     11 HM1         1.8410   -0.9290   -0.4830 hx        1 APY      0.116700
     12 HM2         1.8450    0.9130   -0.4840 hx        1 APY      0.116700
     13 H3          4.0280    0.0080    0.8160 ha        1 APY      0.160000
     14 H4          4.8990    0.0060    3.1740 ha        1 APY      0.171000
     15 H5          3.2400   -0.0090    5.0850 ha        1 APY      0.176000
     16 H6          0.7650   -0.0220    4.5450 h4        1 APY      0.050100
     17 HN3        -0.4270    0.8270    0.3720 hn        1 APY      0.468133
@<TRIPOS>BOND
     1    1    2 1   
     2    1    9 1   
     3    1   10 1   
     4    1   17 1   
     5    2    3 1   
     6    2   11 1   
     7    2   12 1   
     8    3    4 ar  
     9    3    8 ar  
    10    4    5 ar  
    11    4   13 1   
    12    5    6 ar  
    13    5   14 1   
    14    6    7 ar  
    15    6   15 1   
    16    7    8 ar  
    17    7   16 1   
@<TRIPOS>SUBSTRUCTURE
     1 APY         1 TEMP              0 ****  ****    0 ROOT
