@<TRIPOS>MOLECULE
APY
   17    17     1     0     0
SMALL
bcc


@<TRIPOS>ATOM
      1 N          -0.0370   -0.0020   -0.0880 nz        1 APY     -0.826600
      2 CM          1.4490   -0.0050    0.0410 c3        1 APY      0.069500
      3 C2          1.9410   -0.0060    1.4680 ca        1 APY      0.321600
      4 C3          3.3320    0.0020    1.6670 ca        1 APY     -0.203300
      5 C4          3.8140   -0.0010    2.9820 ca        1 APY     -0.069000
      6 C5          2.9050   -0.0110    4.0370 ca        1 APY     -0.201300
      7 C6          1.5240   -0.0180    3.7380 ca        1 APY      0.428200
      8 N1          1.0420   -0.0160    2.4870 nb        1 APY     -0.714000
      9 HN1        -0.4310   -0.8330    0.3710 hn        1 APY      0.468133
     10 HN2        -0.3040    0.0010   -1.0760 hn        1 APY      0.468133
     11 HM1         1.8390   -0.9270   -0.4840 hx        1 APY      0.116700
     12 HM2         1.8440    0.9150   -0.4840 hx        1 APY      0.116700
     13 H3          4.0270    0.0100    0.8150 ha        1 APY      0.160000
     14 H4          4.8990    0.0060    3.1720 ha        1 APY      0.171000
     15 H5          3.2430   -0.0130    5.0850 ha        1 APY      0.176000
     16 H6          0.7660   -0.0260    4.5450 h4        1 APY      0.050100
     17 HN3        -0.4270    0.8290    0.3740 hn        1 APY      0.468133
@<TRIPOS>BOND
     1    1    2 1   
     2    1    9 1   
     3    1   10 1   
     4    1   17 1   
     5    2    3 1   
     6    2   11 1   
     7    2   12 1   
     8    3    4 ar  
     9    3    8 ar  
    10    4    5 ar  
    11    4   13 1   
    12    5    6 ar  
    13    5   14 1   
    14    6    7 ar  
    15    6   15 1   
    16    7    8 ar  
    17    7   16 1   
@<TRIPOS>SUBSTRUCTURE
     1 APY         1 TEMP              0 ****  ****    0 ROOT
