@<TRIPOS>MOLECULE
APY
   16    14     1     0     0
SMALL
bcc


@<TRIPOS>ATOM
      1 N          -1.6660    0.8590   -1.8400 n3        1 APY     -0.327000
      2 CM         -0.5040    0.0370   -1.7590 c3        1 APY     -0.035000
      3 C2         -0.0190   -0.0110   -0.3270 c2        1 APY     -0.058000
      4 C3          0.9600   -0.9200    0.0430 c2        1 APY     -0.181000
      5 C4          1.3940   -0.9660    1.3360 c1        1 APY     -0.088000
      6 C5          0.8640   -0.1160    2.2630 c1        1 APY     -0.124500
      7 C6         -0.1150    0.7920    1.8910 c1        1 APY     -0.124500
      8 N1         -0.5470    0.8370    0.6000 n1        1 APY     -0.154000
      9 HN1        -1.5500    1.4890   -2.4950 hn        1 APY      0.151000
     10 HN2        -2.3940    0.3400   -2.0420 hn        1 APY      0.151000
     11 HM1        -0.7230   -0.8690   -2.0600 h1        1 APY      0.102000
     12 HM2         0.2000    0.4100   -2.3300 h1        1 APY      0.102000
     13 H3          1.3390   -1.5270   -0.6210 ha        1 APY      0.143000
     14 H4          2.0830   -1.6060    1.5980 ha        1 APY      0.138000
     15 H5          1.1730   -0.1490    3.1880 ha        1 APY      0.151000
     16 H6         -0.4940    1.3990    2.5540 ha        1 APY      0.151000
@<TRIPOS>BOND
     1    1    2 1   
     2    1    9 1   
     3    1   10 1   
     4    2    3 1   
     5    2   11 1   
     6    2   12 1   
     7    3    4 1   
     8    3    8 1   
     9    4    5 1   
    10    4   13 1   
    11    5   14 1   
    12    6    7 1   
    13    6   15 1   
    14    7   16 1   
@<TRIPOS>SUBSTRUCTURE
     1 APY         1 TEMP              0 ****  ****    0 ROOT
