@<TRIPOS>MOLECULE
APZ
   20    21     1     0     0
SMALL
bcc


@<TRIPOS>ATOM
      1 N10         0.1580    0.1780   -2.6040 n         1 APZ     -0.401500
      2 C5          1.1920    0.0190   -1.6330 c         1 APZ      0.686100
      3 O11         2.3680   -0.0270   -2.0330 o         1 APZ     -0.604500
      4 C2          0.7990    0.0150   -0.2110 ca        1 APZ     -0.173600
      5 C6          1.7670    0.0260    0.7970 ca        1 APZ     -0.032000
      6 C12         1.3910    0.0030    2.1330 ca        1 APZ     -0.196000
      7 C9          0.0220   -0.0440    2.4980 ca        1 APZ      0.185600
      8 C4         -0.9560   -0.0490    1.4680 ca        1 APZ     -0.159000
      9 C1         -0.5610   -0.0230    0.1380 ca        1 APZ     -0.062600
     10 C3         -1.5840   -0.0070   -0.9380 c         1 APZ      0.677100
     11 O8         -2.8070    0.0520   -0.7300 o         1 APZ     -0.600500
     12 N7         -1.1320   -0.1650   -2.2780 n         1 APZ     -0.400500
     13 N13        -0.3560   -0.1550    3.8260 nh        1 APZ     -0.838200
     14 H10         0.4020   -0.2330   -3.4970 hn        1 APZ      0.310500
     15 H6          2.8340    0.0550    0.5160 ha        1 APZ      0.163000
     16 H12         2.1690    0.0130    2.9110 ha        1 APZ      0.143000
     17 H4         -2.0320   -0.0810    1.7080 ha        1 APZ      0.164000
     18 H7         -1.7720    0.2330   -2.9540 hn        1 APZ      0.312500
     19 H131        0.3150    0.1180    4.5050 hn        1 APZ      0.412800
     20 H132       -1.3000    0.0680    4.0410 hn        1 APZ      0.412800
@<TRIPOS>BOND
     1    1    2 1   
     2    1   12 1   
     3    1   14 1   
     4    2    3 2   
     5    2    4 1   
     6    4    5 ar  
     7    4    9 ar  
     8    5    6 ar  
     9    5   15 1   
    10    6    7 ar  
    11    6   16 1   
    12    7    8 ar  
    13    7   13 1   
    14    8    9 ar  
    15    8   17 1   
    16    9   10 1   
    17   10   11 2   
    18   10   12 1   
    19   12   18 1   
    20   13   19 1   
    21   13   20 1   
@<TRIPOS>SUBSTRUCTURE
     1 APZ         1 TEMP              0 ****  ****    0 ROOT
