@<TRIPOS>MOLECULE
APZ
   21    22     1     0     0
SMALL
bcc


@<TRIPOS>ATOM
      1 N10        -0.0600   -0.1770    0.0160 n         1 APZ     -0.385500
      2 C5          1.3500   -0.0420   -0.0320 c         1 APZ      0.668100
      3 O11         1.9380   -0.0410   -1.1220 o         1 APZ     -0.547500
      4 C2          2.0740   -0.0340    1.2720 ca        1 APZ     -0.053600
      5 C6          3.4730   -0.0760    1.3070 ca        1 APZ     -0.055000
      6 C12         4.1390   -0.0570    2.5290 ca        1 APZ     -0.094000
      7 C9          3.3910    0.0080    3.7210 ca        1 APZ     -0.062400
      8 C4          1.9890    0.0520    3.7000 ca        1 APZ     -0.058000
      9 C1          1.3390    0.0320    2.4630 ca        1 APZ     -0.088600
     10 C3         -0.1500    0.0660    2.4120 c         1 APZ      0.675100
     11 O8         -0.8490    0.0720    3.4360 o         1 APZ     -0.568500
     12 N7         -0.7440    0.2180    1.1370 n         1 APZ     -0.382500
     13 N13         4.0930    0.0320    5.0060 n4        1 APZ     -0.704000
     14 H10        -0.5270    0.1570   -0.8210 hn        1 APZ      0.343500
     15 H6          4.0380   -0.1260    0.3560 ha        1 APZ      0.204000
     16 H12         5.2420   -0.0930    2.5420 ha        1 APZ      0.168000
     17 H4          1.3730    0.1020    4.6180 ha        1 APZ      0.190000
     18 H7         -1.7080   -0.0970    1.0970 hn        1 APZ      0.343500
     19 H131        3.4160    0.0150    5.7790 hn        1 APZ      0.468800
     20 H132        4.7080   -0.7880    5.0780 hn        1 APZ      0.468800
     21 H133        4.6600    0.8860    5.0720 hn        1 APZ      0.468800
@<TRIPOS>BOND
     1    1    2 1   
     2    1   12 1   
     3    1   14 1   
     4    2    3 2   
     5    2    4 1   
     6    4    5 ar  
     7    4    9 ar  
     8    5    6 ar  
     9    5   15 1   
    10    6    7 ar  
    11    6   16 1   
    12    7    8 ar  
    13    7   13 1   
    14    8    9 ar  
    15    8   17 1   
    16    9   10 1   
    17   10   11 2   
    18   10   12 1   
    19   12   18 1   
    20   13   19 1   
    21   13   20 1   
    22   13   21 1   
@<TRIPOS>SUBSTRUCTURE
     1 APZ         1 TEMP              0 ****  ****    0 ROOT
