@<TRIPOS>MOLECULE
APZ
   20    17     1     0     0
SMALL
bcc


@<TRIPOS>ATOM
      1 N10        -2.0050   -0.0560   -2.1610 n2        1 APZ     -0.248000
      2 C5         -0.6440   -0.0560   -2.1610 c1        1 APZ      0.323000
      3 O11        -0.0370   -0.0560   -3.2120 o         1 APZ     -0.330000
      4 C2          0.0530   -0.0560   -0.9540 c1        1 APZ     -0.152000
      5 C6          1.4660   -0.0560   -0.9520 c2        1 APZ     -0.032000
      6 C12         2.1570   -0.0560    0.2480 c1        1 APZ     -0.196000
      7 C9          1.4650   -0.0560    1.4440 c1        1 APZ      0.104000
      8 C4          0.0810   -0.0560    1.4430 c1        1 APZ     -0.159000
      9 C1         -0.6260   -0.0560    0.2180 c1        1 APZ     -0.043000
     10 C3         -2.0190   -0.0560    0.2140 c2        1 APZ      0.314000
     11 O8         -2.6290   -0.0650    1.2630 o         1 APZ     -0.324000
     12 N7         -2.6970   -0.0560   -0.9670 n2        1 APZ     -0.247000
     13 N13         2.1310    0.2600    2.6580 n3        1 APZ     -0.347000
     14 H10        -2.4600   -0.0560   -2.9510 hn        1 APZ      0.224000
     15 H6          1.9550   -0.0560   -1.7970 ha        1 APZ      0.163000
     16 H12         3.1330   -0.0560    0.2490 ha        1 APZ      0.143000
     17 H4         -0.4080   -0.0560    2.2880 ha        1 APZ      0.164000
     18 H7         -3.6090   -0.0560   -0.9680 hn        1 APZ      0.226000
     19 H131        3.0340    0.3830    2.6630 hn        1 APZ      0.208000
     20 H132        1.6580    0.3160    3.4360 hn        1 APZ      0.208000
@<TRIPOS>BOND
     1    1    2 1   
     2    1   14 1   
     3    2    3 1   
     4    4    5 1   
     5    4    9 1   
     6    5    6 1   
     7    5   15 1   
     8    6   16 1   
     9    7    8 1   
    10    7   13 1   
    11    8   17 1   
    12    9   10 1   
    13   10   11 1   
    14   10   12 1   
    15   12   18 1   
    16   13   19 1   
    17   13   20 1   
@<TRIPOS>SUBSTRUCTURE
     1 APZ         1 TEMP              0 ****  ****    0 ROOT
