@<TRIPOS>MOLECULE
APZ
   20    21     1     0     0
SMALL
bcc


@<TRIPOS>ATOM
      1 N10        -0.0510    0.1730    0.0090 ns        1 APZ     -0.401500
      2 C5          1.3660    0.0110   -0.0130 c         1 APZ      0.686100
      3 O11         1.9320   -0.0420   -1.1180 o         1 APZ     -0.604500
      4 C2          2.0740    0.0100    1.2810 ca        1 APZ     -0.173600
      5 C6          3.4700    0.0190    1.3310 ca        1 APZ     -0.032000
      6 C12         4.1300   -0.0000    2.5530 ca        1 APZ     -0.196000
      7 C9          3.4020   -0.0410    3.7680 ca        1 APZ      0.185600
      8 C4          1.9830   -0.0430    3.7090 ca        1 APZ     -0.159000
      9 C1          1.3400   -0.0200    2.4790 ca        1 APZ     -0.062600
     10 C3         -0.1430   -0.0020    2.4180 c         1 APZ      0.677100
     11 O8         -0.8760    0.0640    3.4200 o         1 APZ     -0.600500
     12 N7         -0.7510   -0.1630    1.1430 ns        1 APZ     -0.400500
     13 N13         4.0540   -0.1480    4.9860 nv        1 APZ     -0.838200
     14 H10        -0.4990   -0.2400   -0.7990 hn        1 APZ      0.310500
     15 H6          4.0410    0.0430    0.3870 ha        1 APZ      0.163000
     16 H12         5.2310    0.0070    2.5700 ha        1 APZ      0.143000
     17 H4          1.3770   -0.0690    4.6300 ha        1 APZ      0.164000
     18 H7         -1.6800    0.2360    1.1010 hn        1 APZ      0.312500
     19 H131        5.0090    0.1230    5.0040 hn        1 APZ      0.412800
     20 H132        3.5270    0.0800    5.7950 hn        1 APZ      0.412800
@<TRIPOS>BOND
     1    1    2 1   
     2    1   12 1   
     3    1   14 1   
     4    2    3 2   
     5    2    4 1   
     6    4    5 ar  
     7    4    9 ar  
     8    5    6 ar  
     9    5   15 1   
    10    6    7 ar  
    11    6   16 1   
    12    7    8 ar  
    13    7   13 1   
    14    8    9 ar  
    15    8   17 1   
    16    9   10 1   
    17   10   11 2   
    18   10   12 1   
    19   12   18 1   
    20   13   19 1   
    21   13   20 1   
@<TRIPOS>SUBSTRUCTURE
     1 APZ         1 TEMP              0 ****  ****    0 ROOT
