@<TRIPOS>MOLECULE
AQ2
   55    48     1     0     0
SMALL
bcc


@<TRIPOS>ATOM
      1 C01        -3.5810   -0.0930    7.0140 c3        1 AQ2     -0.211000
      2 C02        -2.3830   -0.6650    6.2650 c3        1 AQ2     -0.059000
      3 C03        -1.6880   -1.7340    7.1420 c3        1 AQ2     -0.211000
      4 C04        -2.8730   -1.3260    4.9210 c2        1 AQ2     -0.006000
      5 C05        -2.2940   -0.8720    3.7640 c1        1 AQ2     -0.200000
      6 C06        -2.8370   -1.5770    2.7070 c1        1 AQ2     -0.099000
      7 C07        -2.5960   -1.5260    1.3110 c1        1 AQ2      0.018000
      8 C08        -3.2760   -2.3640    0.4650 c1        1 AQ2     -0.192000
      9 C09        -4.2060   -3.2690    0.9780 c1        1 AQ2     -0.057000
     10 N01        -4.4400   -3.3210    2.3270 n1        1 AQ2     -0.135000
     11 C10        -3.7360   -2.4520    3.2050 c1        1 AQ2      0.031000
     12 N02        -3.7610   -2.2980    4.5910 n1        1 AQ2     -0.193000
     13 C11        -1.6080   -0.6990    0.4530 c2        1 AQ2      0.033000
     14 C12        -0.3230   -1.1900    0.1970 c2        1 AQ2     -0.143000
     15 C13         0.5870   -0.4160   -0.5170 c1        1 AQ2     -0.020000
     16 C14         0.2170    0.8490   -0.9780 c1        1 AQ2     -0.833000
     17 C15        -1.0650    1.3380   -0.7220 c1        1 AQ2     -0.019000
     18 C16        -1.9760    0.5640   -0.0080 c1        1 AQ2     -0.146000
     19 S01         1.3990    1.8620   -1.8000 s4        1 AQ2      2.074800
     20 O01         0.8760    3.2120   -2.0370 o         1 AQ2     -0.540400
     21 O02         2.5260    2.1470   -0.9430 o         1 AQ2     -0.540400
     22 N1          1.8960    1.1340   -3.2450 n2        1 AQ2     -0.885000
     23 C17         2.8650    1.7410   -4.0150 c3        1 AQ2      0.033000
     24 C18         4.2310    1.0710   -3.7020 c3        1 AQ2     -0.143000
     25 C19         5.3840    1.5430   -4.5700 c3        1 AQ2     -0.858000
     26 S           4.9620    1.3890   -6.2280 s4        1 AQ2      2.022800
     27 O03         5.9980    1.9640   -7.0370 o         1 AQ2     -0.536400
     28 O1          4.8210   -0.0040   -6.5520 o         1 AQ2     -0.536400
     29 C20         3.4400    2.1840   -6.5270 c2        1 AQ2     -0.856000
     30 C1          2.4190    1.6690   -5.5610 c3        1 AQ2     -0.147000
     31 H011       -4.0080    0.6250    6.4610 hc        1 AQ2      0.080833
     32 H012       -3.2860    0.2810    7.8580 hc        1 AQ2      0.080833
     33 H013       -4.2400   -0.8170    7.1840 hc        1 AQ2      0.080833
     34 H02        -1.7300    0.0770    6.0580 hc        1 AQ2      0.110000
     35 H031       -1.4160   -1.3300    8.0040 hc        1 AQ2      0.080833
     36 H032       -2.3190   -2.4850    7.3120 hc        1 AQ2      0.080833
     37 H033       -0.8900   -2.0760    6.6740 hc        1 AQ2      0.080833
     38 H05        -1.5740   -0.2070    3.7020 DU        1 AQ2      0.212000
     39 HA         -4.3180   -2.7860    5.2030 DU        1 AQ2      0.212000
     40 H08        -3.1070   -2.3260   -0.5140 ha        1 AQ2      0.144000
     41 H09        -4.6870   -3.8630    0.3770 ha        1 AQ2      0.161000
     42 H12        -0.0580   -2.0950    0.5280 ha        1 AQ2      0.152000
     43 H16        -2.8560    0.9000    0.1700 ha        1 AQ2      0.147000
     44 H13         1.5220   -0.7720   -0.7040 ha        1 AQ2      0.152000
     45 H15        -1.3300    2.2440   -1.0520 ha        1 AQ2      0.154000
     46 H1          1.4410    0.3750   -3.5720 hn        1 AQ2      0.243000
     47 H17         2.9170    2.6570   -3.7620 h1        1 AQ2      0.119000
     48 H181        4.1310    0.0870   -3.8230 hc        1 AQ2      0.107000
     49 H182        4.4620    1.2540   -2.7310 hc        1 AQ2      0.107000
     50 H11C        2.2260    0.7400   -5.7840 hc        1 AQ2      0.103500
     51 H12C        1.6080    2.1850   -5.6710 hc        1 AQ2      0.103500
     52 H191        5.7260    2.4190   -4.3900 h1        1 AQ2      0.161500
     53 H192        6.1780    0.9870   -4.3490 h1        1 AQ2      0.161500
     54 H201        3.5030    3.1510   -6.6590 ha        1 AQ2      0.158500
     55 H202        3.1300    1.9130   -7.4140 ha        1 AQ2      0.158500
@<TRIPOS>BOND
     1    1    2 1   
     2    1   31 1   
     3    1   32 1   
     4    1   33 1   
     5    2    3 1   
     6    2    4 1   
     7    2   34 1   
     8    3   35 1   
     9    3   36 1   
    10    3   37 1   
    11    4    5 1   
    12    4   12 1   
    13    5    6 1   
    14    6   11 1   
    15    7    8 1   
    16    7   13 1   
    17    8   40 1   
    18    9   10 1   
    19    9   41 1   
    20   13   14 1   
    21   13   18 1   
    22   14   15 1   
    23   14   42 1   
    24   15   44 1   
    25   16   17 1   
    26   16   19 1   
    27   17   45 1   
    28   18   43 1   
    29   19   20 1   
    30   19   21 1   
    31   22   23 1   
    32   22   46 1   
    33   23   24 1   
    34   23   30 1   
    35   23   47 1   
    36   24   25 1   
    37   24   48 1   
    38   24   49 1   
    39   25   26 1   
    40   25   52 1   
    41   25   53 1   
    42   26   27 1   
    43   26   28 1   
    44   29   30 1   
    45   29   54 1   
    46   29   55 1   
    47   30   50 1   
    48   30   51 1   
@<TRIPOS>SUBSTRUCTURE
     1 AQ2         1 TEMP              0 ****  ****    0 ROOT
