@<TRIPOS>MOLECULE
AQ2
   56    59     1     0     0
SMALL
bcc


@<TRIPOS>ATOM
      1 C01        -0.2970   -0.4710   -0.3660 c3        1 AQ2     -0.096600
      2 C02         1.1360   -0.3630    0.1200 c3        1 AQ2     -0.022500
      3 C03         1.1810   -0.2200    1.6290 c3        1 AQ2     -0.096600
      4 C04         1.9470   -1.5290   -0.3340 cc        1 AQ2      0.007700
      5 C05         3.0720   -1.5000   -1.1700 cd        1 AQ2     -0.224200
      6 C06         3.5250   -2.8520   -1.3320 ca        1 AQ2     -0.152100
      7 C07         4.5770   -3.4970   -2.0000 cp        1 AQ2     -0.048000
      8 C08         4.6860   -4.8850   -1.8560 ca        1 AQ2     -0.224300
      9 C09         3.7440   -5.5940   -1.0740 ca        1 AQ2      0.402200
     10 N01         2.7180   -5.0410   -0.4170 nb        1 AQ2     -0.620000
     11 C10         2.6170   -3.6880   -0.5410 ca        1 AQ2      0.421800
     12 N02         1.6610   -2.8430    0.0420 na        1 AQ2     -0.266100
     13 C11         5.5260   -2.7680   -2.8270 cp        1 AQ2      0.142000
     14 C12         6.8870   -3.1380   -2.8530 ca        1 AQ2     -0.154500
     15 C13         7.7870   -2.4510   -3.6440 ca        1 AQ2      0.015000
     16 C14         7.3810   -1.3670   -4.4590 ca        1 AQ2     -0.585500
     17 C15         6.0100   -1.0080   -4.4220 ca        1 AQ2      0.015000
     18 C16         5.1060   -1.6870   -3.6290 ca        1 AQ2     -0.154500
     19 S01         8.4300   -0.5300   -5.3060 sy        1 AQ2      1.500200
     20 O01         8.0080    0.7130   -5.7250 o         1 AQ2     -0.575800
     21 O02         9.7580   -0.7730   -5.0200 o         1 AQ2     -0.575800
     22 N1          8.2930   -1.5770   -6.9540 n4        1 AQ2     -0.693900
     23 C17         8.1060   -0.7710   -8.1950 c3        1 AQ2      0.119500
     24 C18         8.6220   -1.5160   -9.4380 c3        1 AQ2     -0.062400
     25 C19         8.5080   -0.6490  -10.6640 c3        1 AQ2     -0.321100
     26 S           6.8930   -0.2410  -11.0770 s6        1 AQ2      1.337000
     27 O03         6.8970    0.7020  -12.0960 o         1 AQ2     -0.624800
     28 O1          6.1460   -1.4120  -11.2120 o         1 AQ2     -0.624800
     29 C20         6.4790    0.5160   -9.5940 c3        1 AQ2     -0.321100
     30 C1          6.6320   -0.3740   -8.3890 c3        1 AQ2     -0.062400
     31 H011       -0.8570    0.4570   -0.0910 hc        1 AQ2      0.047533
     32 H012       -0.3290   -0.5910   -1.4750 hc        1 AQ2      0.047533
     33 H013       -0.8130   -1.3430    0.1030 hc        1 AQ2      0.047533
     34 H02         1.6020    0.5570   -0.3400 hc        1 AQ2      0.072700
     35 H031        2.2370   -0.1590    1.9870 hc        1 AQ2      0.047533
     36 H032        0.6850   -1.0870    2.1280 hc        1 AQ2      0.047533
     37 H033        0.6460    0.7120    1.9340 hc        1 AQ2      0.047533
     38 H05         3.5240   -0.6080   -1.5920 ha        1 AQ2      0.157000
     39 HA          0.9280   -3.1300    0.6410 hn        1 AQ2      0.325700
     40 H08         5.4880   -5.4430   -2.3590 ha        1 AQ2      0.144000
     41 H09         3.8270   -6.6930   -0.9720 h4        1 AQ2      0.041100
     42 H12         7.2350   -3.9710   -2.2170 ha        1 AQ2      0.180000
     43 H16         4.0420   -1.3900   -3.6180 ha        1 AQ2      0.180000
     44 H13         8.8570   -2.7360   -3.6270 ha        1 AQ2      0.163000
     45 H15         5.6670   -0.1530   -5.0350 ha        1 AQ2      0.163000
     46 H1          7.5330   -2.2490   -6.8820 hn        1 AQ2      0.441300
     47 H17         8.7180    0.1720   -8.0560 hx        1 AQ2      0.110700
     48 H181        9.6960   -1.8080   -9.2890 hc        1 AQ2      0.076200
     49 H182        8.0270   -2.4590   -9.5930 hc        1 AQ2      0.076200
     50 H11C        6.2680    0.1730   -7.4770 hc        1 AQ2      0.076200
     51 H12C        5.9990   -1.2940   -8.5240 hc        1 AQ2      0.076200
     52 H191        8.9880   -1.2040  -11.5200 h1        1 AQ2      0.134700
     53 H192        9.1400    0.2720  -10.5380 h1        1 AQ2      0.134700
     54 H201        7.0660    1.4630   -9.4410 h1        1 AQ2      0.134700
     55 H202        5.4050    0.8580   -9.6320 h1        1 AQ2      0.134700
     56 H121        9.1590   -2.1080   -7.0510 hn        1 AQ2      0.441300
@<TRIPOS>BOND
     1    1    2 1   
     2    1   31 1   
     3    1   32 1   
     4    1   33 1   
     5    2    3 1   
     6    2    4 1   
     7    2   34 1   
     8    3   35 1   
     9    3   36 1   
    10    3   37 1   
    11    4    5 2   
    12    4   12 1   
    13    5    6 1   
    14    5   38 1   
    15    6    7 ar  
    16    6   11 ar  
    17    7    8 ar  
    18    7   13 1   
    19    8    9 ar  
    20    8   40 1   
    21    9   10 ar  
    22    9   41 1   
    23   10   11 ar  
    24   11   12 1   
    25   12   39 1   
    26   13   14 ar  
    27   13   18 ar  
    28   14   15 ar  
    29   14   42 1   
    30   15   16 ar  
    31   15   44 1   
    32   16   17 ar  
    33   16   19 1   
    34   17   18 ar  
    35   17   45 1   
    36   18   43 1   
    37   19   20 2   
    38   19   21 2   
    39   19   22 1   
    40   22   23 1   
    41   22   46 1   
    42   22   56 1   
    43   23   24 1   
    44   23   30 1   
    45   23   47 1   
    46   24   25 1   
    47   24   48 1   
    48   24   49 1   
    49   25   26 1   
    50   25   52 1   
    51   25   53 1   
    52   26   27 2   
    53   26   28 2   
    54   26   29 1   
    55   29   30 1   
    56   29   54 1   
    57   29   55 1   
    58   30   50 1   
    59   30   51 1   
@<TRIPOS>SUBSTRUCTURE
     1 AQ2         1 TEMP              0 ****  ****    0 ROOT
