@<TRIPOS>MOLECULE
AQ2
   56    59     1     0     0
SMALL
bcc


@<TRIPOS>ATOM
      1 C01        -0.2900   -0.3970   -0.3730 c3        1 AQ2     -0.096600
      2 C02         1.1430   -0.3320    0.1190 c3        1 AQ2     -0.022500
      3 C03         1.1860   -0.2130    1.6310 c3        1 AQ2     -0.096600
      4 C04         1.9280   -1.5100   -0.3490 cc        1 AQ2      0.007700
      5 C05         3.0570   -1.4980   -1.1800 cd        1 AQ2     -0.224200
      6 C06         3.4770   -2.8570   -1.3600 ca        1 AQ2     -0.152100
      7 C07         4.5160   -3.5180   -2.0340 cp        1 AQ2     -0.048000
      8 C08         4.5900   -4.9100   -1.9100 ca        1 AQ2     -0.224300
      9 C09         3.6270   -5.6070   -1.1430 ca        1 AQ2      0.402200
     10 N01         2.6120   -5.0390   -0.4810 nb        1 AQ2     -0.620000
     11 C10         2.5450   -3.6830   -0.5850 ca        1 AQ2      0.421800
     12 N02         1.6080   -2.8220    0.0060 na        1 AQ2     -0.266100
     13 C11         5.4860   -2.8010   -2.8450 cp        1 AQ2      0.142000
     14 C12         6.8380   -3.2040   -2.8710 ca        1 AQ2     -0.154500
     15 C13         7.7580   -2.5280   -3.6470 ca        1 AQ2      0.015000
     16 C14         7.3830   -1.4210   -4.4480 ca        1 AQ2     -0.585500
     17 C15         6.0220   -1.0300   -4.4110 ca        1 AQ2      0.015000
     18 C16         5.0970   -1.6970   -3.6330 ca        1 AQ2     -0.154500
     19 S01         8.4570   -0.5980   -5.2760 sy        1 AQ2      1.500200
     20 O01         8.0670    0.6620   -5.6780 o         1 AQ2     -0.575800
     21 O02         9.7770   -0.8780   -4.9890 o         1 AQ2     -0.575800
     22 N1          8.3010   -1.6150   -6.9420 ny        1 AQ2     -0.693900
     23 C17         8.1410   -0.7850   -8.1700 c3        1 AQ2      0.119500
     24 C18         8.6460   -1.5230   -9.4220 c3        1 AQ2     -0.062400
     25 C19         8.5610   -0.6330  -10.6350 c3        1 AQ2     -0.321100
     26 S           6.9590   -0.1790  -11.0500 s6        1 AQ2      1.337000
     27 O03         6.9920    0.7810  -12.0530 o         1 AQ2     -0.624800
     28 O1          6.1840   -1.3280  -11.2080 o         1 AQ2     -0.624800
     29 C20         6.5550    0.5650   -9.5570 c3        1 AQ2     -0.321100
     30 C1          6.6790   -0.3480   -8.3660 c3        1 AQ2     -0.062400
     31 H011       -0.8280    0.5390   -0.0870 hc        1 AQ2      0.047533
     32 H012       -0.3200   -0.5010   -1.4840 hc        1 AQ2      0.047533
     33 H013       -0.8290   -1.2630    0.0810 hc        1 AQ2      0.047533
     34 H02         1.6330    0.5830   -0.3250 hc        1 AQ2      0.072700
     35 H031        0.6720    0.7280    1.9470 hc        1 AQ2      0.047533
     36 H032        0.6670   -1.0750    2.1150 hc        1 AQ2      0.047533
     37 H033        2.2410   -0.1820    1.9940 hc        1 AQ2      0.047533
     38 H05         3.5330   -0.6110   -1.5860 ha        1 AQ2      0.157000
     39 HA          0.8660   -3.1000    0.5970 hn        1 AQ2      0.325700
     40 H08         5.3800   -5.4810   -2.4180 ha        1 AQ2      0.144000
     41 H09         3.6830   -6.7100   -1.0570 h4        1 AQ2      0.041100
     42 H12         7.1620   -4.0550   -2.2460 ha        1 AQ2      0.180000
     43 H16         4.0410   -1.3740   -3.6210 ha        1 AQ2      0.180000
     44 H13         8.8200   -2.8400   -3.6300 ha        1 AQ2      0.163000
     45 H15         5.7020   -0.1570   -5.0120 ha        1 AQ2      0.163000
     46 H1          7.5240   -2.2680   -6.8840 hn        1 AQ2      0.441300
     47 H17         8.7770    0.1410   -8.0130 hx        1 AQ2      0.110700
     48 H181        8.0290   -2.4470   -9.5960 hc        1 AQ2      0.076200
     49 H182        9.7110   -1.8440   -9.2720 hc        1 AQ2      0.076200
     50 H11C        6.3240    0.1930   -7.4480 hc        1 AQ2      0.076200
     51 H12C        6.0240   -1.2500   -8.5200 hc        1 AQ2      0.076200
     52 H191        9.2150    0.2690  -10.4910 h1        1 AQ2      0.134700
     53 H192        9.0320   -1.1860  -11.4980 h1        1 AQ2      0.134700
     54 H201        5.4900    0.9340   -9.5960 h1        1 AQ2      0.134700
     55 H202        7.1640    1.4940   -9.3850 h1        1 AQ2      0.134700
     56 H121        9.1540   -2.1660   -7.0430 hn        1 AQ2      0.441300
@<TRIPOS>BOND
     1    1    2 1   
     2    1   31 1   
     3    1   32 1   
     4    1   33 1   
     5    2    3 1   
     6    2    4 1   
     7    2   34 1   
     8    3   35 1   
     9    3   36 1   
    10    3   37 1   
    11    4    5 2   
    12    4   12 1   
    13    5    6 1   
    14    5   38 1   
    15    6    7 ar  
    16    6   11 ar  
    17    7    8 ar  
    18    7   13 1   
    19    8    9 ar  
    20    8   40 1   
    21    9   10 ar  
    22    9   41 1   
    23   10   11 ar  
    24   11   12 1   
    25   12   39 1   
    26   13   14 ar  
    27   13   18 ar  
    28   14   15 ar  
    29   14   42 1   
    30   15   16 ar  
    31   15   44 1   
    32   16   17 ar  
    33   16   19 1   
    34   17   18 ar  
    35   17   45 1   
    36   18   43 1   
    37   19   20 2   
    38   19   21 2   
    39   19   22 1   
    40   22   23 1   
    41   22   46 1   
    42   22   56 1   
    43   23   24 1   
    44   23   30 1   
    45   23   47 1   
    46   24   25 1   
    47   24   48 1   
    48   24   49 1   
    49   25   26 1   
    50   25   52 1   
    51   25   53 1   
    52   26   27 2   
    53   26   28 2   
    54   26   29 1   
    55   29   30 1   
    56   29   54 1   
    57   29   55 1   
    58   30   50 1   
    59   30   51 1   
@<TRIPOS>SUBSTRUCTURE
     1 AQ2         1 TEMP              0 ****  ****    0 ROOT
