@<TRIPOS>MOLECULE
AQ2
   55    58     1     0     0
SMALL
bcc


@<TRIPOS>ATOM
      1 C01         6.8240    1.0960   -2.9610 c3        1 AQ2     -0.093100
      2 C02         6.4090   -0.2010   -2.2950 c3        1 AQ2     -0.015500
      3 C03         7.6110   -1.1010   -2.0800 c3        1 AQ2     -0.093100
      4 C04         5.6910    0.0540   -1.0150 cc        1 AQ2     -0.037300
      5 C05         4.3740   -0.2920   -0.7020 cd        1 AQ2     -0.188200
      6 C06         4.1170    0.1510    0.6430 ca        1 AQ2     -0.176100
      7 C07         3.0310    0.1020    1.5290 cp        1 AQ2      0.018000
      8 C08         3.2120    0.6480    2.8000 ca        1 AQ2     -0.257300
      9 C09         4.4530    1.2350    3.1520 ca        1 AQ2      0.408200
     10 N01         5.5240    1.3170    2.3560 nb        1 AQ2     -0.661000
     11 C10         5.3520    0.7750    1.1130 ca        1 AQ2      0.422800
     12 N02         6.2880    0.7050    0.0730 na        1 AQ2     -0.279100
     13 C11         1.7510   -0.4930    1.1480 cp        1 AQ2      0.033000
     14 C12         1.0600   -1.3190    2.0470 ca        1 AQ2     -0.144500
     15 C13        -0.1630   -1.8750    1.6860 ca        1 AQ2     -0.019000
     16 C14        -0.7320   -1.6180    0.4330 ca        1 AQ2     -0.388500
     17 C15        -0.0320   -0.7980   -0.4610 ca        1 AQ2     -0.019000
     18 C16         1.1940   -0.2410   -0.1150 ca        1 AQ2     -0.144500
     19 S01        -2.2010   -2.3170   -0.0070 sy        1 AQ2      1.519200
     20 O01        -2.2710   -2.3810   -1.4160 o         1 AQ2     -0.652300
     21 O02        -2.3500   -3.5250    0.7070 o         1 AQ2     -0.652300
     22 N1         -3.2940   -1.2570    0.5500 n3        1 AQ2     -0.912100
     23 C17        -3.9670   -0.2700   -0.2520 c3        1 AQ2      0.230500
     24 C18        -5.5000   -0.4490   -0.2310 c3        1 AQ2     -0.065900
     25 C19        -6.1670    0.4950   -1.2010 c3        1 AQ2     -0.317600
     26 S          -5.9320    2.1470   -0.8460 s6        1 AQ2      1.326000
     27 O03        -6.3520    2.9140   -1.9410 o         1 AQ2     -0.648800
     28 O1         -6.4750    2.4600    0.4060 o         1 AQ2     -0.648800
     29 C20        -4.2260    2.1750   -0.7750 c3        1 AQ2     -0.317600
     30 C1         -3.6320    1.1720    0.1820 c3        1 AQ2     -0.065900
     31 H011        7.2770    0.8810   -3.9590 hc        1 AQ2      0.041533
     32 H012        5.9410    1.7630   -3.1050 hc        1 AQ2      0.041533
     33 H013        7.5800    1.6370   -2.3420 hc        1 AQ2      0.041533
     34 H02         5.6810   -0.7340   -2.9750 hc        1 AQ2      0.070700
     35 H031        8.3800   -0.5950   -1.4490 hc        1 AQ2      0.041533
     36 H032        7.3040   -2.0490   -1.5760 hc        1 AQ2      0.041533
     37 H033        8.0740   -1.3530   -3.0650 hc        1 AQ2      0.041533
     38 H05         3.6730   -0.8140   -1.3470 ha        1 AQ2      0.162000
     39 HA          7.2160    1.0360    0.1090 hn        1 AQ2      0.311700
     40 H08         2.3960    0.6380    3.5340 ha        1 AQ2      0.144000
     41 H09         4.5850    1.6710    4.1600 h4        1 AQ2      0.025100
     42 H12         1.4950   -1.5360    3.0350 ha        1 AQ2      0.150000
     43 H16         1.7350    0.4000   -0.8290 ha        1 AQ2      0.150000
     44 H13        -0.6870   -2.5460    2.3890 ha        1 AQ2      0.152500
     45 H15        -0.4560   -0.6090   -1.4630 ha        1 AQ2      0.152500
     46 H1         -3.5780   -1.2530    1.5000 hn        1 AQ2      0.447800
     47 H17        -3.6170   -0.4060   -1.3230 h1        1 AQ2      0.079700
     48 H181       -5.7590   -1.5050   -0.5020 hc        1 AQ2      0.065950
     49 H182       -5.8910   -0.2610    0.8050 hc        1 AQ2      0.065950
     50 H11C       -4.0260    1.3590    1.2170 hc        1 AQ2      0.065950
     51 H12C       -2.5190    1.3060    0.2190 hc        1 AQ2      0.065950
     52 H191       -5.8190    0.2530   -2.2420 h1        1 AQ2      0.120950
     53 H192       -7.2670    0.2610   -1.2040 h1        1 AQ2      0.120950
     54 H201       -3.7800    2.0190   -1.7940 h1        1 AQ2      0.120950
     55 H202       -3.8780    3.1980   -0.4600 h1        1 AQ2      0.120950
@<TRIPOS>BOND
     1    1    2 1   
     2    1   31 1   
     3    1   32 1   
     4    1   33 1   
     5    2    3 1   
     6    2    4 1   
     7    2   34 1   
     8    3   35 1   
     9    3   36 1   
    10    3   37 1   
    11    4    5 2   
    12    4   12 1   
    13    5    6 1   
    14    5   38 1   
    15    6    7 ar  
    16    6   11 ar  
    17    7    8 ar  
    18    7   13 1   
    19    8    9 ar  
    20    8   40 1   
    21    9   10 ar  
    22    9   41 1   
    23   10   11 ar  
    24   11   12 1   
    25   12   39 1   
    26   13   14 ar  
    27   13   18 ar  
    28   14   15 ar  
    29   14   42 1   
    30   15   16 ar  
    31   15   44 1   
    32   16   17 ar  
    33   16   19 1   
    34   17   18 ar  
    35   17   45 1   
    36   18   43 1   
    37   19   20 2   
    38   19   21 2   
    39   19   22 1   
    40   22   23 1   
    41   22   46 1   
    42   23   24 1   
    43   23   30 1   
    44   23   47 1   
    45   24   25 1   
    46   24   48 1   
    47   24   49 1   
    48   25   26 1   
    49   25   52 1   
    50   25   53 1   
    51   26   27 2   
    52   26   28 2   
    53   26   29 1   
    54   29   30 1   
    55   29   54 1   
    56   29   55 1   
    57   30   50 1   
    58   30   51 1   
@<TRIPOS>SUBSTRUCTURE
     1 AQ2         1 TEMP              0 ****  ****    0 ROOT
