@<TRIPOS>MOLECULE
AQ2
   56    59     1     0     0
SMALL
bcc


@<TRIPOS>ATOM
      1 C01        -0.2990   -0.3990   -0.3860 c3        1 AQ2     -0.096600
      2 C02         1.1330   -0.3070    0.1030 c3        1 AQ2     -0.022500
      3 C03         1.1770   -0.1640    1.6120 c3        1 AQ2     -0.096600
      4 C04         1.9320   -1.4840   -0.3480 cc        1 AQ2      0.007700
      5 C05         3.0590   -1.4700   -1.1820 cd        1 AQ2     -0.224200
      6 C06         3.4960   -2.8270   -1.3410 ca        1 AQ2     -0.152100
      7 C07         4.5420   -3.4850   -2.0060 cp        1 AQ2     -0.048000
      8 C08         4.6340   -4.8740   -1.8610 ca        1 AQ2     -0.224300
      9 C09         3.6810   -5.5710   -1.0810 ca        1 AQ2      0.402200
     10 N01         2.6600   -5.0050   -0.4260 nb        1 AQ2     -0.620000
     11 C10         2.5760   -3.6510   -0.5510 ca        1 AQ2      0.421800
     12 N02         1.6290   -2.7940    0.0280 na        1 AQ2     -0.266100
     13 C11         5.5020   -2.7690   -2.8310 cp        1 AQ2      0.142000
     14 C12         6.8580   -3.1550   -2.8530 ca        1 AQ2     -0.155000
     15 C13         7.7690   -2.4800   -3.6420 ca        1 AQ2      0.015000
     16 C14         7.3780   -1.3910   -4.4600 ca        1 AQ2     -0.585500
     17 C15         6.0120   -1.0160   -4.4260 ca        1 AQ2      0.015000
     18 C16         5.0970   -1.6820   -3.6350 ca        1 AQ2     -0.155000
     19 S01         8.4390   -0.5670   -5.3030 sy        1 AQ2      1.500200
     20 O01         8.0330    0.6810   -5.7240 o         1 AQ2     -0.575800
     21 O02         9.7630   -0.8270   -5.0140 o         1 AQ2     -0.575800
     22 N1          8.2930   -1.6120   -6.9520 n4        1 AQ2     -0.693900
     23 C17         8.1180   -0.8040   -8.1930 c3        1 AQ2      0.119500
     24 C18         8.6280   -1.5550   -9.4350 c3        1 AQ2     -0.062400
     25 C19         8.5280   -0.6860  -10.6610 c3        1 AQ2     -0.321100
     26 S           6.9190   -0.2590  -11.0780 s6        1 AQ2      1.337000
     27 O03         6.9360    0.6850  -12.0970 o         1 AQ2     -0.624800
     28 O1          6.1580   -1.4210  -11.2150 o         1 AQ2     -0.624800
     29 C20         6.5100    0.5030   -9.5950 c3        1 AQ2     -0.321100
     30 C1          6.6500   -0.3890   -8.3900 c3        1 AQ2     -0.062400
     31 H011       -0.3300   -0.5200   -1.4960 hc        1 AQ2      0.047533
     32 H012       -0.8480    0.5360   -0.1140 hc        1 AQ2      0.047533
     33 H013       -0.8270   -1.2640    0.0820 hc        1 AQ2      0.047533
     34 H02         1.6120    0.6060   -0.3570 hc        1 AQ2      0.072700
     35 H031        0.6690   -1.0250    2.1100 hc        1 AQ2      0.047533
     36 H032        0.6520    0.7750    1.9150 hc        1 AQ2      0.047533
     37 H033        2.2320   -0.1150    1.9720 hc        1 AQ2      0.047533
     38 H05         3.5230   -0.5830   -1.6030 ha        1 AQ2      0.157000
     39 HA          0.8910   -3.0710    0.6250 hn        1 AQ2      0.325700
     40 H08         5.4300   -5.4420   -2.3610 ha        1 AQ2      0.144000
     41 H09         3.7510   -6.6710   -0.9780 h4        1 AQ2      0.041100
     42 H12         7.1940   -3.9920   -2.2160 ha        1 AQ2      0.180000
     43 H16         4.0370   -1.3730   -3.6270 ha        1 AQ2      0.180000
     44 H13         8.8340   -2.7780   -3.6230 ha        1 AQ2      0.163000
     45 H15         5.6800   -0.1570   -5.0400 ha        1 AQ2      0.163000
     46 H1          7.5250   -2.2750   -6.8820 hn        1 AQ2      0.441300
     47 H17         8.7420    0.1320   -8.0530 hx        1 AQ2      0.110700
     48 H181        9.6990   -1.8590   -9.2840 hc        1 AQ2      0.076200
     49 H182        8.0230   -2.4900   -9.5920 hc        1 AQ2      0.076200
     50 H11C        6.0070   -1.3020   -8.5280 hc        1 AQ2      0.076200
     51 H12C        6.2900    0.1620   -7.4800 hc        1 AQ2      0.076200
     52 H191        9.1710    0.2270  -10.5340 h1        1 AQ2      0.134700
     53 H192        9.0030   -1.2460  -11.5170 h1        1 AQ2      0.134700
     54 H201        5.4410    0.8570   -9.6370 h1        1 AQ2      0.134700
     55 H202        7.1080    1.4420   -9.4410 h1        1 AQ2      0.134700
     56 H121        9.1530   -2.1540   -7.0470 hn        1 AQ2      0.441300
@<TRIPOS>BOND
     1    1    2 1   
     2    1   31 1   
     3    1   32 1   
     4    1   33 1   
     5    2    3 1   
     6    2    4 1   
     7    2   34 1   
     8    3   35 1   
     9    3   36 1   
    10    3   37 1   
    11    4    5 2   
    12    4   12 1   
    13    5    6 1   
    14    5   38 1   
    15    6    7 ar  
    16    6   11 ar  
    17    7    8 ar  
    18    7   13 1   
    19    8    9 ar  
    20    8   40 1   
    21    9   10 ar  
    22    9   41 1   
    23   10   11 ar  
    24   11   12 1   
    25   12   39 1   
    26   13   14 ar  
    27   13   18 ar  
    28   14   15 ar  
    29   14   42 1   
    30   15   16 ar  
    31   15   44 1   
    32   16   17 ar  
    33   16   19 1   
    34   17   18 ar  
    35   17   45 1   
    36   18   43 1   
    37   19   20 2   
    38   19   21 2   
    39   19   22 1   
    40   22   23 1   
    41   22   46 1   
    42   22   56 1   
    43   23   24 1   
    44   23   30 1   
    45   23   47 1   
    46   24   25 1   
    47   24   48 1   
    48   24   49 1   
    49   25   26 1   
    50   25   52 1   
    51   25   53 1   
    52   26   27 2   
    53   26   28 2   
    54   26   29 1   
    55   29   30 1   
    56   29   54 1   
    57   29   55 1   
    58   30   50 1   
    59   30   51 1   
@<TRIPOS>SUBSTRUCTURE
     1 AQ2         1 TEMP              0 ****  ****    0 ROOT
