@<TRIPOS>MOLECULE
AQ3
   49    47     1     0     0
SMALL
bcc


@<TRIPOS>ATOM
      1 O           1.5550   -2.7670    1.2430 oh        1 AQ3     -0.328000
      2 C2          2.7780   -2.0460    1.3180 c3        1 AQ3      0.069000
      3 C3          3.9030   -2.8410    0.8050 c1        1 AQ3     -0.067000
      4 C4          6.0240    0.7230    0.4480 c1        1 AQ3     -0.264000
      5 C5          4.8570    0.5760    0.6700 c1        1 AQ3     -0.142000
      6 C6          3.4520    0.4070    0.9330 c3        1 AQ3      0.050000
      7 C1          2.8890   -0.8600    0.3930 c2        1 AQ3     -0.450000
      8 N           2.4840   -0.9320   -0.8790 n2        1 AQ3      0.076000
      9 O3P        -0.2770    2.6600  -11.2800 o         1 AQ3     -1.157667
     10 P           0.5320    3.0890  -10.1290 p3        1 AQ3      2.488000
     11 O1P         1.6270    4.0560  -10.3050 o         1 AQ3     -1.157667
     12 O2P         0.4470    2.3210   -8.8560 o         1 AQ3     -1.157667
     13 O4P        -1.0380    4.4600   -8.7620 o         1 AQ3     -0.456000
     14 C51        -2.3260    3.9930   -6.8030 c2        1 AQ3     -0.515000
     15 C61        -3.6210    4.1090   -7.3440 c2        1 AQ3      0.077000
     16 N1         -4.7660    3.9730   -6.6860 n2        1 AQ3     -0.314000
     17 C41        -2.1700    3.4560   -5.4280 c3        1 AQ3      0.045000
     18 C31        -3.4720    3.4750   -4.6960 c2        1 AQ3     -0.163000
     19 O3         -3.4380    3.1960   -3.3350 oh        1 AQ3     -0.285000
     20 C21        -4.6730    3.7110   -5.3220 c2        1 AQ3      0.006000
     21 C2A        -5.9470    3.6760   -4.5400 c3        1 AQ3     -0.150000
     22 N2         -0.4900    1.7680   -6.3140 ny        1 AQ3     -0.008000
     23 CA          0.0020    0.3720   -6.2710 c3        1 AQ3     -0.181000
     24 C           0.6810   -0.0070   -4.9480 c2        1 AQ3      0.314000
     25 OXT         0.9270   -1.2340   -4.7390 o         1 AQ3     -0.573000
     26 O1          0.9870    0.8840   -4.1030 o         1 AQ3     -0.573000
     27 CB          2.1280   -0.9640   -1.9890 c1        1 AQ3     -0.031000
     28 H1          0.8650   -2.1270    1.0320 ho        1 AQ3      0.199000
     29 H2          2.8730   -1.6840    2.3860 h1        1 AQ3      0.048000
     30 H3          4.8670   -2.5430    1.2520 ha        1 AQ3      0.016000
     31 H4          7.0530    0.8490    0.2370 ha        1 AQ3      0.208000
     32 H5          3.2890    0.4220    2.0490 hc        1 AQ3      0.091500
     33 H6          2.9040    1.3000    0.5100 hc        1 AQ3      0.091500
     34 H9         -0.2580    4.5820   -6.8840 h4        1 AQ3      0.041000
     35 H10        -2.5050    1.3310   -5.8390 hx        1 AQ3      0.120500
     36 H11        -3.7130    4.3730   -8.4170 h4        1 AQ3      0.138000
     37 H12        -2.7350    3.7530   -2.9720 ho        1 AQ3      0.185000
     38 H13        -6.5020    2.7320   -4.7660 hc        1 AQ3      0.067667
     39 H14        -5.7270    3.7060   -3.4450 hc        1 AQ3      0.067667
     40 H15        -6.6040    4.5410   -4.8030 hc        1 AQ3      0.067667
     41 H16        -1.4100    1.6640   -4.4040 hx        1 AQ3      0.120500
     42 H17        -1.4010    4.0480   -4.8490 hc        1 AQ3      0.053000
     43 H18         0.7480    0.2620   -7.1110 hx        1 AQ3      0.135000
     44 H20         0.2710    2.3800   -5.9990 hn        1 AQ3      0.275000
     45 H22         1.7340   -0.9430   -3.0240 ha        1 AQ3      0.390000
     46 H23        -0.8600   -0.3230   -6.4560 hx        1 AQ3      0.135000
     47 H221       -0.7030    2.0240   -7.3070 hn        1 AQ3      0.275000
     48 C4A        -1.6770    1.9840   -5.4510 c3        1 AQ3     -0.148000
     49 C5A        -1.1600    4.3790   -7.5180 c2        1 AQ3      0.270000
@<TRIPOS>BOND
     1    1    2 1   
     2    1   28 1   
     3    2    3 1   
     4    2    7 1   
     5    2   29 1   
     6    3   30 1   
     7    4    5 1   
     8    4   31 1   
     9    5    6 1   
    10    6    7 1   
    11    6   32 1   
    12    6   33 1   
    13    7    8 1   
    14    8   27 1   
    15    9   10 1   
    16   10   11 1   
    17   10   12 1   
    18   13   49 1   
    19   14   15 1   
    20   14   17 1   
    21   14   49 1   
    22   15   16 1   
    23   15   36 1   
    24   16   20 1   
    25   17   18 1   
    26   17   42 1   
    27   17   48 1   
    28   18   19 1   
    29   18   20 1   
    30   19   37 1   
    31   20   21 1   
    32   21   38 1   
    33   21   39 1   
    34   21   40 1   
    35   22   23 1   
    36   22   44 1   
    37   22   47 1   
    38   22   48 1   
    39   23   24 1   
    40   23   43 1   
    41   23   46 1   
    42   24   25 1   
    43   24   26 1   
    44   27   45 1   
    45   34   49 1   
    46   35   48 1   
    47   41   48 1   
@<TRIPOS>SUBSTRUCTURE
     1 AQ3         1 TEMP              0 ****  ****    0 ROOT
