@<TRIPOS>MOLECULE
AQ3
   48    49     1     0     0
SMALL
bcc


@<TRIPOS>ATOM
      1 O          -1.0460   -1.4310    2.0510 oh        1 AQ3     -0.553100
      2 C2         -2.1540   -0.6600    1.8280 ca        1 AQ3      0.124100
      3 C3         -2.3590    0.5500    2.5050 ca        1 AQ3     -0.166000
      4 C4         -3.5330    1.2660    2.2900 ca        1 AQ3     -0.130000
      5 C5         -4.4930    0.7870    1.4010 ca        1 AQ3     -0.189000
      6 C6         -4.2840   -0.4000    0.7030 ca        1 AQ3     -0.137000
      7 C1         -3.1110   -1.1540    0.8900 ca        1 AQ3      0.059600
      8 N          -2.9270   -2.3940    0.2210 nh        1 AQ3     -0.710600
      9 O3P         2.0560    2.7040    3.1780 o         1 AQ3     -0.922833
     10 P           2.0910    1.2480    3.5660 p5        1 AQ3      1.314900
     11 O1P         3.3800    0.5360    3.2630 o         1 AQ3     -0.922833
     12 O2P         1.3810    0.8740    4.8350 o         1 AQ3     -0.922833
     13 O4P         0.9980    0.5490    2.3960 os        1 AQ3     -0.585200
     14 C51         0.8920    1.2210    0.0940 ca        1 AQ3     -0.154600
     15 C61         0.7800    2.6020    0.4280 ca        1 AQ3      0.355200
     16 N1          0.2800    3.5310   -0.3890 nb        1 AQ3     -0.681000
     17 C41         0.4530    0.7960   -1.1630 ca        1 AQ3     -0.177300
     18 C31        -0.0920    1.7770   -2.0270 ca        1 AQ3      0.017800
     19 O3         -0.5480    1.5270   -3.2990 oh        1 AQ3     -0.557100
     20 C21        -0.1600    3.1300   -1.6130 ca        1 AQ3      0.298600
     21 C2A        -0.7250    4.1320   -2.5630 c3        1 AQ3     -0.105400
     22 N2         -0.4200   -1.5830   -1.1880 n3        1 AQ3     -0.804200
     23 CA         -1.6960   -1.5060   -1.8890 c3        1 AQ3      0.027500
     24 C          -1.5880   -1.9850   -3.3740 c         1 AQ3      0.921600
     25 OXT        -2.0570   -3.1100   -3.7080 o         1 AQ3     -0.858800
     26 O1         -1.0710   -1.1870   -4.2150 o         1 AQ3     -0.858800
     27 CB         -2.8190   -2.3420   -1.2240 c3        1 AQ3      0.171800
     28 H1         -0.3460   -0.8690    2.4600 ho        1 AQ3      0.508000
     29 H2         -1.5520    0.9370    3.1560 ha        1 AQ3      0.198000
     30 H3         -3.6870    2.2220    2.8090 ha        1 AQ3      0.110000
     31 H4         -5.4140    1.3590    1.2270 ha        1 AQ3      0.090000
     32 H5         -5.0370   -0.7430   -0.0220 ha        1 AQ3      0.111000
     33 H6         -2.1250   -2.8650    0.6080 hn        1 AQ3      0.382800
     34 H9          2.6380    0.5280    1.1460 h1        1 AQ3      0.021700
     35 H10         1.3500   -0.7480    0.8580 h1        1 AQ3      0.021700
     36 H11         1.1450    2.9130    1.4560 h4        1 AQ3      0.135100
     37 H12        -0.7020    0.5660   -3.4070 ho        1 AQ3      0.474000
     38 H13        -1.6620    3.7240   -3.0160 hc        1 AQ3      0.018700
     39 H14        -0.9550    5.1060   -2.0660 hc        1 AQ3      0.018700
     40 H15         0.0060    4.3160   -3.3890 hc        1 AQ3      0.018700
     41 H16         0.6400   -0.6700   -2.7500 h1        1 AQ3      0.059700
     42 H17         1.5690   -1.0260   -1.2290 h1        1 AQ3      0.059700
     43 H18        -0.5620   -1.4610   -0.1980 hn        1 AQ3      0.363800
     44 H20        -2.0540   -0.4310   -1.9330 h1        1 AQ3      0.015700
     45 H22        -2.7040   -3.4110   -1.5710 h1        1 AQ3      0.053200
     46 H23        -3.7920   -1.9480   -1.6310 h1        1 AQ3      0.053200
     47 C4A         0.5850   -0.6340   -1.6220 c3        1 AQ3      0.199100
     48 C5A         1.5230    0.3320    1.1410 c3        1 AQ3      0.234700
@<TRIPOS>BOND
     1    1    2 1   
     2    1   28 1   
     3    2    3 ar  
     4    2    7 ar  
     5    3    4 ar  
     6    3   29 1   
     7    4    5 ar  
     8    4   30 1   
     9    5    6 ar  
    10    5   31 1   
    11    6    7 ar  
    12    6   32 1   
    13    7    8 1   
    14    8   27 1   
    15    8   33 1   
    16    9   10 1   
    17   10   11 1   
    18   10   12 1   
    19   10   13 1   
    20   13   48 1   
    21   14   15 ar  
    22   14   17 ar  
    23   14   48 1   
    24   15   16 ar  
    25   15   36 1   
    26   16   20 ar  
    27   17   18 ar  
    28   17   47 1   
    29   18   19 1   
    30   18   20 ar  
    31   19   37 1   
    32   20   21 1   
    33   21   38 1   
    34   21   39 1   
    35   21   40 1   
    36   22   23 1   
    37   22   43 1   
    38   22   47 1   
    39   23   24 1   
    40   23   27 1   
    41   23   44 1   
    42   24   25 1   
    43   24   26 1   
    44   27   45 1   
    45   27   46 1   
    46   34   48 1   
    47   35   48 1   
    48   41   47 1   
    49   42   47 1   
@<TRIPOS>SUBSTRUCTURE
     1 AQ3         1 TEMP              0 ****  ****    0 ROOT
