@<TRIPOS>MOLECULE
AQ3
   48    45     1     0     0
SMALL
bcc


@<TRIPOS>ATOM
      1 O         219.6550  -71.4450  527.9190 oh        1 AQ3     -0.343000
      2 C2        218.4320  -71.1210  527.2680 c3        1 AQ3      0.019000
      3 C3        218.4670  -69.6100  526.9810 c3        1 AQ3     -0.125000
      4 C4        217.2370  -68.9600  526.5500 c1        1 AQ3     -0.154000
      5 C5        216.0740  -69.5590  526.2830 c1        1 AQ3     -0.563000
      6 C6        214.9410  -70.0140  526.0000 c1        1 AQ3     -0.187000
      7 C1        218.1610  -71.8910  525.9990 c2        1 AQ3     -0.077000
      8 N         218.7890  -72.9550  525.6410 n2        1 AQ3     -0.251000
      9 O3P      -120.9550   38.4730 -297.1160 o         1 AQ3     -1.132667
     10 P        -121.6600   38.4440 -298.4180 p3        1 AQ3      2.406000
     11 O1P      -120.8910   38.4310 -299.6720 o         1 AQ3     -1.132667
     12 O2P      -123.1280   38.3240 -298.4520 o         1 AQ3     -1.132667
     13 O4P      -121.2250   40.7740 -297.2590 o         1 AQ3     -0.167000
     14 C51      -120.1110   40.8350 -295.0010 c2        1 AQ3     -0.346000
     15 C61      -119.7090   39.5590 -294.4150 c2        1 AQ3      0.019000
     16 N1       -119.2170   39.4110 -293.2250 n2        1 AQ3     -0.182000
     17 C41      -119.8640   42.1030 -294.2500 c3        1 AQ3      0.005000
     18 C31      -119.3850   41.8120 -292.8570 c2        1 AQ3      0.025000
     19 O3       -119.3130   42.8520 -291.9640 oh        1 AQ3     -0.285000
     20 C21      -119.0690   40.5530 -292.4140 c2        1 AQ3     -0.129000
     21 C2A      -118.5830   40.3320 -291.0210 c3        1 AQ3     -0.133000
     22 N2       -118.7390   44.3150 -294.4900 n2        1 AQ3     -0.251000
     23 CA       -118.6620   45.3250 -295.2740 c2        1 AQ3     -0.078000
     24 C        -118.4990   46.7760 -294.7980 c2        1 AQ3      0.367000
     25 OXT      -117.3290   47.2450 -294.8010 o         1 AQ3     -0.559000
     26 O1       -119.5450   47.4150 -294.5100 o         1 AQ3     -0.559000
     27 CB        218.4390  -73.6240  524.4280 c3        1 AQ3     -0.137000
     28 H1        219.7050  -72.4050  527.9800 ho        1 AQ3      0.192000
     29 H2        217.5750  -71.3470  527.9680 h1        1 AQ3      0.090000
     30 H3        218.8080  -69.1050  527.9270 hc        1 AQ3      0.092500
     31 H4        219.2510  -69.4130  526.2000 hc        1 AQ3      0.092500
     32 H5        217.3180  -71.4290  525.4260 h4        1 AQ3      0.153000
     33 H6        217.5940  -73.1590  523.8480 h1        1 AQ3      0.065667
     34 H9       -125.9900   37.8430 -298.7240 ha        1 AQ3     -0.000500
     35 H10      -125.3280   37.9820 -298.6480 ha        1 AQ3     -0.000500
     36 H11      -119.8540   38.6570 -295.0530 h4        1 AQ3      0.203000
     37 H12      -119.2200   43.6830 -292.4640 ho        1 AQ3      0.261000
     38 H13      -117.7240   39.6170 -291.0050 hc        1 AQ3      0.068333
     39 H14      -118.2540   41.3020 -290.5740 hc        1 AQ3      0.068333
     40 H15      -119.4030   39.9080 -290.3900 hc        1 AQ3      0.068333
     41 H16      -117.8320   42.4920 -294.9340 h1        1 AQ3      0.071000
     42 H17      -120.8340   42.6760 -294.1600 hc        1 AQ3      0.098000
     43 H18      -119.1360   42.9490 -296.1120 h1        1 AQ3      0.071000
     44 H20      -118.6940   45.2470 -296.3840 h4        1 AQ3      0.067000
     45 H22       218.1530  -74.6810  524.6790 h1        1 AQ3      0.065667
     46 H23       219.3460  -73.6520  523.7660 h1        1 AQ3      0.065667
     47 C4A      -118.8450   42.9780 -295.0200 c3        1 AQ3     -0.103000
     48 C5A      -120.6980   40.8200 -296.1950 c1        1 AQ3      0.394000
@<TRIPOS>BOND
     1    1    2 1   
     2    1   28 1   
     3    2    3 1   
     4    2    7 1   
     5    2   29 1   
     6    3    4 1   
     7    3   30 1   
     8    3   31 1   
     9    4    5 1   
    10    5    6 1   
    11    7    8 1   
    12    7   32 1   
    13    8   27 1   
    14    9   10 1   
    15   10   11 1   
    16   10   12 1   
    17   13   48 1   
    18   14   15 1   
    19   14   17 1   
    20   14   48 1   
    21   15   16 1   
    22   15   36 1   
    23   16   20 1   
    24   17   18 1   
    25   17   42 1   
    26   17   47 1   
    27   18   19 1   
    28   18   20 1   
    29   19   37 1   
    30   20   21 1   
    31   21   38 1   
    32   21   39 1   
    33   21   40 1   
    34   22   23 1   
    35   22   47 1   
    36   23   24 1   
    37   23   44 1   
    38   24   25 1   
    39   24   26 1   
    40   27   33 1   
    41   27   45 1   
    42   27   46 1   
    43   34   35 1   
    44   41   47 1   
    45   43   47 1   
@<TRIPOS>SUBSTRUCTURE
     1 AQ3         1 TEMP              0 ****  ****    0 ROOT
