@<TRIPOS>MOLECULE
AQ3
   49    50     1     0     0
SMALL
bcc


@<TRIPOS>ATOM
      1 O           1.9260    1.4230    1.1780 oh        1 AQ3     -0.347000
      2 C2          2.7550    0.5370    0.4420 c3        1 AQ3      0.014000
      3 C3          2.5380   -0.8960    0.9560 c3        1 AQ3     -0.199000
      4 C4          2.2610   -1.7720   -0.2200 c1        1 AQ3     -0.105000
      5 C5          2.1580   -0.9820   -1.3690 c2        1 AQ3     -0.437000
      6 C6          1.8100   -1.5490   -2.5920 c1        1 AQ3      0.039000
      7 C1          2.3650    0.4980   -1.0760 c3        1 AQ3     -0.062000
      8 N           3.2970    1.2550   -1.8810 n2        1 AQ3     -0.203000
      9 O3P        -0.8960    3.5050  -11.0680 o         1 AQ3     -0.868500
     10 P          -0.3380    3.7310   -9.7170 p5        1 AQ3      1.517500
     11 O1P         0.4370    4.9550   -9.3980 o         1 AQ3     -0.868500
     12 O2P        -0.0980    2.5610   -8.8060 o         1 AQ3     -0.868500
     13 O4P        -1.9170    4.2350   -8.6540 os        1 AQ3     -0.483000
     14 C51        -2.3770    3.7190   -6.3580 c2        1 AQ3     -0.458000
     15 C61        -3.7700    3.8610   -6.3080 c2        1 AQ3      0.081000
     16 N1         -4.5650    3.5110   -5.2960 n2        1 AQ3     -0.313000
     17 C41        -1.6730    2.9930   -5.2630 c3        1 AQ3      0.065000
     18 C31        -2.6020    2.6640   -4.1490 c2        1 AQ3     -0.210000
     19 O3         -2.0020    2.0240   -3.0720 oh        1 AQ3     -0.311000
     20 C21        -3.9550    2.9150   -4.2050 c2        1 AQ3      0.011000
     21 C2A        -4.8020    2.5670   -3.0220 c3        1 AQ3     -0.165000
     22 N2         -0.1460    0.9910   -5.0120 n4        1 AQ3     -0.006000
     23 CA          0.4660   -0.1690   -5.7020 c3        1 AQ3     -0.162000
     24 C           1.4010   -1.0090   -4.8500 c2        1 AQ3      0.317000
     25 OXT         2.0370   -1.9590   -5.3000 o         1 AQ3     -0.307000
     26 O1          1.5470   -0.5690   -3.5740 os        1 AQ3     -0.311000
     27 CB          4.0720    0.7040   -2.7300 c2        1 AQ3     -0.126000
     28 H1          1.8860    2.2430    0.6740 ho        1 AQ3      0.192000
     29 H2          3.8230    0.8570    0.5870 h1        1 AQ3      0.058000
     30 H3          3.4390   -1.2570    1.5080 hc        1 AQ3      0.092000
     31 H4          1.6620   -0.9310    1.6530 hc        1 AQ3      0.092000
     32 H5          1.3780    1.0360   -1.2020 h1        1 AQ3      0.090000
     33 H6          4.1270   -0.3770   -2.9650 h4        1 AQ3      0.105500
     34 H9         -0.4610    4.2420   -7.2210 h4        1 AQ3      0.125000
     35 H10        -0.5780    1.9480   -6.8910 hx        1 AQ3      0.176500
     36 H11        -4.2800    4.3360   -7.1700 h4        1 AQ3      0.140000
     37 H12        -2.1880    2.5620   -2.2910 ho        1 AQ3      0.197000
     38 H13        -5.8880    2.5340   -3.2790 hc        1 AQ3      0.071667
     39 H14        -4.4950    1.5700   -2.6200 hc        1 AQ3      0.071667
     40 H15        -4.6510    3.3330   -2.2200 hc        1 AQ3      0.071667
     41 H16        -0.8030    3.5970   -4.8710 hc        1 AQ3      0.060000
     42 H17        -1.9540    0.9960   -6.1240 hx        1 AQ3      0.176500
     43 H18         1.0310    0.2110   -6.6070 hx        1 AQ3      0.168000
     44 H20        -0.6260    0.6850   -4.1530 hn        1 AQ3      0.249000
     45 H22         4.7460    1.3580   -3.3120 h4        1 AQ3      0.105500
     46 H23        -0.3610   -0.8430   -6.0690 hx        1 AQ3      0.168000
     47 H221        0.5930    1.6390   -4.7230 hn        1 AQ3      0.249000
     48 C4A        -1.1070    1.7020   -5.9080 c3        1 AQ3     -0.190000
     49 C5A        -1.5500    4.1050   -7.4470 c2        1 AQ3      0.298000
@<TRIPOS>BOND
     1    1    2 1   
     2    1   28 1   
     3    2    3 1   
     4    2    7 1   
     5    2   29 1   
     6    3    4 1   
     7    3   30 1   
     8    3   31 1   
     9    4    5 1   
    10    5    6 1   
    11    5    7 1   
    12    6   26 1   
    13    7    8 1   
    14    7   32 1   
    15    8   27 1   
    16    9   10 1   
    17   10   11 1   
    18   10   12 1   
    19   10   13 1   
    20   13   49 1   
    21   14   15 1   
    22   14   17 1   
    23   14   49 1   
    24   15   16 1   
    25   15   36 1   
    26   16   20 1   
    27   17   18 1   
    28   17   41 1   
    29   17   48 1   
    30   18   19 1   
    31   18   20 1   
    32   19   37 1   
    33   20   21 1   
    34   21   38 1   
    35   21   39 1   
    36   21   40 1   
    37   22   23 1   
    38   22   44 1   
    39   22   47 1   
    40   22   48 1   
    41   23   24 1   
    42   23   43 1   
    43   23   46 1   
    44   24   25 1   
    45   24   26 1   
    46   27   33 1   
    47   27   45 1   
    48   34   49 1   
    49   35   48 1   
    50   42   48 1   
@<TRIPOS>SUBSTRUCTURE
     1 AQ3         1 TEMP              0 ****  ****    0 ROOT
