@<TRIPOS>MOLECULE
AQ3
   48    39     1     0     0
SMALL
bcc


@<TRIPOS>ATOM
      1 O           4.0800   -3.9180   -0.0040 oh        1 AQ3     -0.310000
      2 C2          4.4150   -3.2330    1.1570 c2        1 AQ3      0.041000
      3 C3          5.6620   -3.4330    1.7510 c2        1 AQ3     -0.153000
      4 C4          5.9550   -2.8380    2.9920 c1        1 AQ3     -0.177000
      5 C5          5.0110   -2.0590    3.6220 c1        1 AQ3     -0.152500
      6 C6          3.7570   -1.8560    3.0270 c1        1 AQ3     -0.152500
      7 C1          3.4630   -2.4450    1.7940 c1        1 AQ3      0.034000
      8 N           2.0820   -2.3490    1.2390 n2        1 AQ3     -0.273000
      9 O3P        -2.6270    3.8570   -6.1200 o         1 AQ3     -1.244000
     10 P          -2.0770    2.7450   -5.2990 p3        1 AQ3      2.508000
     11 O1P        -2.7480    1.4710   -5.6810 o         1 AQ3     -1.244000
     12 O2P        -0.6230    2.6320   -5.5400 o         1 AQ3     -1.244000
     13 O4P        -2.3400    3.0430   -3.7380 o         1 AQ3     -0.726000
     14 C5A        -1.8140    2.1160   -2.7610 c3        1 AQ3      0.084000
     15 C51        -2.6020    2.2420   -1.4760 c1        1 AQ3     -0.070000
     16 C61        -3.4730    3.3160   -1.2980 c1        1 AQ3     -0.093000
     17 N1         -4.1630    3.4470   -0.1330 n1        1 AQ3     -0.157000
     18 C41        -2.4390    1.2990   -0.4540 c1        1 AQ3     -0.137000
     19 C31        -3.1400    1.4390    0.7200 c1        1 AQ3     -0.052500
     20 O3         -3.0490    0.4210    1.7440 o         1 AQ3     -0.298000
     21 C21        -4.0050    2.5130    0.8860 c1        1 AQ3     -0.052500
     22 C2A        -4.8180    2.6630    2.2050 c2        1 AQ3     -0.129000
     23 C4A        -1.5510    0.0430   -0.6820 c3        1 AQ3     -0.025000
     24 N2         -0.3320    0.1540    0.1210 n3        1 AQ3     -0.322000
     25 CA          0.3630   -1.1490    0.1510 c3        1 AQ3     -0.102000
     26 C           0.9240   -1.4630   -1.2360 c1        1 AQ3      0.311000
     27 OXT         0.4990   -2.4570   -1.8750 os        1 AQ3     -0.640000
     28 O1          1.8390   -0.7130   -1.7460 o         1 AQ3     -0.530000
     29 CB          1.4600   -1.0890    1.1280 c3        1 AQ3     -0.058000
     30 H1          4.6150   -3.6780   -0.6520 ho        1 AQ3      0.286000
     31 H2          6.3450   -3.9980    1.2990 ha        1 AQ3      0.120000
     32 H3          6.8210   -2.9770    3.4060 ha        1 AQ3      0.099000
     33 H4          5.1710   -1.7460    4.5290 ha        1 AQ3      0.120000
     34 H5          3.0840   -1.3000    3.4780 ha        1 AQ3      0.120000
     35 H6          1.6040   -3.1310    1.0250 hn        1 AQ3      0.220000
     36 H9         -1.8860    1.2280   -3.0930 h1        1 AQ3      0.062500
     37 H10        -0.8690    2.3260   -2.5880 h1        1 AQ3      0.062500
     38 H11        -3.5760    4.0170   -2.0300 ha        1 AQ3      0.287000
     39 H12        -3.7860   -0.0880    1.7260 ho        1 AQ3      0.223000
     40 H13        -5.5330    1.9990    2.2230 ha        1 AQ3      0.057333
     41 H14        -4.2450    2.5310    2.9470 ha        1 AQ3      0.057333
     42 H15        -5.2110    3.5730    2.2490 ha        1 AQ3      0.057333
     43 H16        -2.0620   -0.7850   -0.4030 h1        1 AQ3      0.079000
     44 H17        -1.3100   -0.0240   -1.6540 h1        1 AQ3      0.079000
     45 H18         0.1940    0.7590   -0.2260 hn        1 AQ3      0.191000
     46 H20        -0.2590   -1.8350    0.4110 h1        1 AQ3      0.082000
     47 H22         1.0950   -0.8240    2.0140 h1        1 AQ3      0.082000
     48 H23         2.1000   -0.4490    0.8450 h1        1 AQ3      0.082000
@<TRIPOS>BOND
     1    1    2 1   
     2    1   30 1   
     3    2    3 1   
     4    2    7 1   
     5    3    4 1   
     6    3   31 1   
     7    4   32 1   
     8    5    6 1   
     9    5   33 1   
    10    6   34 1   
    11    8   29 1   
    12    8   35 1   
    13    9   10 1   
    14   10   11 1   
    15   10   12 1   
    16   13   14 1   
    17   14   15 1   
    18   14   36 1   
    19   14   37 1   
    20   15   18 1   
    21   16   17 1   
    22   16   38 1   
    23   18   23 1   
    24   19   21 1   
    25   20   39 1   
    26   22   40 1   
    27   22   41 1   
    28   22   42 1   
    29   23   24 1   
    30   23   43 1   
    31   23   44 1   
    32   24   25 1   
    33   24   45 1   
    34   25   26 1   
    35   25   29 1   
    36   25   46 1   
    37   26   28 1   
    38   29   47 1   
    39   29   48 1   
@<TRIPOS>SUBSTRUCTURE
     1 AQ3         1 TEMP              0 ****  ****    0 ROOT
