@<TRIPOS>MOLECULE
AQ4
   52    44     1     0     0
SMALL
bcc


@<TRIPOS>ATOM
      1 C1         -8.0050   -2.9580   -1.2150 c1        1 AQ4     -0.161000
      2 C2         -7.3330   -2.1730   -0.5120 c1        1 AQ4     -0.161000
      3 C3         -6.4880   -1.1870    0.3680 c1        1 AQ4      0.045500
      4 C4         -5.1030   -1.3150    0.4210 c1        1 AQ4     -0.125000
      5 C5         -4.3610   -0.4090    1.1200 c1        1 AQ4      0.045500
      6 N1         -2.9730   -0.4210    1.0020 n2        1 AQ4     -0.241000
      7 C6         -2.1440   -0.7130    2.1690 c2        1 AQ4      0.168000
      8 C7         -0.7640   -0.6090    1.8470 c1        1 AQ4     -0.150000
      9 C8         -0.3250    0.3490    0.8530 c1        1 AQ4     -0.165000
     10 C9          1.0140    0.3800    0.4540 c1        1 AQ4      0.067000
     11 O1          1.7490    1.3550   -0.1400 o         1 AQ4     -0.191000
     12 C10         1.1880    1.8500   -1.4070 c3        1 AQ4     -0.031000
     13 C11         2.2540    2.6910   -2.1380 c3        1 AQ4     -0.027000
     14 O2          2.0410    2.6130   -3.5570 os        1 AQ4     -0.282000
     15 C12         2.5910    3.6560   -4.2670 c3        1 AQ4     -0.072000
     16 C13         1.9260   -0.5050    1.0100 c2        1 AQ4      0.105000
     17 O3          3.2830   -0.0100    0.8990 os        1 AQ4     -0.190000
     18 C14         4.2210   -0.9940    0.6600 c3        1 AQ4     -0.032000
     19 C15         5.4460   -0.3780   -0.0180 c3        1 AQ4     -0.027000
     20 O4          6.0250   -1.3070   -0.8540 os        1 AQ4     -0.279000
     21 C16         7.0090   -0.7460   -1.7730 c3        1 AQ4     -0.072000
     22 C17         1.5050   -1.4330    1.9720 c1        1 AQ4     -0.190000
     23 C18         0.1140   -1.4660    2.3870 c1        1 AQ4      0.053000
     24 N2         -0.3310   -2.4560    3.2610 n2        1 AQ4     -0.187000
     25 C19        -1.6670   -2.5530    3.5700 c1        1 AQ4      0.001000
     26 N3         -2.5700   -1.6700    3.0130 n1        1 AQ4     -0.237000
     27 C20        -5.0090    0.6660    1.7940 c1        1 AQ4     -0.125000
     28 C21        -6.3730    0.7890    1.7390 c1        1 AQ4     -0.119500
     29 C22        -7.1190   -0.1280    1.0320 c1        1 AQ4     -0.119500
     30 H1         -8.5530   -3.5960   -1.7890 DU        1 AQ4      0.225000
     31 H2         -4.6570   -2.1640    0.0550 ha        1 AQ4      0.145500
     32 H3         -2.5610   -0.3360    0.1290 hn        1 AQ4      0.221000
     33 H4         -0.9570    1.0110    0.4950 ha        1 AQ4      0.141000
     34 H5          0.9280    1.0880   -1.9750 h1        1 AQ4      0.094500
     35 H6          0.3890    2.4120   -1.2220 h1        1 AQ4      0.094500
     36 H7          3.1660    2.3350   -1.9180 h1        1 AQ4      0.088500
     37 H8          2.1920    3.6100   -1.8490 h1        1 AQ4      0.088500
     38 H9          2.1360    4.5030   -4.0210 h1        1 AQ4      0.074667
     39 H10         3.6100    3.7280   -4.0440 h1        1 AQ4      0.074667
     40 H11         2.4720    3.4850   -5.2520 h1        1 AQ4      0.074667
     41 H12         3.8400   -1.6660    0.0890 h1        1 AQ4      0.100000
     42 H13         4.4750   -1.3810    1.4640 h1        1 AQ4      0.100000
     43 H14         5.1640    0.4190   -0.5500 h1        1 AQ4      0.087500
     44 H15         6.1270   -0.0910    0.6970 h1        1 AQ4      0.087500
     45 H16         6.9290   -1.2160   -2.6900 h1        1 AQ4      0.074000
     46 H17         7.8790   -0.8800   -1.4230 h1        1 AQ4      0.074000
     47 H18         6.8330    0.2810   -1.8880 h1        1 AQ4      0.074000
     48 H19         2.1450   -2.0520    2.3640 ha        1 AQ4      0.164000
     49 H20        -1.9590   -3.2060    4.1480 ha        1 AQ4      0.190000
     50 H21        -4.4710    1.3240    2.3060 ha        1 AQ4      0.145500
     51 H22        -6.8070    1.5100    2.1920 ha        1 AQ4      0.139500
     52 H23        -8.1240   -0.0370    0.9900 ha        1 AQ4      0.139500
@<TRIPOS>BOND
     1    1    2 1   
     2    3    4 1   
     3    4   31 1   
     4    5   27 1   
     5    6    7 1   
     6    6   32 1   
     7    7    8 1   
     8    7   26 1   
     9    8   23 1   
    10    9   10 1   
    11    9   33 1   
    12   10   16 1   
    13   11   12 1   
    14   12   13 1   
    15   12   34 1   
    16   12   35 1   
    17   13   14 1   
    18   13   36 1   
    19   13   37 1   
    20   14   15 1   
    21   15   38 1   
    22   15   39 1   
    23   15   40 1   
    24   16   17 1   
    25   16   22 1   
    26   17   18 1   
    27   18   19 1   
    28   18   41 1   
    29   18   42 1   
    30   19   20 1   
    31   19   43 1   
    32   19   44 1   
    33   20   21 1   
    34   21   45 1   
    35   21   46 1   
    36   21   47 1   
    37   22   48 1   
    38   23   24 1   
    39   24   25 1   
    40   25   49 1   
    41   27   50 1   
    42   28   29 1   
    43   28   51 1   
    44   29   52 1   
@<TRIPOS>SUBSTRUCTURE
     1 AQ4         1 TEMP              0 ****  ****    0 ROOT
