@<TRIPOS>MOLECULE
AQ4
   52    54     1     0     0
SMALL
bcc


@<TRIPOS>ATOM
      1 C1         -7.8370    1.2010   -1.9870 c1        1 AQ4     -0.133500
      2 C2         -7.0930    0.5350   -1.3260 cg        1 AQ4     -0.125000
      3 C3         -6.2180   -0.2480   -0.5460 ca        1 AQ4      0.036000
      4 C4         -4.8390    0.0060   -0.5810 ca        1 AQ4     -0.088000
      5 C5         -3.9590   -0.7710    0.1970 ca        1 AQ4      0.129600
      6 N1         -2.5570   -0.5910    0.1140 nh        1 AQ4     -0.721300
      7 C6         -1.9370    0.6480    0.3390 ca        1 AQ4      0.688200
      8 C7         -0.4760    0.7130    0.2980 ca        1 AQ4     -0.280600
      9 C8          0.3570   -0.4050    0.0500 ca        1 AQ4     -0.164000
     10 C9          1.7280   -0.2680    0.0400 ca        1 AQ4      0.111100
     11 O1          2.6340   -1.2840   -0.1750 os        1 AQ4     -0.307900
     12 C10         2.0770   -2.5420   -0.5800 c3        1 AQ4      0.120400
     13 C11         3.2760   -3.4550   -0.8190 c3        1 AQ4      0.123400
     14 O2          3.1960   -4.4870    0.1630 os        1 AQ4     -0.425600
     15 C12         4.3410   -5.3220    0.1710 c3        1 AQ4      0.117700
     16 C13         2.3280    1.0190    0.2790 ca        1 AQ4      0.150100
     17 O3          3.7020    1.0170    0.2560 os        1 AQ4     -0.306900
     18 C14         4.3330    2.2900    0.4730 c3        1 AQ4      0.118400
     19 C15         5.8300    2.0230    0.3610 c3        1 AQ4      0.122400
     20 O4          6.2560    2.6260   -0.8590 os        1 AQ4     -0.422600
     21 C16         7.6030    2.3180   -1.1780 c3        1 AQ4      0.117700
     22 C17         1.5360    2.1210    0.5070 ca        1 AQ4     -0.255300
     23 C18         0.1110    1.9970    0.5140 ca        1 AQ4      0.447600
     24 N2         -0.6630    3.1240    0.7260 nb        1 AQ4     -0.713000
     25 C19        -1.9820    2.9360    0.7170 ca        1 AQ4      0.664900
     26 N3         -2.6750    1.7620    0.5470 nb        1 AQ4     -0.761000
     27 C20        -4.4840   -1.8050    1.0040 ca        1 AQ4     -0.162000
     28 C21        -5.8530   -2.0500    1.0220 ca        1 AQ4     -0.116000
     29 C22        -6.7250   -1.2800    0.2570 ca        1 AQ4     -0.120000
     30 H1         -8.4950    1.7920   -2.5720 ha        1 AQ4      0.167500
     31 H2         -4.4570    0.8180   -1.2190 ha        1 AQ4      0.160000
     32 H3         -2.0310   -1.3700    0.4540 hn        1 AQ4      0.425800
     33 H4         -0.0840   -1.3900   -0.1590 ha        1 AQ4      0.141000
     34 H5          1.4250   -2.9500    0.2370 h1        1 AQ4      0.055200
     35 H6          1.4850   -2.4050   -1.5200 h1        1 AQ4      0.055200
     36 H7          3.2220   -3.9140   -1.8410 h1        1 AQ4      0.049200
     37 H8          4.2390   -2.8870   -0.7110 h1        1 AQ4      0.049200
     38 H9          4.4690   -5.8250   -0.8190 h1        1 AQ4      0.035033
     39 H10         5.2580   -4.7310    0.4180 h1        1 AQ4      0.035033
     40 H11         4.1310   -6.0750    0.9710 h1        1 AQ4      0.035033
     41 H12         3.9950    3.0210   -0.3070 h1        1 AQ4      0.061200
     42 H13         4.0710    2.6600    1.4980 h1        1 AQ4      0.061200
     43 H14         6.3750    2.4990    1.2180 h1        1 AQ4      0.048200
     44 H15         6.0400    0.9200    0.3460 h1        1 AQ4      0.048200
     45 H16         8.2910    2.6850   -0.3770 h1        1 AQ4      0.034367
     46 H17         7.7330    1.2160   -1.3170 h1        1 AQ4      0.034367
     47 H18         7.7920    2.8600   -2.1380 h1        1 AQ4      0.034367
     48 H19         1.9750    3.1160    0.6820 ha        1 AQ4      0.164000
     49 H20        -2.6220    3.8300    0.8790 h5        1 AQ4      0.054100
     50 H21        -3.8180   -2.4260    1.6230 ha        1 AQ4      0.131000
     51 H22        -6.2500   -2.8600    1.6530 ha        1 AQ4      0.136000
     52 H23        -7.8070   -1.4760    0.2810 ha        1 AQ4      0.141000
@<TRIPOS>BOND
     1    1    2 3   
     2    1   30 1   
     3    2    3 1   
     4    3    4 ar  
     5    3   29 ar  
     6    4    5 ar  
     7    4   31 1   
     8    5    6 1   
     9    5   27 ar  
    10    6    7 1   
    11    6   32 1   
    12    7    8 ar  
    13    7   26 ar  
    14    8    9 ar  
    15    8   23 ar  
    16    9   10 ar  
    17    9   33 1   
    18   10   11 1   
    19   10   16 ar  
    20   11   12 1   
    21   12   13 1   
    22   12   34 1   
    23   12   35 1   
    24   13   14 1   
    25   13   36 1   
    26   13   37 1   
    27   14   15 1   
    28   15   38 1   
    29   15   39 1   
    30   15   40 1   
    31   16   17 1   
    32   16   22 ar  
    33   17   18 1   
    34   18   19 1   
    35   18   41 1   
    36   18   42 1   
    37   19   20 1   
    38   19   43 1   
    39   19   44 1   
    40   20   21 1   
    41   21   45 1   
    42   21   46 1   
    43   21   47 1   
    44   22   23 ar  
    45   22   48 1   
    46   23   24 ar  
    47   24   25 ar  
    48   25   26 ar  
    49   25   49 1   
    50   27   28 ar  
    51   27   50 1   
    52   28   29 ar  
    53   28   51 1   
    54   29   52 1   
@<TRIPOS>SUBSTRUCTURE
     1 AQ4         1 TEMP              0 ****  ****    0 ROOT
