@<TRIPOS>MOLECULE
AQ4
   53    55     1     0     0
SMALL
bcc


@<TRIPOS>ATOM
      1 C1         -1.6280    1.7220    0.3910 c1        1 AQ4     -0.036500
      2 C2         -0.6200    1.1710    0.7310 cg        1 AQ4     -0.191000
      3 C3          0.5620    0.5290    1.1410 ca        1 AQ4      0.076000
      4 C4          1.3480   -0.1520    0.1970 ca        1 AQ4     -0.081000
      5 C5          2.5210   -0.7940    0.6210 ca        1 AQ4     -0.048400
      6 N1          3.3310   -1.5300   -0.3610 n4        1 AQ4     -0.618100
      7 C6          4.1450   -0.6260   -1.2160 ca        1 AQ4      0.511200
      8 C7          5.5050   -0.3400   -0.8710 ca        1 AQ4     -0.214600
      9 C8          6.1890   -0.8490    0.2620 ca        1 AQ4     -0.248000
     10 C9          7.5010   -0.5020    0.4990 ca        1 AQ4      0.193100
     11 O1          8.2560   -0.9060    1.5600 os        1 AQ4     -0.280900
     12 C10         7.6350   -1.8030    2.4990 c3        1 AQ4      0.117400
     13 C11         8.6240   -1.9250    3.6550 c3        1 AQ4      0.123400
     14 O2          8.0340   -1.2300    4.7490 os        1 AQ4     -0.433600
     15 C12         8.9120   -1.1050    5.8580 c3        1 AQ4      0.115700
     16 C13         8.2030    0.3760   -0.4220 ca        1 AQ4      0.177100
     17 O3          9.4970    0.6260   -0.0710 os        1 AQ4     -0.287900
     18 C14        10.2730    1.4130   -0.9980 c3        1 AQ4      0.116400
     19 C15        11.7010    1.3670   -0.4690 c3        1 AQ4      0.123400
     20 O4         12.3560    0.3200   -1.1780 os        1 AQ4     -0.425600
     21 C16        13.6990    0.1320   -0.7590 c3        1 AQ4      0.114700
     22 C17         7.5570    0.8810   -1.5250 ca        1 AQ4     -0.257300
     23 C18         6.1900    0.5430   -1.7850 ca        1 AQ4      0.456600
     24 N2          5.5610    1.0630   -2.8890 nb        1 AQ4     -0.626000
     25 C19         4.2850    0.7120   -3.0860 ca        1 AQ4      0.653900
     26 N3          3.5270   -0.1190   -2.2980 nb        1 AQ4     -0.689000
     27 C20         2.9280   -0.7550    1.9660 ca        1 AQ4     -0.107000
     28 C21         2.1360   -0.0740    2.8880 ca        1 AQ4     -0.104000
     29 C22         0.9630    0.5640    2.4870 ca        1 AQ4     -0.063000
     30 H1         -2.5230    2.2110    0.0900 ha        1 AQ4      0.187500
     31 H2          1.0330   -0.1660   -0.8610 ha        1 AQ4      0.176000
     32 H3          3.9670   -2.1720    0.1260 hn        1 AQ4      0.467300
     33 H4          5.6770   -1.5120    0.9720 ha        1 AQ4      0.129000
     34 H5          7.4740   -2.7910    1.9970 h1        1 AQ4      0.055700
     35 H6          6.6630   -1.3730    2.8580 h1        1 AQ4      0.055700
     36 H7          8.7660   -3.0030    3.9300 h1        1 AQ4      0.060700
     37 H8          9.6140   -1.4680    3.3850 h1        1 AQ4      0.060700
     38 H9          9.8190   -0.5160    5.5750 h1        1 AQ4      0.043700
     39 H10         9.2110   -2.1140    6.2360 h1        1 AQ4      0.043700
     40 H11         8.3100   -0.5580    6.6260 h1        1 AQ4      0.043700
     41 H12         9.8770    2.4620   -0.9950 h1        1 AQ4      0.068200
     42 H13        10.2130    0.9630   -2.0240 h1        1 AQ4      0.068200
     43 H14        11.7160    1.1580    0.6330 h1        1 AQ4      0.055700
     44 H15        12.2120    2.3450   -0.6790 h1        1 AQ4      0.055700
     45 H16        13.7370   -0.1570    0.3200 h1        1 AQ4      0.041700
     46 H17        14.2970    1.0610   -0.9290 h1        1 AQ4      0.041700
     47 H18        14.0740   -0.7020   -1.4040 h1        1 AQ4      0.041700
     48 H19         8.0720    1.5540   -2.2310 ha        1 AQ4      0.187000
     49 H20         3.7650    1.1260   -3.9800 h5        1 AQ4      0.090100
     50 H21         3.8540   -1.2460    2.3060 ha        1 AQ4      0.148000
     51 H22         2.4460   -0.0390    3.9460 ha        1 AQ4      0.170000
     52 H23         0.3450    1.1010    3.2270 ha        1 AQ4      0.174000
     53 H121        2.6920   -2.0800   -0.9570 hn        1 AQ4      0.467300
@<TRIPOS>BOND
     1    1    2 3   
     2    1   30 1   
     3    2    3 1   
     4    3    4 ar  
     5    3   29 ar  
     6    4    5 ar  
     7    4   31 1   
     8    5    6 1   
     9    5   27 ar  
    10    6    7 1   
    11    6   32 1   
    12    6   53 1   
    13    7    8 ar  
    14    7   26 ar  
    15    8    9 ar  
    16    8   23 ar  
    17    9   10 ar  
    18    9   33 1   
    19   10   11 1   
    20   10   16 ar  
    21   11   12 1   
    22   12   13 1   
    23   12   34 1   
    24   12   35 1   
    25   13   14 1   
    26   13   36 1   
    27   13   37 1   
    28   14   15 1   
    29   15   38 1   
    30   15   39 1   
    31   15   40 1   
    32   16   17 1   
    33   16   22 ar  
    34   17   18 1   
    35   18   19 1   
    36   18   41 1   
    37   18   42 1   
    38   19   20 1   
    39   19   43 1   
    40   19   44 1   
    41   20   21 1   
    42   21   45 1   
    43   21   46 1   
    44   21   47 1   
    45   22   23 ar  
    46   22   48 1   
    47   23   24 ar  
    48   24   25 ar  
    49   25   26 ar  
    50   25   49 1   
    51   27   28 ar  
    52   27   50 1   
    53   28   29 ar  
    54   28   51 1   
    55   29   52 1   
@<TRIPOS>SUBSTRUCTURE
     1 AQ4         1 TEMP              0 ****  ****    0 ROOT
