@<TRIPOS>MOLECULE
AQA
   19    19     1     0     0
SMALL
bcc


@<TRIPOS>ATOM
      1 O6A         0.7200   -1.0630    0.3910 o         1 AQA     -0.796300
      2 C6          1.3420   -0.0420    0.0090 c         1 AQA      0.936800
      3 O6B         1.4940    1.0340    0.6370 o         1 AQA     -0.796300
      4 C5          1.9600   -0.1020   -1.4080 ce        1 AQA      0.087900
      5 O5          3.2920   -0.4400   -1.3770 os        1 AQA     -0.344900
      6 C4          1.2870    0.1770   -2.5420 c2        1 AQA     -0.419200
      7 C3          1.9240    0.2040   -3.8840 c3        1 AQA      0.174300
      8 O3          1.5740   -0.9120   -4.6940 oh        1 AQA     -0.618800
      9 C2          3.4570    0.2700   -3.7380 c3        1 AQA      0.058100
     10 O2          3.8840    1.5850   -3.4340 oh        1 AQA     -0.606800
     11 C1          3.9140   -0.7020   -2.6360 c3        1 AQA      0.291900
     12 O1          5.2750   -0.5590   -2.3300 oh        1 AQA     -0.595800
     13 H4          0.2190    0.4190   -2.5000 ha        1 AQA      0.149000
     14 H1          3.7540   -1.7730   -2.9310 h2        1 AQA      0.079700
     15 H3          1.5810    1.0990   -4.4770 h1        1 AQA      0.067700
     16 HC          1.4390   -1.6620   -4.1030 ho        1 AQA      0.406000
     17 H2          3.9660    0.0140   -4.7060 h1        1 AQA      0.084700
     18 HB          3.4000    1.8570   -2.6400 ho        1 AQA      0.421000
     19 HA          5.3960    0.3380   -1.9850 ho        1 AQA      0.420000
@<TRIPOS>BOND
     1    1    2 1   
     2    2    3 1   
     3    2    4 1   
     4    4    5 1   
     5    4    6 2   
     6    5   11 1   
     7    6    7 1   
     8    6   13 1   
     9    7    8 1   
    10    7    9 1   
    11    7   15 1   
    12    8   16 1   
    13    9   10 1   
    14    9   11 1   
    15    9   17 1   
    16   10   18 1   
    17   11   12 1   
    18   11   14 1   
    19   12   19 1   
@<TRIPOS>SUBSTRUCTURE
     1 AQA         1 TEMP              0 ****  ****    0 ROOT
