@<TRIPOS>MOLECULE
AQA
   19    17     1     0     0
SMALL
bcc


@<TRIPOS>ATOM
      1 O6A        -1.6510   -0.3100    3.0060 o         1 AQA     -0.531000
      2 C6         -0.3920   -0.3100    3.0060 c1        1 AQA      0.387000
      3 O6B         0.2370   -0.3100    4.0960 os        1 AQA     -0.531000
      4 C5          0.3640   -0.2780    1.6970 c2        1 AQA      0.061000
      5 O5          0.8350    0.9370    1.1910 os        1 AQA     -0.217000
      6 C4          0.1080   -1.4870    0.5450 c1        1 AQA     -0.412000
      7 C3         -0.1910   -1.0140   -0.7700 c2        1 AQA      0.052000
      8 O3          0.1440   -1.9930   -1.7420 oh        1 AQA     -0.350000
      9 C2          0.5630    0.4970   -1.0910 c3        1 AQA     -0.055000
     10 O2          0.0250    1.0240   -2.4290 oh        1 AQA     -0.325000
     11 C1          0.3900    1.3300   -0.2710 c3        1 AQA      0.147000
     12 O1         -1.1070    1.6660   -0.2400 oh        1 AQA     -0.339000
     13 H4          0.5060   -2.3700    0.6670 ha        1 AQA      0.150000
     14 H1          0.8810    2.1310   -0.5370 h2        1 AQA      0.139000
     15 H3         -1.1550   -0.9440   -0.9040 h4        1 AQA      0.105000
     16 HC         -0.5540   -2.5220   -1.8820 ho        1 AQA      0.207000
     17 H2          1.5240    0.3490   -1.1810 h1        1 AQA      0.091000
     18 HB          0.6860    1.0620   -3.0200 ho        1 AQA      0.207000
     19 HA         -1.2120    2.5420   -0.1430 ho        1 AQA      0.217000
@<TRIPOS>BOND
     1    1    2 1   
     2    2    4 1   
     3    4    5 1   
     4    4    6 1   
     5    5   11 1   
     6    6   13 1   
     7    7    8 1   
     8    7    9 1   
     9    7   15 1   
    10    8   16 1   
    11    9   10 1   
    12    9   11 1   
    13    9   17 1   
    14   10   18 1   
    15   11   12 1   
    16   11   14 1   
    17   12   19 1   
@<TRIPOS>SUBSTRUCTURE
     1 AQA         1 TEMP              0 ****  ****    0 ROOT
