@<TRIPOS>MOLECULE
AQA
   19    19     1     0     0
SMALL
bcc


@<TRIPOS>ATOM
      1 O6A         0.7410   -1.0840    0.3950 o         1 AQA     -0.796300
      2 C6          1.3940   -0.0750    0.0350 c         1 AQA      0.936800
      3 O6B         1.5980    0.9730    0.6950 o         1 AQA     -0.796300
      4 C5          1.9820   -0.1100   -1.3950 ce        1 AQA      0.087900
      5 O5          3.3010   -0.4960   -1.4020 os        1 AQA     -0.344900
      6 C4          1.2980    0.2320   -2.5060 c2        1 AQA     -0.419200
      7 C3          1.9100    0.2810   -3.8580 c3        1 AQA      0.174300
      8 O3          1.5040   -0.7930   -4.6970 oh        1 AQA     -0.618800
      9 C2          3.4470    0.2860   -3.7420 c3        1 AQA      0.058100
     10 O2          3.9280    1.5740   -3.4030 oh        1 AQA     -0.606800
     11 C1          3.8890   -0.7380   -2.6820 c3        1 AQA      0.291900
     12 O1          5.2590   -0.6560   -2.3990 oh        1 AQA     -0.595800
     13 H4          0.2410    0.5110   -2.4340 ha        1 AQA      0.149000
     14 H1          3.6830   -1.7930   -3.0090 h2        1 AQA      0.079700
     15 H3          1.5890    1.2080   -4.4140 h1        1 AQA      0.067700
     16 HC          1.3520   -1.5570   -4.1280 ho        1 AQA      0.406000
     17 H2          3.9270    0.0450   -4.7280 h1        1 AQA      0.084700
     18 HB          3.4690    1.8360   -2.5910 ho        1 AQA      0.421000
     19 HA          5.4210    0.2240   -2.0280 ho        1 AQA      0.420000
@<TRIPOS>BOND
     1    1    2 1   
     2    2    3 1   
     3    2    4 1   
     4    4    5 1   
     5    4    6 2   
     6    5   11 1   
     7    6    7 1   
     8    6   13 1   
     9    7    8 1   
    10    7    9 1   
    11    7   15 1   
    12    8   16 1   
    13    9   10 1   
    14    9   11 1   
    15    9   17 1   
    16   10   18 1   
    17   11   12 1   
    18   11   14 1   
    19   12   19 1   
@<TRIPOS>SUBSTRUCTURE
     1 AQA         1 TEMP              0 ****  ****    0 ROOT
