@<TRIPOS>MOLECULE
AQA
   19    19     1     0     0
SMALL
bcc


@<TRIPOS>ATOM
      1 O6A         3.0530   -0.3160   -0.9040 o         1 AQA     -0.796300
      2 C6          2.3430    0.1780    0.0060 c         1 AQA      0.936800
      3 O6B         2.7320    0.8550    0.9890 o         1 AQA     -0.796300
      4 C5          0.8260   -0.1110   -0.0700 ce        1 AQA      0.087900
      5 O5          0.1320    0.9230   -0.6530 os        1 AQA     -0.344900
      6 C4          0.2400   -1.2270    0.4080 c2        1 AQA     -0.419200
      7 C3         -1.2290   -1.4420    0.4070 c3        1 AQA      0.174300
      8 O3         -1.6580   -2.3890   -0.5650 oh        1 AQA     -0.618800
      9 C2         -1.9580   -0.1040    0.1740 c3        1 AQA      0.058100
     10 O2         -2.0020    0.6650    1.3630 oh        1 AQA     -0.606800
     11 C1         -1.2480    0.6850   -0.9390 c3        1 AQA      0.291900
     12 O1         -1.7510    1.9860   -1.0750 oh        1 AQA     -0.595800
     13 H4          0.8540   -2.0250    0.8410 ha        1 AQA      0.149000
     14 H1         -1.3540    0.1850   -1.9390 h2        1 AQA      0.079700
     15 H3         -1.5750   -1.8730    1.3900 h1        1 AQA      0.067700
     16 HC         -1.0560   -2.3190   -1.3150 ho        1 AQA      0.406000
     17 H2         -3.0330   -0.2730   -0.1040 h1        1 AQA      0.084700
     18 HB         -1.0870    0.7610    1.6640 ho        1 AQA      0.421000
     19 HA         -1.5740    2.4480   -0.2430 ho        1 AQA      0.420000
@<TRIPOS>BOND
     1    1    2 1   
     2    2    3 1   
     3    2    4 1   
     4    4    5 1   
     5    4    6 2   
     6    5   11 1   
     7    6    7 1   
     8    6   13 1   
     9    7    8 1   
    10    7    9 1   
    11    7   15 1   
    12    8   16 1   
    13    9   10 1   
    14    9   11 1   
    15    9   17 1   
    16   10   18 1   
    17   11   12 1   
    18   11   14 1   
    19   12   19 1   
@<TRIPOS>SUBSTRUCTURE
     1 AQA         1 TEMP              0 ****  ****    0 ROOT
