@<TRIPOS>MOLECULE
AQB
   92    85     1     0     0
SMALL
bcc


@<TRIPOS>ATOM
      1 N1        267.5500  241.6960  275.0720 n3        1 AQB     -0.268000
      2 C2        268.8980  241.3780  275.0370 c1        1 AQB      0.187000
      3 N3        269.3960  240.5440  274.0490 n2        1 AQB     -0.200000
      4 C4        268.6340  240.1520  273.0690 c2        1 AQB      0.086000
      5 C5        267.2310  240.5730  272.9170 c2        1 AQB     -0.263000
      6 C6        266.6420  241.2230  274.1220 c2        1 AQB      0.274000
      7 CAC      -193.7850 -272.3220 -453.4610 c3        1 AQB     -0.211000
      8 CAD      -193.2440 -271.8080 -455.8350 c2        1 AQB      0.293000
      9 CAE     -1036.3450-1143.1480-1913.0580 c1        1 AQB      0.940000
     10 OAG       264.7600  238.9170  272.2450 o         1 AQB     -0.434000
     11 OAH      -192.0480 -278.0050 -457.4890 o         1 AQB     -0.337000
     12 CAI      -188.7340 -279.1330 -452.2560 c2        1 AQB     -0.550000
     13 CAJ      -189.1620 -277.8390 -452.0470 c1        1 AQB     -0.043000
     14 CAK      -188.6240 -280.0490 -451.2670 c1        1 AQB      0.584000
     15 CAL       261.9680  229.6490  264.2480 c3        1 AQB     -0.054000
     16 CAM       264.7600  233.1540  266.2540 c1        1 AQB     -0.216000
     17 CAN       262.9620  230.6200  264.5670 c1        1 AQB     -0.269000
     18 CAO       264.7280  232.4410  265.1610 c2        1 AQB      0.006000
     19 CAP       266.7930  240.5170  269.3580 c2        1 AQB     -0.574000
     20 CAR       265.8560  240.5550  268.4330 c1        1 AQB      0.306000
     21 CAS      -189.8350 -277.2150 -454.3030 c1        1 AQB     -0.175000
     22 CAT      -193.7920 -274.8460 -455.5950 c2        1 AQB     -0.248000
     23 CAU       266.5090  240.4520  271.7740 c2        1 AQB      0.107000
     24 CAV       264.3620  236.2660  269.8100 c1        1 AQB     -0.238000
     25 CAW       264.2550  236.8560  271.1010 c3        1 AQB     -0.035000
     26 CAX       264.3640  235.7120  268.7430 c1        1 AQB     -0.016000
     27 NBA      -191.6680 -274.8060 -454.6960 n2        1 AQB     -0.137000
     28 NBD      -193.8190 -277.2830 -456.2130 n         1 AQB     -0.343000
     29 NBE       265.3100  241.2680  274.2760 n3        1 AQB     -0.270000
     30 CBG      -193.2350 -278.1230 -457.1640 c2        1 AQB      0.280000
     31 CBH      -189.2080 -276.7980 -453.1160 c3        1 AQB     -0.036000
     32 CBI       262.5010  228.6260  263.2900 c2        1 AQB      0.168000
     33 CBJ       263.7570  231.4660  264.8650 c1        1 AQB      0.029000
     34 CBK       266.9040  239.6320  270.5640 c3        1 AQB      0.131000
     35 CBL      -190.8880 -277.0940 -455.2190 c3        1 AQB      0.000000
     36 CBM      -192.7760 -274.0470 -454.9700 c2        1 AQB     -0.151000
     37 CBN      -193.2220 -276.1430 -455.6910 c2        1 AQB      0.115000
     38 NBR       264.4350  235.1710  267.5170 n3        1 AQB     -0.179000
     39 NBS      -191.9330 -276.0580 -455.0820 na        1 AQB     -0.134000
     40 H2        267.2320  242.2290  275.8610 hn        1 AQB      0.289000
     41 HAA      -742.2140  302.2110    0.9840 DU        1 AQB      0.199000
     42 HAAA     -740.5270  301.3800    0.3710 ha        1 AQB      0.199000
     43 HAAB     -740.6560  303.2940    0.2810 ha        1 AQB      0.199000
     44 HAB      -178.6430   15.4220   43.4730 ha        1 AQB      0.000000
     45 HABA     -178.6190   14.9230   43.0170 ha        1 AQB      0.000000
     46 HABB      265.4930  233.4590  268.2060 h4        1 AQB      0.182000
     47 HAC      -193.3200 -272.7860 -452.5570 hc        1 AQB      0.127667
     48 HACA     -194.7950 -272.7790 -453.6080 hc        1 AQB      0.127667
     49 HACB     -193.8960 -271.2230 -453.2860 hc        1 AQB      0.127667
     50 HAD      -193.0820 -272.1920 -456.8640 ha        1 AQB      0.198000
     51 HADA        2.0370  -20.3320   32.3630 ha        1 AQB      0.000000
     52 HADB        2.1500  -20.4410   33.0210 ha        1 AQB      0.000000
     53 HAE      -191.8610 -272.1450 -454.4350 hc        1 AQB      0.246000
     54 HAEA     -193.6470 -270.7790 -455.7200 ha        1 AQB      0.198000
     55 HAEB    -1035.8700-1142.6510-1912.1780 ha        1 AQB      0.060000
     56 HNAF     -190.7740 -275.6470 -452.2790 hn        1 AQB      0.243667
     57 HNAA     -189.5830 -274.7070 -452.9620 hn        1 AQB      0.243667
     58 HAI      -188.4400 -279.5010 -453.2740 ha        1 AQB      0.219000
     59 HAJ      -188.1180 -276.5430 -453.3850 hx        1 AQB      0.229000
     60 HAK      -191.4160 -278.1110 -455.2320 h1        1 AQB      0.228500
     61 HAL       261.6490  229.0980  265.1900 hc        1 AQB      0.170000
     62 HAM       263.6120  228.4920  263.2590 h4        1 AQB      0.218000
     63 HAN       261.0440  230.1580  263.8390 hc        1 AQB      0.170000
     64 HAO       265.5060  232.5740  264.3790 ha        1 AQB      0.171000
     65 HAP       267.6530  241.2130  269.2270 ha        1 AQB      0.219000
     66 HAR       269.0740  239.4930  272.2920 h4        1 AQB      0.190000
     67 HAS      -190.4180 -277.0010 -456.2660 h1        1 AQB      0.228500
     68 HAT      -194.7850 -274.5440 -455.9130 ha        1 AQB      0.189000
     69 HAU       265.5500  240.9960  271.6360 ha        1 AQB      0.170000
     70 HAV       -28.4960  -12.8040    6.2460 ha        1 AQB      0.000000
     71 HAVA      -28.3780  -12.3260    6.7100 ha        1 AQB      0.000000
     72 HAW       264.6060  236.1260  271.8890 hc        1 AQB      0.154500
     73 HAWA      263.1750  237.1030  271.3270 hc        1 AQB      0.154500
     74 HAX       -27.8840  -10.3250    8.6580 ha        1 AQB      0.000000
     75 HAXA      -28.0020  -10.8030    8.1930 ha        1 AQB      0.000000
     76 HNBB      266.3080  237.8230  269.7020 hn        1 AQB      0.268000
     77 HNBC      262.1610  227.1970  261.8960 hn        1 AQB      0.288000
     78 HNBE      264.7120  240.8000  273.6190 hn        1 AQB      0.286000
     79 HNBD     -193.9320 -278.8980 -457.5620 h5        1 AQB      0.192000
     80 NBB       266.1120  238.4190  270.4770 n         1 AQB     -0.377000
     81 CBF       265.0470  238.1370  271.3020 c2        1 AQB      0.333000
     82 CAA      -741.1320  302.2950    0.2120 c1        1 AQB      0.403000
     83 CAB       264.9110  233.8640  267.3490 c2        1 AQB      0.059000
     84 HBD2     -194.8020 -277.3540 -456.0480 hn        1 AQB      0.270000
     85 HBE2      264.8790  241.6980  275.0700 hn        1 AQB      0.286000
     86 HBR1      263.7830  235.5240  266.8440 hn        1 AQB      0.251000
     87 HBB2      267.9900  239.3040  270.6390 h1        1 AQB      0.124000
     88 HBC2      260.7570  227.9650  262.4870 hn        1 AQB      0.288000
     89 HAF3     -189.3310 -275.4670 -451.4870 hn        1 AQB      0.243667
     90 NBC       261.7600  227.8860  262.5120 n3        1 AQB     -0.171000
     91 CBT      -192.9100 -272.5970 -454.6800 c3        1 AQB     -0.116000
     92 NAF      -189.7680 -275.5430 -452.4130 n4        1 AQB     -0.100000
@<TRIPOS>BOND
     1    1    2 1   
     2    1    6 1   
     3    1   40 1   
     4    2    3 1   
     5    3    4 1   
     6    4    5 1   
     7    4   66 1   
     8    5    6 1   
     9    5   23 1   
    10    6   29 1   
    11    7   47 1   
    12    7   48 1   
    13    7   49 1   
    14    7   91 1   
    15    8   50 1   
    16    8   54 1   
    17    8   91 1   
    18    9   55 1   
    19   10   81 1   
    20   11   30 1   
    21   12   13 1   
    22   12   14 1   
    23   12   58 1   
    24   13   31 1   
    25   15   17 1   
    26   15   32 1   
    27   15   61 1   
    28   15   63 1   
    29   16   18 1   
    30   16   83 1   
    31   17   33 1   
    32   18   33 1   
    33   18   64 1   
    34   19   20 1   
    35   19   34 1   
    36   19   65 1   
    37   21   31 1   
    38   21   35 1   
    39   22   36 1   
    40   22   37 1   
    41   22   68 1   
    42   23   34 1   
    43   23   69 1   
    44   24   25 1   
    45   24   26 1   
    46   25   72 1   
    47   25   73 1   
    48   25   81 1   
    49   26   38 1   
    50   27   36 1   
    51   27   39 1   
    52   28   30 1   
    53   28   37 1   
    54   28   84 1   
    55   29   78 1   
    56   29   85 1   
    57   30   79 1   
    58   31   59 1   
    59   31   92 1   
    60   32   62 1   
    61   32   90 1   
    62   34   80 1   
    63   34   87 1   
    64   35   39 1   
    65   35   60 1   
    66   35   67 1   
    67   36   91 1   
    68   37   39 1   
    69   38   83 1   
    70   38   86 1   
    71   42   82 1   
    72   43   82 1   
    73   44   45 1   
    74   46   83 1   
    75   51   52 1   
    76   53   91 1   
    77   56   92 1   
    78   57   92 1   
    79   70   71 1   
    80   74   75 1   
    81   76   80 1   
    82   77   90 1   
    83   80   81 1   
    84   88   90 1   
    85   89   92 1   
@<TRIPOS>SUBSTRUCTURE
     1 AQB         1 TEMP              0 ****  ****    0 ROOT
