@<TRIPOS>MOLECULE
AQB
   86    90     1     0     0
SMALL
bcc


@<TRIPOS>ATOM
      1 N1          2.6100    2.9310    1.5090 nb        1 AQB     -0.767000
      2 C2          3.2860    4.0920    1.8000 ca        1 AQB      0.665900
      3 N3          4.6010    4.2910    1.8600 nb        1 AQB     -0.714000
      4 C4          5.3910    3.1890    1.5830 ca        1 AQB      0.413600
      5 C5          4.8300    1.9200    1.2490 ca        1 AQB     -0.264600
      6 C6          3.3620    1.8420    1.2310 ca        1 AQB      0.699200
      7 CAC        -7.4970    0.3890   -4.6670 c3        1 AQB     -0.085100
      8 CAD        -7.2050    2.6250   -3.6090 c3        1 AQB     -0.085100
      9 CAE        -9.3970    1.4650   -3.4870 c3        1 AQB     -0.085100
     10 OAG         6.4930   -1.8900    0.7940 o         1 AQB     -0.597100
     11 OAH        -3.4000    0.5570   -0.9620 o         1 AQB     -0.591100
     12 CAI        -7.9600   -2.9180    2.3300 ca        1 AQB     -0.083000
     13 CAJ        -8.8250   -2.2770    3.2070 ca        1 AQB     -0.195000
     14 CAK        -7.4870   -2.2840    1.1850 ca        1 AQB     -0.205000
     15 CAL        -0.9120    0.9710    0.2900 ca        1 AQB     -0.140000
     16 CAM        -0.4830   -1.0280    1.5950 ca        1 AQB     -0.140000
     17 CAN         0.4490    1.2510    0.2760 ca        1 AQB     -0.117500
     18 CAO         0.8730   -0.7370    1.5960 ca        1 AQB     -0.117500
     19 CAP         7.6200    2.2350    1.3580 ca        1 AQB     -0.144000
     20 CAR         6.8150    3.3090    1.6260 ca        1 AQB     -0.155300
     21 CAS        -8.7680   -0.2980    1.7870 ca        1 AQB     -0.177000
     22 CAT        -6.0250    0.2790   -1.9550 cc        1 AQB     -0.273300
     23 CAU         5.6750    0.8290    0.9540 ca        1 AQB     -0.129000
     24 CAV         9.4660   -2.0980   -0.9580 c3        1 AQB     -0.082400
     25 CAW         8.8110   -2.3800    0.3760 c3        1 AQB     -0.158400
     26 CAX        10.4720   -3.2060   -1.2750 c3        1 AQB      0.170800
     27 NBA        -8.1980    0.2420   -1.1760 nd        1 AQB     -0.494800
     28 NBD        -4.9660   -0.8140    0.0790 n         1 AQB     -0.431100
     29 NBE         2.7610    0.6340    0.8760 nh        1 AQB     -0.724300
     30 CBG        -3.6910   -0.1830   -0.0000 c         1 AQB      0.762100
     31 CBH        -9.2450   -0.9510    2.9470 ca        1 AQB      0.155600
     32 CBI        -1.4050   -0.1720    0.9490 ca        1 AQB      0.044600
     33 CBJ         1.3670    0.4080    0.9330 ca        1 AQB      0.118600
     34 CBK         7.0610    0.9610    1.0150 ca        1 AQB      0.050600
     35 CBL        -7.8830   -0.9570    0.9210 ca        1 AQB      0.054800
     36 CBM        -7.4130    0.6090   -2.2220 cc        1 AQB      0.332600
     37 CBN        -6.0280   -0.3050   -0.6750 cd        1 AQB      0.021300
     38 NBR        11.3450   -2.8980   -2.4000 n3        1 AQB     -0.739600
     39 NBS        -7.3890   -0.2660   -0.2250 na        1 AQB      0.118300
     40 H2          2.6300    4.9630    2.0170 h5        1 AQB      0.053100
     41 HAA        13.1330   -3.4850   -3.3230 h1        1 AQB      0.033200
     42 HAAA       13.0370   -3.7880   -1.5300 h1        1 AQB      0.033200
     43 HAAB       12.1450   -4.8790   -2.6880 h1        1 AQB      0.033200
     44 HAB        10.0740   -3.6730   -3.9570 h1        1 AQB      0.033200
     45 HABA        9.9120   -1.9000   -3.5600 h1        1 AQB      0.033200
     46 HABB       11.3750   -2.5000   -4.4600 h1        1 AQB      0.033200
     47 HAC        -6.3920    0.2260   -4.6830 hc        1 AQB      0.039144
     48 HACA       -8.0050   -0.6020   -4.6000 hc        1 AQB      0.039144
     49 HACB       -7.8010    0.8850   -5.6200 hc        1 AQB      0.039144
     50 HAD        -7.5080    3.1120   -4.5670 hc        1 AQB      0.039144
     51 HADA       -7.5000    3.2880   -2.7610 hc        1 AQB      0.039144
     52 HADB       -6.0950    2.5050   -3.6010 hc        1 AQB      0.039144
     53 HAE        -9.9220    0.4840   -3.4000 hc        1 AQB      0.039144
     54 HAEA       -9.7100    2.1170   -2.6380 hc        1 AQB      0.039144
     55 HAEB       -9.7070    1.9520   -4.4430 hc        1 AQB      0.039144
     56 HNAF      -10.6100   -0.8510    4.4400 hn        1 AQB      0.396800
     57 HNAA      -10.5420    0.5120    3.4820 hn        1 AQB      0.396800
     58 HAI        -7.6510   -3.9540    2.5380 ha        1 AQB      0.135000
     59 HAJ        -9.1820   -2.8050    4.1030 ha        1 AQB      0.137000
     60 HAK        -6.8410   -2.8330    0.4840 ha        1 AQB      0.148000
     61 HAL        -1.6020    1.6520   -0.2370 ha        1 AQB      0.151500
     62 HAM        -0.8300   -1.9330    2.1180 ha        1 AQB      0.151500
     63 HAN         0.7970    2.1500   -0.2570 ha        1 AQB      0.146500
     64 HAO         1.5610   -1.4230    2.1160 ha        1 AQB      0.146500
     65 HAP         8.7140    2.3570    1.4040 ha        1 AQB      0.135000
     66 HAR         7.2570    4.2850    1.8830 ha        1 AQB      0.157000
     67 HAS        -9.0940    0.7310    1.5610 ha        1 AQB      0.157000
     68 HAT        -5.1630    0.4690   -2.5860 ha        1 AQB      0.192000
     69 HAU         5.2460   -0.1430    0.6610 ha        1 AQB      0.168000
     70 HAV         8.6820   -2.0530   -1.7590 hc        1 AQB      0.055700
     71 HAVA        9.9860   -1.1050   -0.9370 hc        1 AQB      0.055700
     72 HAW         8.4030   -3.4270    0.3910 hc        1 AQB      0.075700
     73 HAWA        9.5600   -2.2960    1.2070 hc        1 AQB      0.075700
     74 HAX        11.1280   -3.3570   -0.3700 h1        1 AQB      0.032700
     75 HAXA        9.9010   -4.1670   -1.4420 h1        1 AQB      0.032700
     76 HNBB        8.9050    0.1670    0.6380 hn        1 AQB      0.320500
     77 HNBC       -3.0040   -1.2050    1.6670 hn        1 AQB      0.307500
     78 HNBE        3.3170   -0.1800    1.0400 hn        1 AQB      0.440800
     79 HNBD       -5.2240   -1.2290    0.9520 hn        1 AQB      0.312500
     80 NBB         7.9490   -0.0920    0.7400 n         1 AQB     -0.470100
     81 NBC        -2.7840   -0.4570    1.0450 n         1 AQB     -0.455100
     82 CBF         7.6460   -1.4430    0.6500 c         1 AQB      0.667100
     83 CBT        -7.8870    1.2660   -3.4820 c3        1 AQB     -0.076300
     84 CAA        12.4590   -3.8170   -2.4910 c3        1 AQB      0.155100
     85 CAB        10.6390   -2.7490   -3.6520 c3        1 AQB      0.155100
     86 NAF       -10.0510   -0.2680    3.8600 nh        1 AQB     -0.822200
@<TRIPOS>BOND
     1    1    2 ar  
     2    1    6 ar  
     3    2    3 ar  
     4    2   40 1   
     5    3    4 ar  
     6    4    5 ar  
     7    4   20 ar  
     8    5    6 ar  
     9    5   23 ar  
    10    6   29 1   
    11    7   47 1   
    12    7   48 1   
    13    7   49 1   
    14    7   83 1   
    15    8   50 1   
    16    8   51 1   
    17    8   52 1   
    18    8   83 1   
    19    9   53 1   
    20    9   54 1   
    21    9   55 1   
    22    9   83 1   
    23   10   82 2   
    24   11   30 2   
    25   12   13 ar  
    26   12   14 ar  
    27   12   58 1   
    28   13   31 ar  
    29   13   59 1   
    30   14   35 ar  
    31   14   60 1   
    32   15   17 ar  
    33   15   32 ar  
    34   15   61 1   
    35   16   18 ar  
    36   16   32 ar  
    37   16   62 1   
    38   17   33 ar  
    39   17   63 1   
    40   18   33 ar  
    41   18   64 1   
    42   19   20 ar  
    43   19   34 ar  
    44   19   65 1   
    45   20   66 1   
    46   21   31 ar  
    47   21   35 ar  
    48   21   67 1   
    49   22   36 1   
    50   22   37 2   
    51   22   68 1   
    52   23   34 ar  
    53   23   69 1   
    54   24   25 1   
    55   24   26 1   
    56   24   70 1   
    57   24   71 1   
    58   25   72 1   
    59   25   73 1   
    60   25   82 1   
    61   26   38 1   
    62   26   74 1   
    63   26   75 1   
    64   27   36 2   
    65   27   39 1   
    66   28   30 1   
    67   28   37 1   
    68   28   79 1   
    69   29   33 1   
    70   29   78 1   
    71   30   81 1   
    72   31   86 1   
    73   32   81 1   
    74   34   80 1   
    75   35   39 1   
    76   36   83 1   
    77   37   39 1   
    78   38   84 1   
    79   38   85 1   
    80   41   84 1   
    81   42   84 1   
    82   43   84 1   
    83   44   85 1   
    84   45   85 1   
    85   46   85 1   
    86   56   86 1   
    87   57   86 1   
    88   76   80 1   
    89   77   81 1   
    90   80   82 1   
@<TRIPOS>SUBSTRUCTURE
     1 AQB         1 TEMP              0 ****  ****    0 ROOT
