@<TRIPOS>MOLECULE
AQB
   87    85     1     0     0
SMALL
bcc


@<TRIPOS>ATOM
      1 N1          0.9430    3.3530    0.5960 n7        1 AQB     -0.202000
      2 C2          1.9960    2.7780    1.2830 c1        1 AQB     -0.009000
      3 N3          1.8170    1.6560    2.0270 n2        1 AQB     -0.233000
      4 C4          0.6080    1.1010    2.0800 c2        1 AQB      0.045000
      5 C5         -0.5240    1.6190    1.3880 c2        1 AQB     -0.275000
      6 C6         -0.3420    2.8160    0.6250 c2        1 AQB      0.189000
      7 CAC        -3.2040   -5.1920    0.2520 c3        1 AQB     -0.209667
      8 CAD        -2.8430   -6.6150   -1.7540 c3        1 AQB     -0.209667
      9 CAE        -5.0640   -6.5820   -0.6410 c3        1 AQB     -0.209667
     10 OAG        -4.3480    0.4220    2.7700 o         1 AQB     -0.323000
     11 OAH        -4.8440   -0.3640   -1.4490 o         1 AQB     -0.443000
     12 CAI        -7.2310   -3.3810   -8.5500 c1        1 AQB     -0.202000
     13 CAJ        -7.1210   -3.0690   -7.2390 c1        1 AQB     -0.001000
     14 CAK        -7.4160   -3.7910   -9.6780 c1        1 AQB     -0.063000
     15 CAL         0.4650    6.0820   -1.5420 c2        1 AQB     -0.102000
     16 CAM        -3.3100    3.1800   -2.1500 c1        1 AQB     -0.267000
     17 CAN        -0.4380    5.1840   -1.3030 c1        1 AQB     -0.229000
     18 CAO        -2.5060    4.2030   -2.0700 c2        1 AQB     -0.011000
     19 CAP        -1.0530   -1.1330    0.4990 c2        1 AQB     -0.443000
     20 CAR        -1.0920   -2.4300    0.2890 c1        1 AQB      0.191000
     21 CAS        -5.7370   -2.1630   -5.4750 c1        1 AQB     -0.090000
     22 CAT        -3.6000   -3.3130   -1.9510 c2        1 AQB     -0.221000
     23 CAU        -1.8280    0.9950    1.4730 c2        1 AQB     -0.124000
     24 CAV        -5.9600   -2.2900    2.1400 c1        1 AQB      0.122000
     25 CAW        -5.8180   -1.0110    1.5250 c3        1 AQB     -0.139000
     26 CAX        -6.0830   -3.3560    2.6790 c1        1 AQB     -0.270000
     27 NBA        -5.2530   -4.6550   -2.8280 n2        1 AQB     -0.072000
     28 NBD        -4.0050   -1.3020   -3.4200 ns        1 AQB     -0.278000
     29 NBE        -1.4340    3.4000   -0.0090 n7        1 AQB     -0.260000
     30 CBG        -4.3370   -0.2050   -2.5890 c2        1 AQB      0.395000
     31 CBH        -6.5500   -1.8390   -6.6650 c3        1 AQB     -0.093000
     32 CBI        -4.1570    2.1790   -2.2010 c2        1 AQB      0.046000
     33 CBJ        -1.3810    4.2790   -1.1100 c2        1 AQB      0.087000
     34 CBK        -2.0980   -0.2640    1.0470 c2        1 AQB      0.079000
     35 CBL        -6.1610   -3.2460   -4.5990 c3        1 AQB     -0.069000
     36 CBM        -4.2490   -4.6010   -1.9050 c2        1 AQB     -0.112000
     37 CBN        -4.2820   -2.5950   -2.9580 c2        1 AQB      0.054000
     38 NBR        -6.2290   -4.5520    3.3200 n3        1 AQB      0.119000
     39 NBS        -5.3130   -3.4590   -3.4320 na        1 AQB     -0.131000
     40 H2          1.1300    4.1870    0.0770 hn        1 AQB      0.265000
     41 HAA        -7.9580   -4.0850    4.4470 h1        1 AQB      0.149333
     42 HAAA       -6.3560   -3.8080    5.2970 h1        1 AQB      0.149333
     43 HAAB       -6.9850   -5.5220    5.0590 h1        1 AQB      0.149333
     44 HAB        -4.7770    1.2320    5.0390 ha        1 AQB      0.001167
     45 HABA       -4.1010    1.2680    5.0470 ha        1 AQB      0.001167
     46 HABB       -5.9000   -6.6200    3.3690 h4        1 AQB      0.212500
     47 HAC        -3.8880   -4.4690    0.7590 hc        1 AQB      0.079778
     48 HACA       -2.9700   -6.0300    0.9510 hc        1 AQB      0.079778
     49 HACB       -2.2490   -4.6570    0.0120 hc        1 AQB      0.079778
     50 HAD        -3.3000   -7.0310   -2.6830 hc        1 AQB      0.079778
     51 HADA       -1.9430   -6.0170   -2.0330 hc        1 AQB      0.079778
     52 HADB       -2.5250   -7.4600   -1.0980 hc        1 AQB      0.079778
     53 HAE        -5.4720   -7.1010   -1.5420 hc        1 AQB      0.079778
     54 HAEA       -4.7730   -7.3570    0.1090 hc        1 AQB      0.079778
     55 HAEB       -5.8710   -5.9410   -0.2120 hc        1 AQB      0.079778
     56 HNAF       -5.3910   -1.3270   -8.2620 hn        1 AQB      0.158500
     57 HNAA       -5.4120   -0.2020   -7.0790 hn        1 AQB      0.158500
     58 HAI        -7.5810   -4.1600  -10.6620 ha        1 AQB      0.241000
     59 HAJ        -7.4900   -1.3160   -6.2350 h1        1 AQB      0.196000
     60 HAK        -6.2190   -4.2100   -5.2120 h1        1 AQB      0.169000
     61 HAL         0.3940    7.1070   -1.1410 ha        1 AQB      0.148500
     62 HAM        -5.0530    2.1390   -1.5460 h4        1 AQB      0.177000
     63 HAN         1.3560    5.8780   -2.1580 ha        1 AQB      0.148500
     64 HAO        -2.6200    5.0880   -2.7240 ha        1 AQB      0.166000
     65 HAP        -0.0990   -0.6020    0.2620 ha        1 AQB      0.224000
     66 HAR         0.4850    0.1900    2.6960 h4        1 AQB      0.160000
     67 HAS        -7.2190   -3.0650   -4.2250 h1        1 AQB      0.169000
     68 HAT        -2.7470   -2.9830   -1.3660 ha        1 AQB      0.178000
     69 HAU        -2.6260    1.6190    1.9250 ha        1 AQB      0.165000
     70 HAV        -4.3320    2.9630    2.6400 ha        1 AQB      0.001167
     71 HAVA       -4.2510    2.7680    3.2840 ha        1 AQB      0.001167
     72 HAW        -6.5980   -0.3030    1.9390 hc        1 AQB      0.181000
     73 HAWA       -5.9760   -1.0850    0.4070 hc        1 AQB      0.181000
     74 HAX        -6.2890    1.6740    3.4350 ha        1 AQB      0.001167
     75 HAXA       -6.9040    1.4080    3.3340 ha        1 AQB      0.001167
     76 HNBB       -3.6350   -1.3250    0.2170 hn        1 AQB      0.252000
     77 HNBC       -3.4000    1.1720   -3.8280 hn        1 AQB      0.237000
     78 HNBE       -2.2940    2.8940    0.0760 hn        1 AQB      0.250000
     79 HNBD       -4.1100   -1.1830   -4.4170 hn        1 AQB      0.272000
     80 NBB        -3.3910   -0.8500    1.0680 ns        1 AQB     -0.311000
     81 CBF        -4.4450   -0.3950    1.8390 c2        1 AQB      0.307000
     82 CAA        -6.9250   -4.4950    4.6110 c3        1 AQB     -0.142000
     83 CAB        -5.7670   -5.6670    2.8150 c2        1 AQB      0.037000
     84 HBR1       -5.2360   -5.6840    1.8320 h4        1 AQB      0.212500
     85 NBC        -4.0490    1.0850   -3.0750 ns        1 AQB     -0.305000
     86 CBT        -3.8510   -5.7380   -1.0160 c3        1 AQB      0.020000
     87 NAF        -5.9630   -0.8730   -7.5770 n8        1 AQB     -0.334000
@<TRIPOS>BOND
     1    1    2 1   
     2    1    6 1   
     3    1   40 1   
     4    2    3 1   
     5    3    4 1   
     6    4    5 1   
     7    4   66 1   
     8    5    6 1   
     9    5   23 1   
    10    6   29 1   
    11    7   47 1   
    12    7   48 1   
    13    7   49 1   
    14    7   86 1   
    15    8   50 1   
    16    8   51 1   
    17    8   52 1   
    18    8   86 1   
    19    9   53 1   
    20    9   54 1   
    21    9   55 1   
    22    9   86 1   
    23   10   81 1   
    24   11   30 1   
    25   12   13 1   
    26   12   14 1   
    27   13   31 1   
    28   14   58 1   
    29   15   17 1   
    30   15   61 1   
    31   15   63 1   
    32   16   18 1   
    33   16   32 1   
    34   17   33 1   
    35   18   33 1   
    36   18   64 1   
    37   19   20 1   
    38   19   34 1   
    39   19   65 1   
    40   21   31 1   
    41   21   35 1   
    42   22   36 1   
    43   22   37 1   
    44   22   68 1   
    45   23   34 1   
    46   23   69 1   
    47   24   25 1   
    48   24   26 1   
    49   25   72 1   
    50   25   73 1   
    51   25   81 1   
    52   26   38 1   
    53   27   36 1   
    54   27   39 1   
    55   28   30 1   
    56   28   37 1   
    57   28   79 1   
    58   29   33 1   
    59   29   78 1   
    60   30   85 1   
    61   31   59 1   
    62   31   87 1   
    63   32   62 1   
    64   32   85 1   
    65   34   80 1   
    66   35   39 1   
    67   35   60 1   
    68   35   67 1   
    69   36   86 1   
    70   37   39 1   
    71   38   82 1   
    72   38   83 1   
    73   41   82 1   
    74   42   82 1   
    75   43   82 1   
    76   44   45 1   
    77   46   83 1   
    78   56   87 1   
    79   57   87 1   
    80   70   71 1   
    81   74   75 1   
    82   76   80 1   
    83   77   85 1   
    84   80   81 1   
    85   83   84 1   
@<TRIPOS>SUBSTRUCTURE
     1 AQB         1 TEMP              0 ****  ****    0 ROOT
