@<TRIPOS>MOLECULE
AQB
   86    77     1     0     0
SMALL
bcc


@<TRIPOS>ATOM
      1 N1          3.3850   -1.3810   -0.4880 n1        1 AQB     -0.229000
      2 C2          4.5100   -1.7280   -1.1990 c1        1 AQB     -0.004000
      3 N3          5.6800   -2.0110   -0.5410 n1        1 AQB     -0.176000
      4 C4          5.7290   -1.9480    0.8210 c1        1 AQB     -0.054000
      5 C5          4.6160   -1.6050    1.5270 c1        1 AQB     -0.054000
      6 C6          3.4300   -1.3180    0.8550 c1        1 AQB      0.158000
      7 CAA         8.6590    2.0100   10.2200 c3        1 AQB     -0.118500
      8 CAB         7.5880    2.8040    8.2800 c3        1 AQB     -0.118500
      9 CAC        -8.2030   -0.6800   -7.5900 c3        1 AQB     -0.203000
     10 CAD        -6.4270   -2.4480   -7.4760 c3        1 AQB     -0.203000
     11 CAE        -8.1530   -2.2850   -5.6620 c3        1 AQB     -0.203000
     12 NAF        -7.9730    4.9460   -2.5750 n3        1 AQB     -0.327000
     13 OAG         7.9190   -2.0750    5.4470 o         1 AQB     -0.344000
     14 OAH        -2.1880    0.1320   -3.5100 o         1 AQB     -0.350000
     15 CAI        -6.1270    4.9230   -5.7360 c1        1 AQB     -0.136000
     16 CAJ        -6.8310    5.3330   -4.6070 c1        1 AQB     -0.190000
     17 CAK        -5.7110    3.6000   -5.8550 c1        1 AQB     -0.136000
     18 CAL        -0.3810   -0.6410   -1.8760 c1        1 AQB     -0.123000
     19 CAM        -1.2640   -1.2890    0.2730 c1        1 AQB     -0.136000
     20 CAN         0.9080   -0.6340   -1.3440 c1        1 AQB     -0.087000
     21 CAO         0.0230   -1.2820    0.8040 c1        1 AQB     -0.136000
     22 CAP         6.9880   -2.1770    2.8910 c1        1 AQB     -0.123000
     23 CAR         6.9390   -2.2410    1.5030 c1        1 AQB     -0.129500
     24 CAS        -6.7040    3.0950   -3.7170 c1        1 AQB     -0.223000
     25 CAT        -5.2230   -0.8530   -5.2090 c1        1 AQB     -0.206000
     26 CAU         4.6670   -1.5400    2.9440 c1        1 AQB     -0.129500
     27 CAV         7.8950   -0.5040    7.8510 c3        1 AQB     -0.160000
     28 CAW         6.7120   -1.3780    7.3890 c3        1 AQB     -0.188000
     29 CAX         7.4000    0.5310    8.8820 c3        1 AQB     -0.064000
     30 NBA        -6.5890    0.8130   -5.6950 n2        1 AQB     -0.060000
     31 NBB         5.7250   -1.5220    5.0150 n         1 AQB     -0.328000
     32 NBC        -2.7870   -1.0690   -1.6410 n         1 AQB     -0.309000
     33 NBD        -4.4170   -0.4430   -3.4210 n         1 AQB     -0.286000
     34 NBE         2.0080   -1.5300    0.9710 n3        1 AQB     -0.237000
     35 CBF         6.8540   -1.6820    5.8910 c2        1 AQB      0.313000
     36 CBG        -3.0660   -0.4640   -2.9160 c2        1 AQB      0.390000
     37 CBH        -7.1200    4.4190   -3.5970 c1        1 AQB      0.065000
     38 CBI        -1.4660   -0.9680   -1.0680 c1        1 AQB      0.056000
     39 CBJ         1.1090   -0.9540   -0.0040 c1        1 AQB      0.028000
     40 CBK         5.8530   -1.8260    3.6110 c1        1 AQB      0.078000
     41 CBL        -6.0000    2.6860   -4.8460 c1        1 AQB      0.096000
     42 CBM        -6.3790   -0.5150   -5.8700 c1        1 AQB     -0.090000
     43 CBN        -4.7230    0.2830   -4.6260 c2        1 AQB      0.049000
     44 NBR         8.2760    1.6830    8.8690 n3        1 AQB     -0.265000
     45 NBS        -5.5610    1.3100   -4.9220 n3        1 AQB     -0.121000
     46 CBT        -7.2920   -1.4820   -6.6500 c2        1 AQB      0.018000
     47 H2          4.4760   -1.7740   -2.1780 ha        1 AQB      0.192000
     48 HAA         9.0020    2.9330   10.2500 h1        1 AQB      0.071500
     49 HAAA        9.3600    1.3900   10.5220 h1        1 AQB      0.071500
     50 HAAB        7.8780    1.9320   10.8100 h1        1 AQB      0.071500
     51 HAB         6.8410    3.0710    8.8600 h1        1 AQB      0.071500
     52 HABA        7.2410    2.5490    7.3970 h1        1 AQB      0.071500
     53 HABB        8.2130    3.5580    8.1820 h1        1 AQB      0.071500
     54 HAC        -7.6730    0.0020   -8.0570 hc        1 AQB      0.078556
     55 HACA       -8.9100   -0.2430   -7.0670 hc        1 AQB      0.078556
     56 HACB       -8.6120   -1.2880   -8.2500 hc        1 AQB      0.078556
     57 HAD        -5.9890   -3.0900   -6.8760 hc        1 AQB      0.078556
     58 HADA       -5.7430   -1.9380   -7.9670 hc        1 AQB      0.078556
     59 HADB       -6.9970   -2.9330   -8.1160 hc        1 AQB      0.078556
     60 HAE        -8.8630   -2.7580   -6.1530 hc        1 AQB      0.078556
     61 HAEA       -7.5890   -2.9380   -5.1920 hc        1 AQB      0.078556
     62 HAEB       -8.5590   -1.6730   -5.0080 hc        1 AQB      0.078556
     63 HNAF       -8.2260    4.4160   -1.8700 hn        1 AQB      0.187500
     64 HNAA       -8.2570    5.8180   -2.6180 hn        1 AQB      0.187500
     65 HAI        -5.9230    5.5670   -6.4470 ha        1 AQB      0.139000
     66 HAJ        -7.1240    6.2670   -4.5230 ha        1 AQB      0.137000
     67 HAK        -5.2150    3.3120   -6.6500 ha        1 AQB      0.139000
     68 HAL        -0.5220   -0.4150   -2.8180 ha        1 AQB      0.176000
     69 HAM        -2.0290   -1.5190    0.8420 ha        1 AQB      0.139000
     70 HAN         1.6710   -0.4040   -1.9110 ha        1 AQB      0.158000
     71 HAO         0.1640   -1.5070    1.7480 ha        1 AQB      0.139000
     72 HAP         7.8250   -2.3790    3.3620 ha        1 AQB      0.181000
     73 HAR         7.7430   -2.4890    0.9940 ha        1 AQB      0.144000
     74 HAS        -6.9070    2.4520   -3.0070 ha        1 AQB      0.148000
     75 HAT        -4.8250   -1.7480   -5.1630 DU        1 AQB      0.192000
     76 HAU         3.8670   -1.2930    3.4520 ha        1 AQB      0.144000
     77 HAV         8.2790   -0.0370    7.0760 hc        1 AQB      0.095500
     78 HAVA        8.5830   -1.0750    8.2630 hc        1 AQB      0.095500
     79 HAW         5.8690   -0.8990    7.5480 hc        1 AQB      0.114000
     80 HAWA        6.7110   -2.2210    7.8960 hc        1 AQB      0.114000
     81 HAX         6.4850    0.8120    8.6510 h1        1 AQB      0.071500
     82 HAXA        7.4020    0.1270    9.7790 h1        1 AQB      0.071500
     83 HNBB        4.9170   -1.2540    5.3530 hn        1 AQB      0.229000
     84 HNBC       -3.4640   -1.4450   -1.1580 hn        1 AQB      0.221000
     85 HNBE        1.6770   -2.0460    1.6500 hn        1 AQB      0.216000
     86 HNBD       -5.0670   -0.9330   -3.0060 hn        1 AQB      0.227000
@<TRIPOS>BOND
     1    1    6 1   
     2    2    3 1   
     3    2   47 1   
     4    4    5 1   
     5    4   23 1   
     6    5   26 1   
     7    6   34 1   
     8    7   44 1   
     9    7   48 1   
    10    7   49 1   
    11    7   50 1   
    12    8   44 1   
    13    8   51 1   
    14    8   52 1   
    15    8   53 1   
    16    9   46 1   
    17    9   54 1   
    18    9   55 1   
    19    9   56 1   
    20   10   46 1   
    21   10   57 1   
    22   10   58 1   
    23   10   59 1   
    24   11   46 1   
    25   11   60 1   
    26   11   61 1   
    27   11   62 1   
    28   12   37 1   
    29   12   63 1   
    30   12   64 1   
    31   13   35 1   
    32   14   36 1   
    33   15   17 1   
    34   15   65 1   
    35   16   37 1   
    36   16   66 1   
    37   17   67 1   
    38   18   38 1   
    39   18   68 1   
    40   19   21 1   
    41   19   69 1   
    42   20   39 1   
    43   20   70 1   
    44   21   71 1   
    45   22   40 1   
    46   22   72 1   
    47   23   73 1   
    48   24   41 1   
    49   24   74 1   
    50   25   42 1   
    51   25   43 1   
    52   26   76 1   
    53   27   28 1   
    54   27   29 1   
    55   27   77 1   
    56   27   78 1   
    57   28   35 1   
    58   28   79 1   
    59   28   80 1   
    60   29   44 1   
    61   29   81 1   
    62   29   82 1   
    63   30   42 1   
    64   30   45 1   
    65   31   35 1   
    66   31   40 1   
    67   31   83 1   
    68   32   36 1   
    69   32   38 1   
    70   32   84 1   
    71   33   36 1   
    72   33   43 1   
    73   33   86 1   
    74   34   39 1   
    75   34   85 1   
    76   41   45 1   
    77   43   45 1   
@<TRIPOS>SUBSTRUCTURE
     1 AQB         1 TEMP              0 ****  ****    0 ROOT
