@<TRIPOS>MOLECULE
AQC
   28    25     1     0     0
SMALL
bcc


@<TRIPOS>ATOM
      1 C4A        -0.8890   -0.0030   -0.4360 c1        1 AQC     -0.090000
      2 C1A         0.4910   -0.0030   -0.4360 c2        1 AQC     -0.114000
      3 C9          1.2580   -0.0030    0.8920 c2        1 AQC      0.304000
      4 C8A         0.4910   -0.0030    2.2190 c2        1 AQC     -0.107000
      5 C5A        -0.8890   -0.0030    2.2190 c2        1 AQC     -0.110000
      6 C10        -1.6550   -0.0030    0.8920 c1        1 AQC      0.304000
      7 C4         -1.5900   -0.0030   -1.6510 c1        1 AQC     -0.096000
      8 C3         -0.8950   -0.0030   -2.8540 c2        1 AQC     -0.094000
      9 C2          0.4970   -0.0030   -2.8540 c1        1 AQC     -0.107000
     10 C1          1.1920   -0.0030   -1.6510 c2        1 AQC     -0.040000
     11 C8          1.1920   -0.0030    3.4340 c1        1 AQC     -0.086000
     12 C5         -1.5900   -0.0030    3.4340 c1        1 AQC     -0.085000
     13 C7          0.4970   -0.0030    4.6370 c1        1 AQC     -0.114000
     14 C6         -0.8950   -0.0030    4.6370 c2        1 AQC     -0.116000
     15 C1L         1.3500    0.0060   -4.1030 c1        1 AQC      0.340000
     16 N2'         0.7340    0.0150   -5.3820 n3        1 AQC     -0.431000
     17 O9          2.4730   -0.0010    0.8920 o         1 AQC     -0.276000
     18 O10        -2.8700   -0.0030    0.8920 o         1 AQC     -0.282000
     19 O1L         2.5610   -0.0010   -4.0130 o         1 AQC     -0.355000
     20 H4         -2.5660   -0.0030   -1.6520 DU        1 AQC      0.163000
     21 H3         -1.3830   -0.0030   -3.6990 ha        1 AQC      0.145000
     22 H1          2.1680   -0.0030   -1.6510 ha        1 AQC      0.182000
     23 H8          2.1680   -0.0030    3.4350 ha        1 AQC      0.162000
     24 H5         -2.5660   -0.0030    3.4350 DU        1 AQC      0.163000
     25 H7          0.9850   -0.0030    5.4830 ha        1 AQC      0.143000
     26 H6         -1.3830   -0.0030    5.4820 ha        1 AQC      0.143000
     27 HN2'        0.5540   -0.7710   -5.8070 hn        1 AQC      0.228500
     28 HN2A        0.5550    0.8080   -5.7960 hn        1 AQC      0.228500
@<TRIPOS>BOND
     1    1    2 1   
     2    1    7 1   
     3    2    3 1   
     4    2   10 1   
     5    3    4 1   
     6    3   17 1   
     7    4    5 1   
     8    4   11 1   
     9    5    6 1   
    10    5   12 1   
    11    6   18 1   
    12    7    8 1   
    13    8    9 1   
    14    8   21 1   
    15    9   10 1   
    16   10   22 1   
    17   11   23 1   
    18   12   14 1   
    19   13   14 1   
    20   13   25 1   
    21   14   26 1   
    22   15   16 1   
    23   15   19 1   
    24   16   27 1   
    25   16   28 1   
@<TRIPOS>SUBSTRUCTURE
     1 AQC         1 TEMP              0 ****  ****    0 ROOT
