@<TRIPOS>MOLECULE
AQC
   29    31     1     0     0
SMALL
bcc


@<TRIPOS>ATOM
      1 C4A        -0.0030   -0.1990    0.0140 ca        1 AQC     -0.044600
      2 C1A         1.3950   -0.2170    0.0110 ca        1 AQC     -0.128600
      3 C9          2.1750   -0.3450    1.2720 c         1 AQC      0.585300
      4 C8A         1.4050   -0.4460    2.5220 ca        1 AQC     -0.137600
      5 C5A        -0.0030   -0.4280    2.5270 ca        1 AQC     -0.140600
      6 C10        -0.7780   -0.3070    1.2840 c         1 AQC      0.576300
      7 C4         -0.7020   -0.0770   -1.2000 ca        1 AQC     -0.089000
      8 C3         -0.0190    0.0250   -2.4030 ca        1 AQC     -0.089000
      9 C2          1.3870    0.0070   -2.4110 ca        1 AQC     -0.203600
     10 C1          2.0910   -0.1140   -1.2010 ca        1 AQC      0.002000
     11 C8          2.1000   -0.5620    3.7300 ca        1 AQC     -0.071000
     12 C5         -0.6920   -0.5260    3.7400 ca        1 AQC     -0.070000
     13 C7          1.4030   -0.6600    4.9380 ca        1 AQC     -0.099000
     14 C6          0.0110   -0.6420    4.9430 ca        1 AQC     -0.100000
     15 C1L         2.1960    0.1100   -3.6190 c         1 AQC      0.575700
     16 N2'         1.4520    0.1980   -4.9460 nz        1 AQC     -0.763400
     17 O9          3.4110   -0.3620    1.2370 o         1 AQC     -0.495100
     18 O10        -2.0140   -0.2920    1.2540 o         1 AQC     -0.485100
     19 O1L         3.4110    0.1350   -3.7450 o         1 AQC     -0.405100
     20 H4         -1.8080   -0.0640   -1.1760 ha        1 AQC      0.192000
     21 H3         -0.6090    0.1210   -3.3270 ha        1 AQC      0.129000
     22 H1          3.1990   -0.1290   -1.1890 ha        1 AQC      0.198000
     23 H8          3.2040   -0.5760    3.7200 ha        1 AQC      0.169000
     24 H5         -1.7950   -0.5120    3.7390 ha        1 AQC      0.169000
     25 H7          1.9610   -0.7520    5.8840 ha        1 AQC      0.159000
     26 H6         -0.5420   -0.7190    5.8930 ha        1 AQC      0.160000
     27 HN2'        2.1290    0.2490   -5.7180 hn        1 AQC      0.469133
     28 HN2A        0.8620    1.0340   -4.9590 hn        1 AQC      0.469133
     29 H2'3        0.8620   -0.6290   -5.0690 hn        1 AQC      0.469133
@<TRIPOS>BOND
     1    1    2 ar  
     2    1    6 1   
     3    1    7 ar  
     4    2    3 1   
     5    2   10 ar  
     6    3    4 1   
     7    3   17 2   
     8    4    5 ar  
     9    4   11 ar  
    10    5    6 1   
    11    5   12 ar  
    12    6   18 2   
    13    7    8 ar  
    14    7   20 1   
    15    8    9 ar  
    16    8   21 1   
    17    9   10 ar  
    18    9   15 1   
    19   10   22 1   
    20   11   13 ar  
    21   11   23 1   
    22   12   14 ar  
    23   12   24 1   
    24   13   14 ar  
    25   13   25 1   
    26   14   26 1   
    27   15   16 1   
    28   15   19 2   
    29   16   27 1   
    30   16   28 1   
    31   16   29 1   
@<TRIPOS>SUBSTRUCTURE
     1 AQC         1 TEMP              0 ****  ****    0 ROOT
