@<TRIPOS>MOLECULE
AQC
   28    30     1     0     0
SMALL
bcc


@<TRIPOS>ATOM
      1 C4A         0.1490   -1.0590    0.0170 ca        1 AQC     -0.110600
      2 C1A         0.4140    0.3190    0.0630 ca        1 AQC     -0.134600
      3 C9         -0.6770    1.3100    0.1980 c         1 AQC      0.584300
      4 C8A        -2.0600    0.7900    0.1740 ca        1 AQC     -0.127600
      5 C5A        -2.3260   -0.5880    0.1270 ca        1 AQC     -0.130600
      6 C10        -1.2340   -1.5820    0.0970 c         1 AQC      0.584300
      7 C4          1.2080   -1.9640   -0.1110 ca        1 AQC     -0.096000
      8 C3          2.5240   -1.5080   -0.1880 ca        1 AQC     -0.094000
      9 C2          2.7880   -0.1380   -0.1370 ca        1 AQC     -0.127600
     10 C1          1.7340    0.7750   -0.0210 ca        1 AQC     -0.040000
     11 C8         -3.1240    1.7000    0.2010 ca        1 AQC     -0.086000
     12 C5         -3.6510   -1.0380    0.1100 ca        1 AQC     -0.085000
     13 C7         -4.4420    1.2430    0.1800 ca        1 AQC     -0.114000
     14 C6         -4.7060   -0.1250    0.1340 ca        1 AQC     -0.116000
     15 C1L         4.1780    0.3970   -0.2360 c         1 AQC      0.666700
     16 N2'         5.1740   -0.2720    0.4330 n         1 AQC     -0.671000
     17 O9         -0.4390    2.5190    0.3240 o         1 AQC     -0.515100
     18 O10        -1.4600   -2.8000    0.1300 o         1 AQC     -0.521100
     19 O1L         4.4450    1.4170   -0.9020 o         1 AQC     -0.594100
     20 H4          0.9880   -3.0450   -0.1520 ha        1 AQC      0.165000
     21 H3          3.3420   -2.2360   -0.3030 ha        1 AQC      0.145000
     22 H1          1.9420    1.8610   -0.0050 ha        1 AQC      0.182000
     23 H8         -2.9050    2.7800    0.2410 ha        1 AQC      0.162000
     24 H5         -3.8490   -2.1230    0.0760 ha        1 AQC      0.161000
     25 H7         -5.2720    1.9660    0.2000 ha        1 AQC      0.143000
     26 H6         -5.7440   -0.4880    0.1180 ha        1 AQC      0.143000
     27 HN2'        6.0960    0.0860    0.4130 hn        1 AQC      0.315000
     28 HN2A        4.9680   -1.0310    1.0290 hn        1 AQC      0.315000
@<TRIPOS>BOND
     1    1    2 ar  
     2    1    6 1   
     3    1    7 ar  
     4    2    3 1   
     5    2   10 ar  
     6    3    4 1   
     7    3   17 2   
     8    4    5 ar  
     9    4   11 ar  
    10    5    6 1   
    11    5   12 ar  
    12    6   18 2   
    13    7    8 ar  
    14    7   20 1   
    15    8    9 ar  
    16    8   21 1   
    17    9   10 ar  
    18    9   15 1   
    19   10   22 1   
    20   11   13 ar  
    21   11   23 1   
    22   12   14 ar  
    23   12   24 1   
    24   13   14 ar  
    25   13   25 1   
    26   14   26 1   
    27   15   16 1   
    28   15   19 2   
    29   16   27 1   
    30   16   28 1   
@<TRIPOS>SUBSTRUCTURE
     1 AQC         1 TEMP              0 ****  ****    0 ROOT
