@<TRIPOS>MOLECULE
AQM
   92    94     1     0     0
SMALL
bcc


@<TRIPOS>ATOM
      1 N1          0.0640    0.1020   -0.3550 n2        1 AQM     -0.283000
      2 C2          1.3860    0.4820   -0.4810 c1        1 AQM      0.005000
      3 N3          1.9350    1.4370    0.2770 n3        1 AQM     -0.245000
      4 C4          1.1910    2.1440    1.3130 c3        1 AQM     -0.068000
      5 C5         -0.0610    1.4100    1.7210 c2        1 AQM     -0.082000
      6 C6         -0.6850    0.5700    0.6400 c2        1 AQM      0.165000
      7 CAB        -5.5010   -8.8900   -6.1300 c3        1 AQM     -0.204333
      8 CAC        -3.4690   -7.7720   -7.0400 c3        1 AQM     -0.204333
      9 CAD        -5.3640   -8.3310   -8.5450 c3        1 AQM     -0.204333
     10 OAF        -2.4380    1.4910    5.1330 o         1 AQM     -0.333000
     11 CAH        -6.7940    0.0010  -11.0620 c1        1 AQM     -0.123000
     12 CAI        -7.6920   -0.3300  -10.1730 c2        1 AQM     -0.123000
     13 CAJ        -5.8860    0.3010  -11.9380 c2        1 AQM     -0.171000
     14 CAK        -3.2510   -2.0510   -1.9180 c2        1 AQM     -0.239000
     15 CAL        -4.9850   -0.3430   -1.4190 c3        1 AQM     -0.178000
     16 CAM        -2.4020   -1.4560   -0.9430 c2        1 AQM      0.056000
     17 CAN        -4.0840    0.2300   -0.4400 c1        1 AQM     -0.155000
     18 CAO         1.5030    2.6750    3.7100 c2        1 AQM     -0.300000
     19 CAQ         2.0230    2.6570    2.4180 c1        1 AQM     -0.101000
     20 CAR        -8.3950   -2.9630   -7.7520 c1        1 AQM     -0.179000
     21 CAS        -5.3970   -5.8660   -5.5320 c2        1 AQM     -0.200000
     22 CAT        -0.5200    1.4750    2.9920 c2        1 AQM     -0.169000
     23 CAU        -3.6570    2.8230    8.7280 cx        1 AQM     -0.210000
     24 CAV        -4.4460    2.7920    7.4450 c3        1 AQM     -0.050000
     25 CAW        -5.3470    2.2930   11.8790 c2        1 AQM     -0.030000
     26 CAX        -4.0400    1.9270    9.8990 cx        1 AQM     -0.009000
     27 CAY        -5.7960    3.0720   12.8760 c2        1 AQM     -0.317000
     28 CAZ        -2.7370    1.7100    9.1580 cx        1 AQM     -0.231000
     29 NBC        -6.3310   -5.7770   -7.6480 n2        1 AQM     -0.044000
     30 NBG        -2.0230    0.2390    0.8080 n3        1 AQM     -0.213000
     31 CBI        -5.2340   -3.2740   -3.8350 c2        1 AQM      0.402000
     32 CBJ        -8.8730    0.5070   -9.9100 c2        1 AQM     -0.014000
     33 CBK        -4.5040   -1.5520   -2.1850 c2        1 AQM      0.083000
     34 CBL        -2.8110   -0.3440   -0.2180 c2        1 AQM     -0.101000
     35 CBM         0.2400    2.1680    4.0280 c2        1 AQM      0.187000
     36 CBN        -7.5650   -3.7470   -7.3880 c1        1 AQM     -0.084000
     37 CBO        -5.5770   -6.5330   -6.8160 c2        1 AQM     -0.074000
     38 CBP        -6.0860   -4.6520   -5.6490 c2        1 AQM      0.062000
     39 NBT        -4.0870    2.3610   11.2610 n3        1 AQM     -0.231000
     40 NBU        -4.8280    1.4770    6.9900 n3        1 AQM     -0.348000
     41 NBV        -6.5870   -4.6070   -7.0070 na        1 AQM     -0.037000
     42 H2          2.8860    1.7070    0.1670 hn        1 AQM      0.267000
     43 HAA        -3.0960    3.4330   12.7560 h1        1 AQM      0.075667
     44 HAAA       -3.6690    4.4600   11.3620 h1        1 AQM      0.075667
     45 HAAB       -2.2340    3.3530   11.1530 h1        1 AQM      0.075667
     46 HAB        -5.2380   -8.5740   -5.0920 hc        1 AQM      0.080556
     47 HABA       -6.6100   -8.9880   -6.2060 hc        1 AQM      0.080556
     48 HABB       -5.0390   -9.8860   -6.3300 hc        1 AQM      0.080556
     49 HAC        -3.0120   -8.7720   -7.2360 hc        1 AQM      0.080556
     50 HACA       -3.0760   -7.0450   -7.7900 hc        1 AQM      0.080556
     51 HACB       -3.1680   -7.4330   -6.0200 hc        1 AQM      0.080556
     52 HAD        -4.9880   -7.6100   -9.3090 hc        1 AQM      0.080556
     53 HADA       -6.4720   -8.4170   -8.6470 hc        1 AQM      0.080556
     54 HADB       -4.9090   -9.3310   -8.7450 hc        1 AQM      0.080556
     55 HNAE      -10.5020    0.8400   -8.9280 hn        1 AQM      0.145000
     56 HNAA       -9.1290   -2.2580   -8.0620 ha        1 AQM      0.262000
     57 HAH        -5.9480   -0.0300  -12.9860 ha        1 AQM      0.141000
     58 HAI        -7.5870   -1.2630   -9.5870 ha        1 AQM      0.164000
     59 HAJ        -4.9970    0.8980  -11.6820 ha        1 AQM      0.141000
     60 HAK        -2.8510   -2.9320   -2.4510 ha        1 AQM      0.183000
     61 HAL        -5.9360   -0.6000   -0.8630 hc        1 AQM      0.161000
     62 HAM        -1.4100   -1.9230   -0.8000 ha        1 AQM      0.174000
     63 HAN        -5.2410    0.4910   -2.1390 hc        1 AQM      0.161000
     64 HAO         2.1440    3.1090    4.4950 ha        1 AQM      0.147000
     65 HAQ         0.8210    3.1370    0.8530 h1        1 AQM      0.164000
     66 HAR        -8.9330    1.4140  -10.5550 h4        1 AQM      0.096000
     67 HAS        -4.8240   -6.2190   -4.6800 ha        1 AQM      0.194000
     68 HAT        -1.4510    0.9630    3.2960 ha        1 AQM      0.181000
     69 HAU        -3.8370    3.3490    6.6660 h1        1 AQM      0.065500
     70 HAUA       -1.6250    2.1810    6.9030 h5        1 AQM      0.155000
     71 HAV        -5.3920    3.3860    7.6130 h1        1 AQM      0.065500
     72 HAVA       -3.3280    3.8580    8.9570 hc        1 AQM      0.117000
     73 HAW        -5.9670    1.4510   11.5090 h4        1 AQM      0.136000
     74 HAWA       -6.7630    2.8640   13.3470 ha        1 AQM      0.118500
     75 HAX        -4.8380    1.1720    9.6960 h1        1 AQM      0.153000
     76 HAXA       -2.6520    0.7910    8.5500 hc        1 AQM      0.110500
     77 HAY        -5.2500    3.9280   13.2860 ha        1 AQM      0.118500
     78 HAYA       -4.0210    0.9430    6.7270 hn        1 AQM      0.152000
     79 HAZ        -1.7740    1.9740    9.6300 hc        1 AQM      0.110500
     80 HAZA       -5.4330    1.5540    6.1960 hn        1 AQM      0.152000
     81 HNBD        0.3770    2.7080    5.9740 hn        1 AQM      0.246000
     82 HNBE       -6.2430   -1.5560   -3.2330 hn        1 AQM      0.234000
     83 HNBG       -2.5500    0.8550    1.3980 hn        1 AQM      0.242000
     84 HNBF       -6.9550   -2.9350   -4.9770 hn        1 AQM      0.235000
     85 NBD        -0.2580    2.2990    5.3180 n         1 AQM     -0.328000
     86 NBE        -5.3880   -2.0570   -3.1340 n         1 AQM     -0.323000
     87 CBH        -1.5160    1.9660    5.8080 c2        1 AQM      0.265000
     88 CAA        -3.2370    3.4600   11.6430 c3        1 AQM     -0.099000
     89 OAG        -4.2650   -4.0350   -3.6490 o         1 AQM     -0.337000
     90 NBF        -6.2840   -3.6280   -4.7230 n         1 AQM     -0.288000
     91 CBW        -4.9870   -7.8720   -7.1430 c3        1 AQM      0.015000
     92 NAE        -9.7410    0.2000   -9.0170 n2        1 AQM     -0.255000
@<TRIPOS>BOND
     1    1    2 1   
     2    1    6 1   
     3    2    3 1   
     4    3    4 1   
     5    3   42 1   
     6    4    5 1   
     7    4   19 1   
     8    4   65 1   
     9    5    6 1   
    10    5   22 1   
    11    6   30 1   
    12    7   46 1   
    13    7   47 1   
    14    7   48 1   
    15    7   91 1   
    16    8   49 1   
    17    8   50 1   
    18    8   51 1   
    19    8   91 1   
    20    9   52 1   
    21    9   53 1   
    22    9   54 1   
    23    9   91 1   
    24   10   87 1   
    25   11   12 1   
    26   11   13 1   
    27   12   32 1   
    28   12   58 1   
    29   13   57 1   
    30   13   59 1   
    31   14   16 1   
    32   14   33 1   
    33   14   60 1   
    34   15   17 1   
    35   15   33 1   
    36   15   61 1   
    37   15   63 1   
    38   16   34 1   
    39   16   62 1   
    40   17   34 1   
    41   18   19 1   
    42   18   35 1   
    43   18   64 1   
    44   20   36 1   
    45   20   56 1   
    46   21   37 1   
    47   21   38 1   
    48   21   67 1   
    49   22   35 1   
    50   22   68 1   
    51   23   24 1   
    52   23   26 1   
    53   23   28 1   
    54   23   72 1   
    55   24   40 1   
    56   24   69 1   
    57   24   71 1   
    58   25   27 1   
    59   25   39 1   
    60   25   73 1   
    61   26   28 1   
    62   26   39 1   
    63   26   75 1   
    64   27   74 1   
    65   27   77 1   
    66   28   76 1   
    67   28   79 1   
    68   29   37 1   
    69   29   41 1   
    70   30   34 1   
    71   30   83 1   
    72   31   86 1   
    73   31   89 1   
    74   31   90 1   
    75   32   66 1   
    76   32   92 1   
    77   33   86 1   
    78   35   85 1   
    79   36   41 1   
    80   37   91 1   
    81   38   41 1   
    82   38   90 1   
    83   39   88 1   
    84   40   78 1   
    85   40   80 1   
    86   43   88 1   
    87   44   88 1   
    88   45   88 1   
    89   55   92 1   
    90   70   87 1   
    91   81   85 1   
    92   82   86 1   
    93   84   90 1   
    94   85   87 1   
@<TRIPOS>SUBSTRUCTURE
     1 AQM         1 TEMP              0 ****  ****    0 ROOT
