@<TRIPOS>MOLECULE
AQM
   92    97     1     0     0
SMALL
bcc


@<TRIPOS>ATOM
      1 N1         -1.4940    3.7940   -1.8370 nb        1 AQM     -0.767000
      2 C2         -1.9550    4.9900   -2.3310 ca        1 AQM      0.666900
      3 N3         -3.2130    5.4130   -2.4340 nb        1 AQM     -0.714000
      4 C4         -4.1820    4.5400   -1.9710 ca        1 AQM      0.414600
      5 C5         -3.8530    3.2680   -1.4140 ca        1 AQM     -0.264600
      6 C6         -2.4230    2.9260   -1.3750 ca        1 AQM      0.699200
      7 CAB         8.1420    0.5460    4.7570 c3        1 AQM     -0.085100
      8 CAC         8.2240    2.5890    3.3340 c3        1 AQM     -0.085100
      9 CAD        10.1710    1.0510    3.4210 c3        1 AQM     -0.085100
     10 OAF        -6.1700   -0.0370   -0.3470 o         1 AQM     -0.600100
     11 CAH         7.8310   -3.9160   -1.5760 ca        1 AQM     -0.083000
     12 CAI         8.7740   -3.5960   -2.5450 ca        1 AQM     -0.195000
     13 CAJ         7.5080   -3.0240   -0.5580 ca        1 AQM     -0.205000
     14 CAK         1.6450    1.4660   -0.2680 ca        1 AQM     -0.140000
     15 CAL         0.8300   -0.6140   -1.2120 ca        1 AQM     -0.140000
     16 CAM         0.3570    1.9880   -0.3110 ca        1 AQM     -0.117500
     17 CAN        -0.4510   -0.0860   -1.2700 ca        1 AQM     -0.117500
     18 CAO        -6.5400    4.0650   -1.5940 ca        1 AQM     -0.144000
     19 CAQ        -5.5620    4.9090   -2.0440 ca        1 AQM     -0.155300
     20 CAR         9.1050   -1.4290   -1.4820 ca        1 AQM     -0.177000
     21 CAS         6.6040    0.2480    2.0950 cc        1 AQM     -0.273300
     22 CAT        -4.8730    2.4200   -0.9340 ca        1 AQM     -0.127000
     23 CAU        -8.5370    0.0080    0.1640 c3        1 AQM     -0.155400
     24 CAV        -8.3140   -1.4560    0.5480 c3        1 AQM      0.177800
     25 CAW       -10.5010   -3.8900    2.4850 c3        1 AQM      0.162300
     26 CAX       -11.7070   -3.1830    0.5440 c3        1 AQM      0.162300
     27 CAY        -9.2290   -3.1780    1.9770 c3        1 AQM      0.136800
     28 CAZ       -10.4530   -2.4610    0.0080 c3        1 AQM      0.136800
     29 NBC         8.7160   -0.3080    1.3450 nd        1 AQM     -0.494800
     30 NBG        -2.0420    1.7080   -0.8100 nh        1 AQM     -0.724300
     31 CBI         4.1770   -0.1070    0.2340 c         1 AQM      0.762100
     32 CBJ         9.4280   -2.3420   -2.5110 ca        1 AQM      0.155600
     33 CBK         1.9070    0.1570   -0.7170 ca        1 AQM      0.044600
     34 CBL        -0.7130    1.2260   -0.8190 ca        1 AQM      0.118600
     35 CBM        -6.2120    2.7910   -1.0260 ca        1 AQM      0.050600
     36 CBN         8.1390   -1.7650   -0.5200 ca        1 AQM      0.053800
     37 CBO         8.0350    0.3640    2.3100 cc        1 AQM      0.332600
     38 CBP         6.4710   -0.5330    0.9330 cd        1 AQM      0.020300
     39 NBT       -11.4440   -4.2880    1.4520 n3        1 AQM     -0.719600
     40 NBU        -9.5240   -2.0830    1.0630 n3        1 AQM     -0.735600
     41 NBV         7.8050   -0.8150    0.4890 na        1 AQM      0.118300
     42 H2         -1.1580    5.6750   -2.6950 h5        1 AQM      0.053100
     43 HAA       -10.9850   -6.3310    1.5460 h1        1 AQM      0.032033
     44 HAAA      -11.9040   -5.7940    0.0680 h1        1 AQM      0.032033
     45 HAAB      -10.1190   -5.4500    0.2060 h1        1 AQM      0.032033
     46 HAB         7.0270    0.5880    4.7950 hc        1 AQM      0.039144
     47 HABA        8.4640   -0.5170    4.8610 hc        1 AQM      0.039144
     48 HABB        8.5530    1.1310    5.6140 hc        1 AQM      0.039144
     49 HAC         8.6330    3.1670    4.1970 hc        1 AQM      0.039144
     50 HACA        8.6090    3.0360    2.3870 hc        1 AQM      0.039144
     51 HACB        7.1100    2.6690    3.3410 hc        1 AQM      0.039144
     52 HAD        10.5120   -0.0080    3.5040 hc        1 AQM      0.039144
     53 HADA       10.5730    1.4840    2.4750 hc        1 AQM      0.039144
     54 HADB       10.5880    1.6280    4.2820 hc        1 AQM      0.039144
     55 HNAE       10.7500   -2.7400   -3.9940 hn        1 AQM      0.396800
     56 HNAA       10.9490   -1.2460   -3.2810 hn        1 AQM      0.396800
     57 HAH         7.3380   -4.9000   -1.6060 ha        1 AQM      0.135000
     58 HAI         9.0080   -4.3220   -3.3370 ha        1 AQM      0.137000
     59 HAJ         6.7930   -3.3240    0.2240 ha        1 AQM      0.148000
     60 HAK         2.4600    2.0890    0.1390 ha        1 AQM      0.151500
     61 HAL         0.9940   -1.6430   -1.5690 ha        1 AQM      0.151500
     62 HAM         0.1910    3.0130    0.0570 ha        1 AQM      0.146500
     63 HAN        -1.2640   -0.7130   -1.6690 ha        1 AQM      0.146500
     64 HAO        -7.5960    4.3750   -1.6680 ha        1 AQM      0.134000
     65 HAQ        -5.8260    5.8890   -2.4730 ha        1 AQM      0.157000
     66 HAR         9.6130   -0.4520   -1.4320 ha        1 AQM      0.157000
     67 HAS         5.8060    0.6930    2.6820 ha        1 AQM      0.192000
     68 HAT        -4.6200    1.4530   -0.4690 ha        1 AQM      0.168000
     69 HAU        -9.2710    0.0840   -0.6800 hc        1 AQM      0.073700
     70 HAUA       -8.9530    0.5750    1.0390 hc        1 AQM      0.073700
     71 HAV        -7.9020   -2.0000   -0.3530 h1        1 AQM      0.052200
     72 HAVA       -7.5160   -1.4880    1.3440 h1        1 AQM      0.052200
     73 HAW       -10.1800   -4.7940    3.0710 h1        1 AQM      0.059200
     74 HAWA      -11.0540   -3.1960    3.1790 h1        1 AQM      0.059200
     75 HAX       -12.3410   -2.4430    1.1090 h1        1 AQM      0.059200
     76 HAXA      -12.2980   -3.5530   -0.3370 h1        1 AQM      0.059200
     77 HAY        -8.6920   -2.7450    2.8670 h1        1 AQM      0.034700
     78 HAYA       -8.5490   -3.9440    1.5020 h1        1 AQM      0.034700
     79 HAZ        -9.9590   -3.1190   -0.7670 h1        1 AQM      0.034700
     80 HAZA      -10.7860   -1.5180   -0.5080 h1        1 AQM      0.034700
     81 HNBD       -8.1580    2.4300   -0.5190 hn        1 AQM      0.318500
     82 HNBE        3.2750   -1.2560   -1.2360 hn        1 AQM      0.307500
     83 HNBG       -2.7400    0.9950   -0.8340 hn        1 AQM      0.440800
     84 HNBF        5.4750   -1.5580   -0.5170 hn        1 AQM      0.312500
     85 NBD        -7.2690    1.9850   -0.5690 n         1 AQM     -0.473100
     86 NBE         3.2090   -0.3860   -0.7530 n         1 AQM     -0.456100
     87 CBH        -7.2190    0.6290   -0.2690 c         1 AQM      0.666100
     88 CAA       -11.0830   -5.5170    0.7810 c3        1 AQM      0.148100
     89 OAG         4.0480    0.8250    1.0530 o         1 AQM     -0.591100
     90 NBF         5.3160   -0.9630    0.2710 n         1 AQM     -0.431100
     91 CBW         8.6510    1.1280    3.4420 c3        1 AQM     -0.076300
     92 NAE        10.3190   -1.9770   -3.5230 nh        1 AQM     -0.822200
@<TRIPOS>BOND
     1    1    2 ar  
     2    1    6 ar  
     3    2    3 ar  
     4    2   42 1   
     5    3    4 ar  
     6    4    5 ar  
     7    4   19 ar  
     8    5    6 ar  
     9    5   22 ar  
    10    6   30 1   
    11    7   46 1   
    12    7   47 1   
    13    7   48 1   
    14    7   91 1   
    15    8   49 1   
    16    8   50 1   
    17    8   51 1   
    18    8   91 1   
    19    9   52 1   
    20    9   53 1   
    21    9   54 1   
    22    9   91 1   
    23   10   87 2   
    24   11   12 ar  
    25   11   13 ar  
    26   11   57 1   
    27   12   32 ar  
    28   12   58 1   
    29   13   36 ar  
    30   13   59 1   
    31   14   16 ar  
    32   14   33 ar  
    33   14   60 1   
    34   15   17 ar  
    35   15   33 ar  
    36   15   61 1   
    37   16   34 ar  
    38   16   62 1   
    39   17   34 ar  
    40   17   63 1   
    41   18   19 ar  
    42   18   35 ar  
    43   18   64 1   
    44   19   65 1   
    45   20   32 ar  
    46   20   36 ar  
    47   20   66 1   
    48   21   37 1   
    49   21   38 2   
    50   21   67 1   
    51   22   35 ar  
    52   22   68 1   
    53   23   24 1   
    54   23   69 1   
    55   23   70 1   
    56   23   87 1   
    57   24   40 1   
    58   24   71 1   
    59   24   72 1   
    60   25   27 1   
    61   25   39 1   
    62   25   73 1   
    63   25   74 1   
    64   26   28 1   
    65   26   39 1   
    66   26   75 1   
    67   26   76 1   
    68   27   40 1   
    69   27   77 1   
    70   27   78 1   
    71   28   40 1   
    72   28   79 1   
    73   28   80 1   
    74   29   37 2   
    75   29   41 1   
    76   30   34 1   
    77   30   83 1   
    78   31   86 1   
    79   31   89 2   
    80   31   90 1   
    81   32   92 1   
    82   33   86 1   
    83   35   85 1   
    84   36   41 1   
    85   37   91 1   
    86   38   41 1   
    87   38   90 1   
    88   39   88 1   
    89   43   88 1   
    90   44   88 1   
    91   45   88 1   
    92   55   92 1   
    93   56   92 1   
    94   81   85 1   
    95   82   86 1   
    96   84   90 1   
    97   85   87 1   
@<TRIPOS>SUBSTRUCTURE
     1 AQM         1 TEMP              0 ****  ****    0 ROOT
