@<TRIPOS>MOLECULE
AQM
   92    91     1     0     0
SMALL
bcc


@<TRIPOS>ATOM
      1 N1          0.7290    0.2570    0.0940 n2        1 AQM     -0.268000
      2 C2          3.7490   -1.6740    0.9020 c1        1 AQM      0.168000
      3 N3          3.0310   -1.1900    1.7120 n2        1 AQM     -0.319000
      4 C4          2.2280   -0.6480    2.6770 c2        1 AQM      0.017000
      5 C5          0.9420   -0.2510    2.5090 c2        1 AQM     -0.095000
      6 C6          0.2710   -0.3170    1.1610 c2        1 AQM      0.119000
      7 CAB        -4.5330   -7.5540   -7.9480 c3        1 AQM     -0.202333
      8 CAC        -2.5430   -6.1920   -8.5700 c3        1 AQM     -0.202333
      9 CAD        -4.4830   -6.3400  -10.1120 c3        1 AQM     -0.202333
     10 OAF        -1.6900    2.1530    4.7420 o         1 AQM     -0.340000
     11 CAH        -9.0260   -0.2140   -6.7350 c1        1 AQM     -0.119000
     12 CAI        -8.6900   -0.2960   -8.0900 c2        1 AQM     -0.269000
     13 CAJ        -9.2930   -0.1290   -5.5690 c1        1 AQM     -0.239000
     14 CAK        -2.0890   -1.8300   -2.2880 ca        1 AQM     -0.137000
     15 CAL        -3.9780   -1.1940   -0.9070 ca        1 AQM     -0.137000
     16 CAM        -1.2380   -1.6470   -1.2050 ca        1 AQM     -0.122500
     17 CAN        -3.1240   -0.9970    0.1680 ca        1 AQM     -0.122500
     18 CAO         0.9770   -1.2510    5.2790 c2        1 AQM     -0.483000
     19 CAQ         1.6700   -1.4040    6.3880 c1        1 AQM      0.229000
     20 CAR        -7.8020   -2.3690   -8.4740 c1        1 AQM      0.100000
     21 CAS        -4.4470   -4.8130   -6.5360 c2        1 AQM     -0.201000
     22 CAT         0.1400    0.3150    3.5720 c2        1 AQM     -0.197000
     23 CAU        -2.1820    1.9520    7.0900 c3        1 AQM     -0.191000
     24 CAV        -3.2570    0.9310    7.4660 c3        1 AQM     -0.071000
     25 CAW        -7.5470    4.0940   10.7420 c1        1 AQM     -0.134000
     26 CAX        -5.5400    4.3590    9.3750 c2        1 AQM     -0.113000
     27 CAY        -6.9280    3.5210   11.9450 c3        1 AQM     -0.246000
     28 CAZ        -4.9160    4.6820    8.2330 c2        1 AQM     -0.265000
     29 NBC        -5.4370   -4.1480   -8.5110 n2        1 AQM     -0.073000
     30 NBG        -0.8960   -1.1270    1.1790 nh        1 AQM     -0.235000
     31 CBI        -4.2210   -2.7140   -4.2420 c2        1 AQM      0.386000
     32 CBJ        -9.5090   -0.8520   -9.0550 c2        1 AQM      0.148000
     33 CBK        -3.4750   -1.6070   -2.1610 ca        1 AQM      0.045000
     34 CBL        -1.7370   -1.2260    0.0440 ca        1 AQM      0.030000
     35 CBM         0.1510   -0.1080    4.8660 c2        1 AQM      0.129000
     36 CBN        -6.7100   -2.2480   -7.7030 c2        1 AQM     -0.304000
     37 CBO        -4.6520   -5.1010   -7.9430 c2        1 AQM     -0.089000
     38 CBP        -5.1550   -3.6220   -6.2980 c2        1 AQM      0.040000
     39 NBT        -6.9320    4.4520    9.6310 n3        1 AQM     -0.115000
     40 NBU        -3.9790    1.3080    8.6570 n3        1 AQM     -0.357000
     41 NBV        -5.6800   -3.2090   -7.5740 na        1 AQM     -0.071000
     42 H2          1.5950    0.7360    0.2160 hn        1 AQM      0.157000
     43 HAA        -8.8180    5.0530    8.8960 h1        1 AQM      0.094000
     44 HAAA       -7.6650    4.3600    7.6520 h1        1 AQM      0.094000
     45 HAAB       -7.3880    6.0410    8.3150 h1        1 AQM      0.094000
     46 HAB        -4.2400   -7.5350   -6.8710 hc        1 AQM      0.078000
     47 HABA       -5.6430   -7.6470   -8.0150 hc        1 AQM      0.078000
     48 HABB       -4.0680   -8.4470   -8.4310 hc        1 AQM      0.078000
     49 HAC        -2.2120   -6.1430   -7.5050 hc        1 AQM      0.078000
     50 HACA       -2.1820   -5.2780   -9.0990 hc        1 AQM      0.078000
     51 HACB       -2.0840   -7.0900   -9.0490 hc        1 AQM      0.078000
     52 HAD        -5.5930   -6.4120  -10.1990 hc        1 AQM      0.078000
     53 HADA       -4.0280   -7.2370  -10.5980 hc        1 AQM      0.078000
     54 HADB       -4.1390   -5.4270  -10.6540 hc        1 AQM      0.078000
     55 HNAE      -11.0690   -2.0540   -9.5260 hn        1 AQM      0.223000
     56 HNAA      -11.0220   -1.5750   -7.9090 hn        1 AQM      0.223000
     57 HAH        -9.5340   -0.0470   -4.5410 ha        1 AQM      0.222000
     58 HAI        -7.8100    0.2840   -8.4160 ha        1 AQM      0.159000
     59 HAJ        -6.4970   -1.3270   -7.1240 h4        1 AQM      0.156000
     60 HAK        -1.6670   -2.1680   -3.2500 ha        1 AQM      0.148500
     61 HAL        -5.0550   -1.0100   -0.7680 ha        1 AQM      0.148500
     62 HAM        -0.1610   -1.8330   -1.3410 ha        1 AQM      0.143000
     63 HAN        -3.5510   -0.6640    1.1270 ha        1 AQM      0.143000
     64 HAO         1.0120   -2.0760    4.5290 ha        1 AQM      0.220000
     65 HAQ         2.7310   -0.5330    3.6620 h4        1 AQM      0.158000
     66 HAR        -9.1760   -0.8240  -10.1160 h4        1 AQM      0.159000
     67 HAS        -3.8450   -5.3690   -5.8240 ha        1 AQM      0.186000
     68 HAT        -0.5160    1.1480    3.2550 ha        1 AQM      0.186000
     69 HAU        -2.7690   -0.0650    7.6720 h1        1 AQM      0.071500
     70 HAUA       -1.4370    2.0630    7.9200 hc        1 AQM      0.121500
     71 HAV        -3.9320    0.7920    6.5690 h1        1 AQM      0.071500
     72 HAVA       -2.6470    2.9590    6.9090 hc        1 AQM      0.121500
     73 HAW        -5.8300    3.3080   11.9230 hc        1 AQM      0.093000
     74 HAWA       -7.1330    4.2310   12.7890 hc        1 AQM      0.093000
     75 HAX        -4.9590    3.9760   10.2380 h4        1 AQM      0.149000
     76 HAXA       -3.8270    4.5770    8.1460 ha        1 AQM      0.125000
     77 HAY        -4.6790    0.6260    8.8690 hn        1 AQM      0.155000
     78 HAYA       -7.4660    2.5620   12.1660 hc        1 AQM      0.093000
     79 HAZ        -5.4200    5.0730    7.3410 ha        1 AQM      0.125000
     80 HAZA       -4.4090    2.2080    8.5530 hn        1 AQM      0.155000
     81 HNBD       -0.5660   -0.0030    6.7800 hn        1 AQM      0.238000
     82 HNBE       -5.2790   -1.3760   -3.0700 hn        1 AQM      0.218000
     83 HNBG       -1.4050   -1.0220    2.0360 hn        1 AQM      0.208000
     84 HNBF       -6.0570   -2.2330   -5.1120 hn        1 AQM      0.224000
     85 NBD        -0.6160    0.4580    5.8970 n         1 AQM     -0.332000
     86 NBE        -4.3590   -1.7120   -3.2560 n         1 AQM     -0.308000
     87 CBH        -1.4880    1.5390    5.8030 c2        1 AQM      0.308000
     88 CAA        -7.7470    5.0080    8.5640 c3        1 AQM     -0.083000
     89 OAG        -3.1860   -3.4030   -4.3570 o         1 AQM     -0.350000
     90 NBF        -5.3330   -2.9200   -5.1050 n         1 AQM     -0.286000
     91 CBW        -4.0640   -6.2830   -8.6490 c3        1 AQM      0.018000
     92 NAE       -10.7220   -1.4230   -8.8440 n3        1 AQM     -0.336000
@<TRIPOS>BOND
     1    1    6 1   
     2    1   42 1   
     3    2    3 1   
     4    3    4 1   
     5    4    5 1   
     6    4   65 1   
     7    5    6 1   
     8    5   22 1   
     9    6   30 1   
    10    7   46 1   
    11    7   47 1   
    12    7   48 1   
    13    7   91 1   
    14    8   49 1   
    15    8   50 1   
    16    8   51 1   
    17    8   91 1   
    18    9   52 1   
    19    9   53 1   
    20    9   54 1   
    21    9   91 1   
    22   10   87 1   
    23   11   12 1   
    24   11   13 1   
    25   12   32 1   
    26   12   58 1   
    27   13   57 1   
    28   14   16 1   
    29   14   33 1   
    30   14   60 1   
    31   15   17 1   
    32   15   33 1   
    33   15   61 1   
    34   16   34 1   
    35   16   62 1   
    36   17   34 1   
    37   17   63 1   
    38   18   19 1   
    39   18   35 1   
    40   18   64 1   
    41   20   36 1   
    42   21   37 1   
    43   21   38 1   
    44   21   67 1   
    45   22   35 1   
    46   22   68 1   
    47   23   24 1   
    48   23   70 1   
    49   23   72 1   
    50   23   87 1   
    51   24   40 1   
    52   24   69 1   
    53   24   71 1   
    54   25   27 1   
    55   25   39 1   
    56   26   28 1   
    57   26   39 1   
    58   26   75 1   
    59   27   73 1   
    60   27   74 1   
    61   27   78 1   
    62   28   76 1   
    63   28   79 1   
    64   29   37 1   
    65   29   41 1   
    66   30   34 1   
    67   30   83 1   
    68   31   86 1   
    69   31   89 1   
    70   31   90 1   
    71   32   66 1   
    72   32   92 1   
    73   33   86 1   
    74   35   85 1   
    75   36   41 1   
    76   36   59 1   
    77   37   91 1   
    78   38   41 1   
    79   38   90 1   
    80   39   88 1   
    81   40   77 1   
    82   40   80 1   
    83   43   88 1   
    84   44   88 1   
    85   45   88 1   
    86   55   92 1   
    87   56   92 1   
    88   81   85 1   
    89   82   86 1   
    90   84   90 1   
    91   85   87 1   
@<TRIPOS>SUBSTRUCTURE
     1 AQM         1 TEMP              0 ****  ****    0 ROOT
