@<TRIPOS>MOLECULE
AQM
   92    84     1     0     0
SMALL
bcc


@<TRIPOS>ATOM
      1 N1          2.4560    0.4800    0.1500 n1        1 AQM     -0.229000
      2 C2          3.7250    1.0180    0.1390 c1        1 AQM     -0.003000
      3 N3          4.3780    1.2810    1.3310 n1        1 AQM     -0.177000
      4 C4          3.7720    1.0120    2.5080 c1        1 AQM     -0.054000
      5 C5          2.5070    0.4760    2.5220 c1        1 AQM     -0.054000
      6 C6          1.8500    0.2100    1.3170 c1        1 AQM      0.159000
      7 CAA         3.2400   -3.3440   13.2680 c3        1 AQM     -0.128000
      8 CAB         0.3100   -0.9040  -10.8060 c3        1 AQM     -0.203000
      9 CAC         1.0950    1.3820   -9.9000 c3        1 AQM     -0.203000
     10 CAD        -0.7280    1.3160  -11.7140 c3        1 AQM     -0.203000
     11 NAE        -8.0490    0.9180   -9.7180 n3        1 AQM     -0.331000
     12 OAF         3.5180    1.0560    7.5110 o         1 AQM     -0.348000
     13 OAG        -0.8260   -0.5210   -5.1300 o         1 AQM     -0.350000
     14 CAH        -5.7690    3.1250   -7.9480 c1        1 AQM     -0.149000
     15 CAI        -6.8730    2.5640   -8.5930 c1        1 AQM     -0.195000
     16 CAJ        -4.5870    2.4060   -7.8450 c1        1 AQM     -0.149000
     17 CAK        -0.5080   -1.1610   -2.5330 c1        1 AQM     -0.123000
     18 CAL        -1.8760    0.4280   -1.3510 c1        1 AQM     -0.149000
     19 CAM         0.3770   -1.1990   -1.4470 c1        1 AQM     -0.087000
     20 CAN        -1.0060    0.3900   -0.2840 c1        1 AQM     -0.149000
     21 CAO         3.8070    1.0010    4.9260 c1        1 AQM     -0.122000
     22 CAQ         4.4320    1.2790    3.7120 c1        1 AQM     -0.129000
     23 CAR        -5.5980    0.5640   -9.0260 c1        1 AQM     -0.177000
     24 CAS        -1.0670    0.1060   -8.0040 c1        1 AQM     -0.206000
     25 CAT         1.8770    0.1970    3.7450 c1        1 AQM     -0.129000
     26 CAU         1.7560    0.0160    8.7770 c3        1 AQM     -0.185000
     27 CAV         2.8140   -0.3660    9.9080 c3        1 AQM     -0.060000
     28 CAW         2.3160   -1.1660   13.4870 c3        1 AQM     -0.074500
     29 CAX         1.1950   -2.8020   12.1710 c3        1 AQM     -0.074500
     30 CAY         2.9260   -0.5700   12.2240 c3        1 AQM     -0.100500
     31 CAZ         1.8060   -2.2080   10.9090 c3        1 AQM     -0.100500
     32 NBC        -2.5550    0.7840   -9.4660 n2        1 AQM     -0.062000
     33 NBD         1.9140   -0.0080    6.1820 n         1 AQM     -0.331000
     34 NBE        -2.5390   -0.2870   -3.6370 n         1 AQM     -0.309000
     35 NBF        -2.8650   -0.0660   -6.0780 n         1 AQM     -0.285000
     36 NBG         0.5980   -0.4450    0.9840 n3        1 AQM     -0.237000
     37 CBH         2.5010    0.3550    7.4720 c2        1 AQM      0.311000
     38 CBI        -2.0210   -0.3840   -4.9610 c2        1 AQM      0.390000
     39 CBJ        -6.7890    1.2880   -9.1300 c1        1 AQM      0.074000
     40 CBK        -1.6270   -0.3510   -2.4840 c1        1 AQM      0.056000
     41 CBL         0.1320   -0.4330   -0.3350 c1        1 AQM      0.028000
     42 CBM         2.5320    0.4610    4.9400 c1        1 AQM      0.077000
     43 CBN        -4.5000    1.1220   -8.3850 c1        1 AQM      0.099000
     44 CBO        -1.2480    0.5390   -9.2930 c1        1 AQM     -0.090000
     45 CBP        -2.2900    0.0900   -7.3890 c2        1 AQM      0.051000
     46 NBT         1.9910   -2.5470   13.3350 n3        1 AQM     -0.245000
     47 NBU         2.1300   -0.8250   11.0620 n3        1 AQM     -0.261000
     48 NBV        -3.2060    0.5030   -8.2780 n3        1 AQM     -0.121000
     49 CBW        -0.1370    0.5920  -10.4220 c2        1 AQM      0.018000
     50 H2          4.1550    1.2090   -0.6890 ha        1 AQM      0.192000
     51 HAA         3.6620   -3.3710   14.1660 h1        1 AQM      0.071667
     52 HAAA        3.0300   -4.2610   12.9760 h1        1 AQM      0.071667
     53 HAAB        3.8820   -2.9160   12.6050 h1        1 AQM      0.071667
     54 HAB         0.5500   -1.4130   -9.9630 hc        1 AQM      0.078556
     55 HABA        1.1160   -0.8690  -11.4190 hc        1 AQM      0.078556
     56 HABB       -0.4530   -1.3740  -11.2800 hc        1 AQM      0.078556
     57 HAC         0.7910    2.2120   -9.4610 hc        1 AQM      0.078556
     58 HACA        1.6880    1.6080  -10.6570 hc        1 AQM      0.078556
     59 HACB        1.5830    0.8340   -9.2560 hc        1 AQM      0.078556
     60 HAD        -1.4720    0.8030  -12.0600 hc        1 AQM      0.078556
     61 HADA       -0.0290    1.3830  -12.4030 hc        1 AQM      0.078556
     62 HADB       -1.0380    2.2230  -11.4710 hc        1 AQM      0.078556
     63 HNAE       -8.1360    0.1000  -10.1530 hn        1 AQM      0.192000
     64 HNAA       -8.7520    1.4910   -9.6820 hn        1 AQM      0.192000
     65 HAH        -5.8280    4.0380   -7.5640 ha        1 AQM      0.136000
     66 HAI        -7.7000    3.0670   -8.6640 ha        1 AQM      0.137000
     67 HAJ        -3.8150    2.7990   -7.3950 ha        1 AQM      0.136000
     68 HAK        -0.3320   -1.7130   -3.3350 ha        1 AQM      0.176000
     69 HAL        -2.6560    0.9910   -1.3160 ha        1 AQM      0.136000
     70 HAM         1.1880   -1.7850   -1.4830 ha        1 AQM      0.158000
     71 HAN        -1.1870    0.9550    0.5380 ha        1 AQM      0.136000
     72 HAO         4.2520    1.1820    5.7390 ha        1 AQM      0.179000
     73 HAQ         5.3350    1.6610    3.7020 ha        1 AQM      0.144000
     74 HAR        -5.5390   -0.3070   -9.3920 ha        1 AQM      0.157000
     75 HAS        -0.2010   -0.1500   -7.5890 DU        1 AQM      0.192000
     76 HAT         0.9490   -0.1970    3.7550 ha        1 AQM      0.144000
     77 HAU         1.2280    0.8040    9.0710 hc        1 AQM      0.113000
     78 HAUA        1.1330   -0.7680    8.6170 hc        1 AQM      0.113000
     79 HAV         3.4000   -1.0670    9.5800 h1        1 AQM      0.092000
     80 HAVA        3.3570    0.4390   10.1410 h1        1 AQM      0.092000
     81 HAW         2.9670   -1.0670   14.2380 h1        1 AQM      0.098000
     82 HAWA        1.5160   -0.6820   13.7020 h1        1 AQM      0.098000
     83 HAX         1.1060   -3.7590   12.0570 h1        1 AQM      0.098000
     84 HAXA        0.2930   -2.4090   12.3060 h1        1 AQM      0.098000
     85 HAY         3.8430   -0.9660   12.0860 h1        1 AQM      0.074250
     86 HAYA        3.0170    0.4270   12.3450 h1        1 AQM      0.074250
     87 HAZ         1.1580   -2.3070   10.1590 h1        1 AQM      0.074250
     88 HAZA        2.6260   -2.7040   10.6880 h1        1 AQM      0.074250
     89 HNBD        1.1650   -0.4320    6.1550 hn        1 AQM      0.229000
     90 HNBE       -3.4530   -0.1870   -3.5020 hn        1 AQM      0.220000
     91 HNBG        0.0820   -0.8390    1.6580 hn        1 AQM      0.217000
     92 HNBF       -3.7690   -0.0510   -5.9740 hn        1 AQM      0.226000
@<TRIPOS>BOND
     1    1    6 1   
     2    2    3 1   
     3    2   50 1   
     4    4    5 1   
     5    4   22 1   
     6    5   25 1   
     7    6   36 1   
     8    7   46 1   
     9    7   51 1   
    10    7   52 1   
    11    7   53 1   
    12    8   49 1   
    13    8   54 1   
    14    8   55 1   
    15    8   56 1   
    16    9   49 1   
    17    9   57 1   
    18    9   58 1   
    19    9   59 1   
    20   10   49 1   
    21   10   60 1   
    22   10   61 1   
    23   10   62 1   
    24   11   39 1   
    25   11   63 1   
    26   11   64 1   
    27   12   37 1   
    28   13   38 1   
    29   14   16 1   
    30   14   65 1   
    31   15   39 1   
    32   15   66 1   
    33   16   67 1   
    34   17   40 1   
    35   17   68 1   
    36   18   20 1   
    37   18   69 1   
    38   19   41 1   
    39   19   70 1   
    40   20   71 1   
    41   21   42 1   
    42   21   72 1   
    43   22   73 1   
    44   23   43 1   
    45   23   74 1   
    46   24   44 1   
    47   24   45 1   
    48   25   76 1   
    49   26   27 1   
    50   26   37 1   
    51   26   77 1   
    52   26   78 1   
    53   27   47 1   
    54   27   79 1   
    55   27   80 1   
    56   28   30 1   
    57   28   46 1   
    58   28   81 1   
    59   28   82 1   
    60   29   31 1   
    61   29   46 1   
    62   29   83 1   
    63   29   84 1   
    64   30   47 1   
    65   30   85 1   
    66   30   86 1   
    67   31   47 1   
    68   31   87 1   
    69   31   88 1   
    70   32   44 1   
    71   32   48 1   
    72   33   37 1   
    73   33   42 1   
    74   33   89 1   
    75   34   38 1   
    76   34   40 1   
    77   34   90 1   
    78   35   38 1   
    79   35   45 1   
    80   35   92 1   
    81   36   41 1   
    82   36   91 1   
    83   43   48 1   
    84   45   48 1   
@<TRIPOS>SUBSTRUCTURE
     1 AQM         1 TEMP              0 ****  ****    0 ROOT
