@<TRIPOS>MOLECULE
AQM
   92    94     1     0     0
SMALL
bcc


@<TRIPOS>ATOM
      1 N1          1.4590   -3.0040    0.8240 n2        1 AQM     -0.279000
      2 C2          2.7280   -2.9730    1.2740 c1        1 AQM     -0.019000
      3 N3          3.1150   -2.0670    2.2490 n7        1 AQM     -0.208000
      4 C4          2.2240   -1.1680    2.7730 c2        1 AQM     -0.011000
      5 C5          0.9030   -1.1580    2.3410 c2        1 AQM     -0.195000
      6 C6          0.5310   -2.1410    1.3170 c2        1 AQM      0.213000
      7 CAB        -6.8260   -5.4390   -6.2420 c3        1 AQM     -0.201333
      8 CAC        -4.3390   -5.4460   -6.3980 c3        1 AQM     -0.201333
      9 CAD        -5.7110   -5.1500   -8.4440 c3        1 AQM     -0.201333
     10 OAF        -2.2300    1.6630    2.6410 o         1 AQM     -0.355000
     11 CAH       -11.3320   -3.1120   -9.2430 c1        1 AQM     -0.100000
     12 CAI       -10.4250   -2.1200   -9.6240 c2        1 AQM     -0.149000
     13 CAJ       -12.1300   -3.9430   -8.9130 c1        1 AQM     -0.225000
     14 CAK        -1.3630   -3.7830   -2.3050 c2        1 AQM     -0.172000
     15 CAL        -3.5050   -3.6220   -1.0700 c2        1 AQM     -0.122000
     16 CAM        -0.6660   -3.6690   -1.1550 c2        1 AQM     -0.092000
     17 CAN        -2.6990   -3.2680   -0.0930 c1        1 AQM     -0.240000
     18 CAO         0.3990   -0.7340    5.1830 c2        1 AQM     -0.475000
     19 CAQ         0.8140   -0.3370    6.3670 c1        1 AQM      0.218000
     20 CAR        -6.0360    0.1330   -8.9910 c2        1 AQM     -0.285000
     21 CAS        -5.8320   -2.8090   -5.3140 c2        1 AQM     -0.279000
     22 CAT        -0.0470   -0.1820    2.8310 c2        1 AQM     -0.200000
     23 CAU        -4.3290    4.2360    7.9480 cx        1 AQM     -0.206000
     24 CAV        -3.6190    3.4320    6.8890 c3        1 AQM     -0.065000
     25 CAW        -7.0060    2.9140    9.9430 c1        1 AQM     -0.143000
     26 CAX        -4.7560    3.6020    9.2640 cx        1 AQM     -0.113000
     27 CAY        -6.9260    1.5140    9.4970 c3        1 AQM     -0.240000
     28 CAZ        -3.6630    4.6460    9.2300 cx        1 AQM     -0.207000
     29 NBC        -5.4530   -2.4070   -7.6010 n2        1 AQM     -0.086000
     30 NBG        -0.7890   -2.1480    0.8860 n7        1 AQM     -0.224000
     31 CBI        -4.0920   -2.0990   -4.0350 c2        1 AQM      0.230000
     32 CBJ        -9.1510   -2.3590   -9.8940 c1        1 AQM      0.046000
     33 CBK        -2.8560   -3.4970   -2.4490 c3        1 AQM      0.056000
     34 CBL        -1.3690   -3.0170   -0.0200 c2        1 AQM      0.113000
     35 CBM        -0.3000    0.0420    4.1480 c2        1 AQM      0.122000
     36 CBN        -5.8610   -0.0220   -7.6700 c2        1 AQM     -0.028000
     37 CBO        -5.6000   -3.3580   -6.6890 c2        1 AQM     -0.061000
     38 CBP        -5.6650   -1.2760   -5.5410 c3        1 AQM      0.047000
     39 NBT        -6.0600    3.8190    9.8380 n3        1 AQM     -0.117000
     40 NBU        -2.6210    2.4770    7.2980 n8        1 AQM     -0.360000
     41 NBV        -5.3810   -1.1690   -7.0080 n3        1 AQM     -0.234000
     42 H2          4.0630   -2.0680    2.5540 hn        1 AQM      0.257000
     43 HAA        -6.2180    5.8940    9.4830 h1        1 AQM      0.092667
     44 HAAA       -5.6150    5.4170   11.1430 h1        1 AQM      0.092667
     45 HAAB       -7.3830    5.2050   10.7170 h1        1 AQM      0.092667
     46 HAB        -6.8100   -6.5500   -6.3460 hc        1 AQM      0.078333
     47 HABA       -6.8030   -5.1660   -5.1590 hc        1 AQM      0.078333
     48 HABB       -7.7720   -5.0480   -6.6860 hc        1 AQM      0.078333
     49 HAC        -4.2480   -5.2200   -5.3080 hc        1 AQM      0.078333
     50 HACA       -4.3580   -6.5540   -6.5360 hc        1 AQM      0.078333
     51 HACB       -3.4480   -5.0340   -6.9290 hc        1 AQM      0.078333
     52 HAD        -4.8220   -4.7500   -8.9880 hc        1 AQM      0.078333
     53 HADA       -6.6330   -4.7010   -8.8840 hc        1 AQM      0.078333
     54 HADB       -5.7500   -6.2560   -8.5920 hc        1 AQM      0.078333
     55 HNAE       -5.8790   -0.6600   -9.7290 ha        1 AQM      0.124000
     56 HNAA       -7.2180   -2.5580   -9.7240 hn        1 AQM      0.226000
     57 HAH       -12.8360   -4.6760   -8.6200 ha        1 AQM      0.221000
     58 HAI       -10.8110   -1.0880   -9.7070 ha        1 AQM      0.167000
     59 HAJ        -6.0200    0.8240   -6.9720 h4        1 AQM      0.124000
     60 HAK        -0.8720   -4.1150   -3.2330 ha        1 AQM      0.153000
     61 HAL        -3.3040   -4.3320   -3.0760 h1        1 AQM      0.157000
     62 HAM         0.3900   -3.9640   -1.0690 ha        1 AQM      0.194000
     63 HAN        -4.4830   -4.1040   -0.9900 ha        1 AQM      0.171000
     64 HAO         0.5960   -1.7920    4.8930 ha        1 AQM      0.216000
     65 HAQ         2.5700   -0.4480    3.5380 h4        1 AQM      0.161000
     66 HAR        -6.3400    1.1050   -9.3970 ha        1 AQM      0.124000
     67 HAS        -6.5370   -0.6430   -5.2280 h2        1 AQM      0.146000
     68 HAT        -0.5630    0.4080    2.0500 ha        1 AQM      0.178000
     69 HAU        -3.1180    4.1620    6.1870 h1        1 AQM      0.098500
     70 HAUA       -2.7470    2.4000    4.5080 h5        1 AQM      0.144000
     71 HAV        -4.4040    2.8730    6.2990 h1        1 AQM      0.098500
     72 HAVA       -5.0210    4.9690    7.4830 hc        1 AQM      0.135000
     73 HAW        -5.9940    1.1940    8.9660 hc        1 AQM      0.089000
     74 HAWA       -7.0600    0.8670   10.4020 hc        1 AQM      0.089000
     75 HAX        -4.4300    2.5520    9.4520 h1        1 AQM      0.128000
     76 HAXA       -2.6300    4.3190    9.4480 hc        1 AQM      0.117000
     77 HAY        -3.0230    1.7650    7.8780 hn        1 AQM      0.147500
     78 HAYA       -7.7970    1.3360    8.8140 hc        1 AQM      0.089000
     79 HAZ        -3.8540    5.6620    9.6210 hc        1 AQM      0.117000
     80 HAZA       -1.8850    2.9250    7.8090 hn        1 AQM      0.147500
     81 HNBD       -1.2780    1.0830    5.6170 hn        1 AQM      0.252000
     82 HNBE       -2.7090   -1.4200   -2.7020 hn        1 AQM      0.244000
     83 HNBG       -1.4240   -1.5500    1.3790 hn        1 AQM      0.262000
     84 HNBF       -3.8680   -0.2440   -4.9150 hn        1 AQM      0.232000
     85 NBD        -1.2150    0.9940    4.6250 ns        1 AQM     -0.337000
     86 NBE        -3.0690   -2.2390   -3.1420 n7        1 AQM     -0.269000
     87 CBH        -2.1180    1.7250    3.8750 c2        1 AQM      0.267000
     88 CAA        -6.3340    5.1580   10.3220 c3        1 AQM     -0.080000
     89 OAG        -4.9140   -3.1610   -4.3130 os        1 AQM     -0.073000
     90 NBF        -4.5430   -0.9150   -4.6240 n7        1 AQM     -0.277000
     91 CBW        -5.6210   -4.8360   -6.9570 c3        1 AQM      0.015000
     92 NAE        -8.0200   -2.5790  -10.3210 n2        1 AQM     -0.188000
@<TRIPOS>BOND
     1    1    2 1   
     2    1    6 1   
     3    2    3 1   
     4    3    4 1   
     5    3   42 1   
     6    4    5 1   
     7    4   65 1   
     8    5    6 1   
     9    5   22 1   
    10    6   30 1   
    11    7   46 1   
    12    7   47 1   
    13    7   48 1   
    14    7   91 1   
    15    8   49 1   
    16    8   50 1   
    17    8   51 1   
    18    8   91 1   
    19    9   52 1   
    20    9   53 1   
    21    9   54 1   
    22    9   91 1   
    23   10   87 1   
    24   11   12 1   
    25   11   13 1   
    26   12   32 1   
    27   12   58 1   
    28   13   57 1   
    29   14   16 1   
    30   14   33 1   
    31   14   60 1   
    32   15   17 1   
    33   15   33 1   
    34   15   63 1   
    35   16   34 1   
    36   16   62 1   
    37   17   34 1   
    38   18   19 1   
    39   18   35 1   
    40   18   64 1   
    41   20   36 1   
    42   20   55 1   
    43   20   66 1   
    44   21   37 1   
    45   21   38 1   
    46   21   89 1   
    47   22   35 1   
    48   22   68 1   
    49   23   24 1   
    50   23   26 1   
    51   23   28 1   
    52   23   72 1   
    53   24   40 1   
    54   24   69 1   
    55   24   71 1   
    56   25   27 1   
    57   25   39 1   
    58   26   28 1   
    59   26   39 1   
    60   26   75 1   
    61   27   73 1   
    62   27   74 1   
    63   27   78 1   
    64   28   76 1   
    65   28   79 1   
    66   29   37 1   
    67   29   41 1   
    68   30   34 1   
    69   30   83 1   
    70   31   86 1   
    71   31   89 1   
    72   31   90 1   
    73   32   92 1   
    74   33   61 1   
    75   33   86 1   
    76   35   85 1   
    77   36   41 1   
    78   36   59 1   
    79   37   91 1   
    80   38   41 1   
    81   38   67 1   
    82   38   90 1   
    83   39   88 1   
    84   40   77 1   
    85   40   80 1   
    86   43   88 1   
    87   44   88 1   
    88   45   88 1   
    89   56   92 1   
    90   70   87 1   
    91   81   85 1   
    92   82   86 1   
    93   84   90 1   
    94   85   87 1   
@<TRIPOS>SUBSTRUCTURE
     1 AQM         1 TEMP              0 ****  ****    0 ROOT
