@<TRIPOS>MOLECULE
AQN
   27    23     1     0     0
SMALL
bcc


@<TRIPOS>ATOM
      1 C1         -2.2240   -0.0240    0.0660 c1        1 AQN      0.008000
      2 C2         -0.8210   -0.0240    0.0660 c1        1 AQN     -0.150000
      3 C3         -0.0540   -0.0240    1.3940 c1        1 AQN      0.307000
      4 O3         -0.6600   -0.0510    2.4430 o         1 AQN     -0.299000
      5 C4          1.4790   -0.0240    1.3930 c2        1 AQN     -0.097000
      6 C5          2.1820   -0.0240    2.6080 c1        1 AQN     -0.097000
      7 C6          3.5720   -0.0240    2.6070 c2        1 AQN     -0.128000
      8 C7          4.2670   -0.0240    1.4010 c1        1 AQN     -0.132000
      9 C8          3.5710   -0.0240    0.1970 c2        1 AQN     -0.096000
     10 C9          2.1680   -0.0240    0.1970 c2        1 AQN     -0.104000
     11 C10         1.4000   -0.0240   -1.1290 c2        1 AQN      0.308000
     12 O10         2.0040   -0.0790   -2.1800 o         1 AQN     -0.314000
     13 C11        -0.1330   -0.0240   -1.1280 c2        1 AQN     -0.111000
     14 C12        -0.8350   -0.0240   -2.3420 c1        1 AQN     -0.115000
     15 C13        -2.2220   -0.0240   -2.3420 c1        1 AQN     -0.039000
     16 C14        -2.9170   -0.0240   -1.1360 c2        1 AQN     -0.668000
     17 S15        -4.6810    0.1560   -1.1190 s4        1 AQN      2.088800
     18 OS1        -5.3110   -0.5070   -2.3220 o         1 AQN     -0.670400
     19 OS2        -5.3020   -0.6310    0.0090 o         1 AQN     -0.670400
     20 OS3        -5.0570    1.6170   -1.0390 os        1 AQN     -1.056000
     21 H1         -2.7120   -0.0350    0.9110 DU        1 AQN      0.151333
     22 H5          1.8280   -0.0200    3.5180 DU        1 AQN      0.151333
     23 H6          4.0870   -0.0240    3.4360 ha        1 AQN      0.128000
     24 H7          5.2430   -0.0240    1.4300 DU        1 AQN      0.151333
     25 H8          4.1810   -0.0160   -0.5650 ha        1 AQN      0.153000
     26 H12        -0.3470   -0.0200   -3.1880 ha        1 AQN      0.140000
     27 H13        -2.7100   -0.0330   -3.1870 ha        1 AQN      0.161000
@<TRIPOS>BOND
     1    1    2 1   
     2    1   16 1   
     3    2   13 1   
     4    3    4 1   
     5    3    5 1   
     6    5    6 1   
     7    5   10 1   
     8    6    7 1   
     9    7    8 1   
    10    7   23 1   
    11    8    9 1   
    12    9   10 1   
    13    9   25 1   
    14   10   11 1   
    15   11   12 1   
    16   11   13 1   
    17   13   14 1   
    18   14   26 1   
    19   15   16 1   
    20   15   27 1   
    21   16   17 1   
    22   17   18 1   
    23   17   19 1   
@<TRIPOS>SUBSTRUCTURE
     1 AQN         1 TEMP              0 ****  ****    0 ROOT
