@<TRIPOS>MOLECULE
AQN
   27    29     1     0     0
SMALL
bcc


@<TRIPOS>ATOM
      1 C1         -1.1520   -0.6870   -0.0230 ca        1 AQN      0.008000
      2 C2          0.1880   -0.2840    0.0370 ca        1 AQN     -0.170600
      3 C3          1.2440   -1.3060    0.0750 c         1 AQN      0.587300
      4 O3          1.0010   -2.5230    0.0810 o         1 AQN     -0.538100
      5 C4          2.6490   -0.8270    0.1090 ca        1 AQN     -0.117600
      6 C5          3.6870   -1.7680    0.1190 ca        1 AQN     -0.097000
      7 C6          5.0170   -1.3530    0.1510 ca        1 AQN     -0.128000
      8 C7          5.3210    0.0080    0.1740 ca        1 AQN     -0.132000
      9 C8          4.2950    0.9510    0.1650 ca        1 AQN     -0.096000
     10 C9          2.9560    0.5410    0.1320 ca        1 AQN     -0.124600
     11 C10         1.8880    1.5680    0.1220 c         1 AQN      0.588300
     12 O10         2.1750    2.7760    0.1620 o         1 AQN     -0.553100
     13 C11         0.4970    1.0910    0.0590 ca        1 AQN     -0.131600
     14 C12        -0.5390    2.0270    0.0190 ca        1 AQN     -0.115000
     15 C13        -1.8700    1.6040   -0.0400 ca        1 AQN     -0.039000
     16 C14        -2.1860    0.2510   -0.0560 ca        1 AQN     -0.223500
     17 S15        -3.9070   -0.2720   -0.1120 s6        1 AQN      1.459100
     18 OS1        -4.5840    0.8630   -0.6070 o         1 AQN     -0.737200
     19 OS2        -3.9030   -1.3800   -0.9800 o         1 AQN     -0.737200
     20 OS3        -4.2170   -0.5860    1.2260 o         1 AQN     -0.737200
     21 H1         -1.3940   -1.7650   -0.0560 ha        1 AQN      0.169000
     22 H5          3.4320   -2.8410    0.1010 ha        1 AQN      0.157000
     23 H6          5.8240   -2.0990    0.1580 ha        1 AQN      0.128000
     24 H7          6.3690    0.3390    0.2000 ha        1 AQN      0.128000
     25 H8          4.5210    2.0290    0.1840 ha        1 AQN      0.153000
     26 H12        -0.2930    3.1010    0.0340 ha        1 AQN      0.140000
     27 H13        -2.6870    2.3460   -0.0850 ha        1 AQN      0.161000
@<TRIPOS>BOND
     1    1    2 ar  
     2    1   16 ar  
     3    1   21 1   
     4    2    3 1   
     5    2   13 ar  
     6    3    4 2   
     7    3    5 1   
     8    5    6 ar  
     9    5   10 ar  
    10    6    7 ar  
    11    6   22 1   
    12    7    8 ar  
    13    7   23 1   
    14    8    9 ar  
    15    8   24 1   
    16    9   10 ar  
    17    9   25 1   
    18   10   11 1   
    19   11   12 2   
    20   11   13 1   
    21   13   14 ar  
    22   14   15 ar  
    23   14   26 1   
    24   15   16 ar  
    25   15   27 1   
    26   16   17 1   
    27   17   18 1   
    28   17   19 1   
    29   17   20 1   
@<TRIPOS>SUBSTRUCTURE
     1 AQN         1 TEMP              0 ****  ****    0 ROOT
