@<TRIPOS>MOLECULE
AQN
   27    29     1     0     0
SMALL
bcc


@<TRIPOS>ATOM
      1 C1          0.0010    0.1260    0.0020 ca        1 AQN      0.008000
      2 C2          1.3970    0.2340    0.0090 ca        1 AQN     -0.170600
      3 C3          2.1000    0.3900    1.2900 c         1 AQN      0.587300
      4 O3          1.5060    0.4540    2.3780 o         1 AQN     -0.538100
      5 C4          3.5820    0.4700    1.2450 ca        1 AQN     -0.117600
      6 C5          4.2920    0.5920    2.4460 ca        1 AQN     -0.097000
      7 C6          5.6840    0.6710    2.4390 ca        1 AQN     -0.128000
      8 C7          6.3780    0.6290    1.2300 ca        1 AQN     -0.132000
      9 C8          5.6790    0.5090    0.0310 ca        1 AQN     -0.096000
     10 C9          4.2800    0.4280    0.0300 ca        1 AQN     -0.124600
     11 C10         3.5670    0.2990   -1.2630 c         1 AQN      0.588300
     12 O10         4.1990    0.2830   -2.3320 o         1 AQN     -0.553100
     13 C11         2.1000    0.1910   -1.2120 ca        1 AQN     -0.131600
     14 C12         1.3910    0.0400   -2.4060 ca        1 AQN     -0.115000
     15 C13        -0.0030   -0.0650   -2.3900 ca        1 AQN     -0.039000
     16 C14        -0.7060   -0.0170   -1.1930 ca        1 AQN     -0.223500
     17 S15        -2.5020   -0.1340   -1.1970 s6        1 AQN      1.459100
     18 OS1        -2.7940   -0.7320   -2.4420 o         1 AQN     -0.737200
     19 OS2        -2.7980   -0.9330   -0.0760 o         1 AQN     -0.737200
     20 OS3        -2.9360    1.2010   -1.0870 o         1 AQN     -0.737200
     21 H1         -0.5500    0.1450    0.9610 ha        1 AQN      0.169000
     22 H5          3.7310    0.6250    3.3950 ha        1 AQN      0.157000
     23 H6          6.2320    0.7660    3.3880 ha        1 AQN      0.128000
     24 H7          7.4750    0.6920    1.2220 ha        1 AQN      0.128000
     25 H8          6.2150    0.4760   -0.9320 ha        1 AQN      0.153000
     26 H12         1.9440    0.0040   -3.3580 ha        1 AQN      0.140000
     27 H13        -0.5600   -0.1980   -3.3350 ha        1 AQN      0.161000
@<TRIPOS>BOND
     1    1    2 ar  
     2    1   16 ar  
     3    1   21 1   
     4    2    3 1   
     5    2   13 ar  
     6    3    4 2   
     7    3    5 1   
     8    5    6 ar  
     9    5   10 ar  
    10    6    7 ar  
    11    6   22 1   
    12    7    8 ar  
    13    7   23 1   
    14    8    9 ar  
    15    8   24 1   
    16    9   10 ar  
    17    9   25 1   
    18   10   11 1   
    19   11   12 2   
    20   11   13 1   
    21   13   14 ar  
    22   14   15 ar  
    23   14   26 1   
    24   15   16 ar  
    25   15   27 1   
    26   16   17 1   
    27   17   18 1   
    28   17   19 1   
    29   17   20 1   
@<TRIPOS>SUBSTRUCTURE
     1 AQN         1 TEMP              0 ****  ****    0 ROOT
