@<TRIPOS>MOLECULE
AQO
   19    20     1     0     0
SMALL
bcc


@<TRIPOS>ATOM
      1 C1         -0.0020   -0.0040   -0.0400 ca        1 AQO     -0.165000
      2 C2          1.3980   -0.0880   -0.0260 ca        1 AQO     -0.087000
      3 C3          2.1030   -0.1120    1.1650 ca        1 AQO     -0.136000
      4 C4          1.4090   -0.0500    2.4020 ca        1 AQO      0.213400
      5 N5          2.1260   -0.0660    3.5970 nc        1 AQO     -0.680100
      6 C6          1.4390   -0.0350    4.7480 cd        1 AQO      0.666800
      7 N7          2.1320   -0.1830    5.9760 nv        1 AQO     -0.887800
      8 N8          0.0320    0.0820    4.8170 ns        1 AQO     -0.506400
      9 C9         -0.7430    0.0970    3.6430 c         1 AQO      0.719100
     10 O10        -1.9800    0.1700    3.7620 o         1 AQO     -0.623500
     11 C11        -0.0080    0.0370    2.3720 ca        1 AQO     -0.208600
     12 C12        -0.7030    0.0570    1.1540 ca        1 AQO     -0.052000
     13 HC1        -0.5390    0.0130   -0.9990 ha        1 AQO      0.139000
     14 HC2         1.9450   -0.1380   -0.9810 ha        1 AQO      0.136000
     15 HC3         3.2020   -0.1800    1.1620 ha        1 AQO      0.151000
     16 H71         3.1270   -0.1750    5.8840 hn        1 AQO      0.414300
     17 H72         1.7980    0.3940    6.7170 hn        1 AQO      0.414300
     18 H8         -0.4400    0.0530    5.6930 hn        1 AQO      0.335500
     19 H12        -1.8030    0.1230    1.1690 ha        1 AQO      0.156000
@<TRIPOS>BOND
     1    1    2 ar  
     2    1   12 ar  
     3    1   13 1   
     4    2    3 ar  
     5    2   14 1   
     6    3    4 ar  
     7    3   15 1   
     8    4    5 1   
     9    4   11 ar  
    10    5    6 2   
    11    6    7 1   
    12    6    8 1   
    13    7   16 1   
    14    7   17 1   
    15    8    9 1   
    16    8   18 1   
    17    9   10 2   
    18    9   11 1   
    19   11   12 ar  
    20   12   19 1   
@<TRIPOS>SUBSTRUCTURE
     1 AQO         1 TEMP              0 ****  ****    0 ROOT
