@<TRIPOS>MOLECULE
AQO
   20    21     1     0     0
SMALL
bcc


@<TRIPOS>ATOM
      1 C1         -0.0180    0.0070   -0.0550 ca        1 AQO     -0.095000
      2 C2          1.3790   -0.0090   -0.0580 ca        1 AQO     -0.086000
      3 C3          2.1000   -0.0150    1.1340 ca        1 AQO     -0.075000
      4 C4          1.4070   -0.0060    2.3630 ca        1 AQO      0.134400
      5 N5          2.1270   -0.0130    3.5670 nc        1 AQO     -0.545100
      6 C6          1.4340   -0.0050    4.6900 cd        1 AQO      0.515800
      7 N7          2.2410   -0.0120    5.9580 n4        1 AQO     -0.801600
      8 N8          0.0430    0.0110    4.8190 n         1 AQO     -0.511400
      9 C9         -0.7520    0.0190    3.6340 c         1 AQO      0.725100
     10 O10        -1.9760    0.0330    3.7860 o         1 AQO     -0.534500
     11 C11        -0.0170    0.0090    2.3570 ca        1 AQO     -0.154600
     12 C12        -0.7190    0.0160    1.1500 ca        1 AQO     -0.055000
     13 HC1        -0.5710    0.0120   -1.0100 ha        1 AQO      0.171000
     14 HC2         1.9240   -0.0150   -1.0180 ha        1 AQO      0.168000
     15 HC3         3.2030   -0.0280    1.1150 ha        1 AQO      0.170000
     16 H71         2.0310    0.8310    6.5040 hn        1 AQO      0.480800
     17 H72         2.0120   -0.8500    6.5050 hn        1 AQO      0.480800
     18 H8         -0.4200    0.0170    5.7020 hn        1 AQO      0.350500
     19 H12        -1.8240    0.0290    1.1630 ha        1 AQO      0.181000
     20 H73         3.2470   -0.0240    5.7280 hn        1 AQO      0.480800
@<TRIPOS>BOND
     1    1    2 ar  
     2    1   12 ar  
     3    1   13 1   
     4    2    3 ar  
     5    2   14 1   
     6    3    4 ar  
     7    3   15 1   
     8    4    5 1   
     9    4   11 ar  
    10    5    6 2   
    11    6    7 1   
    12    6    8 1   
    13    7   16 1   
    14    7   17 1   
    15    7   20 1   
    16    8    9 1   
    17    8   18 1   
    18    9   10 2   
    19    9   11 1   
    20   11   12 ar  
    21   12   19 1   
@<TRIPOS>SUBSTRUCTURE
     1 AQO         1 TEMP              0 ****  ****    0 ROOT
