@<TRIPOS>MOLECULE
AQO
   19    20     1     0     0
SMALL
bcc


@<TRIPOS>ATOM
      1 C1         -0.2880    0.0130   -2.9700 ca        1 AQO     -0.165000
      2 C2          1.1060    0.0130   -2.8110 ca        1 AQO     -0.087000
      3 C3          1.6840    0.0060   -1.5540 ca        1 AQO     -0.136000
      4 C4          0.8640   -0.0020   -0.3950 ca        1 AQO      0.213400
      5 N5          1.4540   -0.0020    0.8680 nc        1 AQO     -0.680100
      6 C6          0.6520   -0.0380    1.9420 cd        1 AQO      0.666800
      7 N7          1.2230   -0.1720    3.2320 nh        1 AQO     -0.887800
      8 N8         -0.7590   -0.0090    1.8650 n         1 AQO     -0.506400
      9 C9         -1.4090   -0.0140    0.6180 c         1 AQO      0.719100
     10 O10        -2.6530   -0.0200    0.6080 o         1 AQO     -0.623500
     11 C11        -0.5450   -0.0010   -0.5710 ca        1 AQO     -0.208600
     12 C12        -1.1100    0.0040   -1.8540 ca        1 AQO     -0.052000
     13 HC1        -0.7240    0.0180   -3.9790 ha        1 AQO      0.139000
     14 HC2         1.7500    0.0190   -3.7050 ha        1 AQO      0.136000
     15 HC3         2.7800    0.0040   -1.4440 ha        1 AQO      0.151000
     16 H71         2.2190   -0.1010    3.2440 hn        1 AQO      0.414300
     17 H72         0.7780    0.3670    3.9430 hn        1 AQO      0.414300
     18 H8         -1.3160   -0.0870    2.6870 hn        1 AQO      0.335500
     19 H12        -2.2080    0.0030   -1.9520 ha        1 AQO      0.156000
@<TRIPOS>BOND
     1    1    2 ar  
     2    1   12 ar  
     3    1   13 1   
     4    2    3 ar  
     5    2   14 1   
     6    3    4 ar  
     7    3   15 1   
     8    4    5 1   
     9    4   11 ar  
    10    5    6 2   
    11    6    7 1   
    12    6    8 1   
    13    7   16 1   
    14    7   17 1   
    15    8    9 1   
    16    8   18 1   
    17    9   10 2   
    18    9   11 1   
    19   11   12 ar  
    20   12   19 1   
@<TRIPOS>SUBSTRUCTURE
     1 AQO         1 TEMP              0 ****  ****    0 ROOT
