@<TRIPOS>MOLECULE
AQO
   19    15     1     0     0
SMALL
bcc


@<TRIPOS>ATOM
      1 C1         -0.7560    0.0020   -2.7660 c1        1 AQO     -0.126000
      2 C2          0.6280    0.0020   -2.7660 c1        1 AQO     -0.126000
      3 C3          1.3210    0.0020   -1.5670 c1        1 AQO     -0.136000
      4 C4          0.6150    0.0020   -0.3430 c1        1 AQO      0.074000
      5 N5          1.2950    0.0020    0.8380 n1        1 AQO     -0.253000
      6 C6          0.6110    0.0020    2.0210 c1        1 AQO      0.220000
      7 N7          1.4200   -0.0040    3.1870 n3        1 AQO     -0.326000
      8 N8         -0.7590    0.0020    2.0220 n2        1 AQO     -0.346000
      9 C9         -1.4350    0.0020    0.8580 c1        1 AQO      0.356000
     10 O10        -2.6490   -0.0130    0.8600 o         1 AQO     -0.348000
     11 C11        -0.7440    0.0020   -0.3430 c1        1 AQO     -0.188000
     12 C12        -1.4490    0.0020   -1.5670 c1        1 AQO     -0.052000
     13 HC1        -1.2440    0.0020   -3.6120 ha        1 AQO      0.137500
     14 HC2         1.1160    0.0020   -3.6120 ha        1 AQO      0.137500
     15 HC3         2.2970    0.0020   -1.5670 ha        1 AQO      0.151000
     16 H71         1.6890    0.7840    3.5580 hn        1 AQO      0.209500
     17 H72         1.6850   -0.7960    3.5540 hn        1 AQO      0.209500
     18 H8         -1.2140    0.0020    2.8130 hn        1 AQO      0.249000
     19 H12        -2.4250    0.0020   -1.5670 ha        1 AQO      0.156000
@<TRIPOS>BOND
     1    1    2 1   
     2    1   13 1   
     3    2   14 1   
     4    3    4 1   
     5    3   15 1   
     6    4    5 1   
     7    6    7 1   
     8    6    8 1   
     9    7   16 1   
    10    7   17 1   
    11    8   18 1   
    12    9   10 1   
    13    9   11 1   
    14   11   12 1   
    15   12   19 1   
@<TRIPOS>SUBSTRUCTURE
     1 AQO         1 TEMP              0 ****  ****    0 ROOT
