@<TRIPOS>MOLECULE
AQS
   54    55     1     0     0
SMALL
bcc


@<TRIPOS>ATOM
      1 C1         -0.2790   -0.6660   -0.1050 ca        1 AQS     -0.113000
      2 C2          1.0960   -0.8340   -0.1800 ca        1 AQS      0.064000
      3 C3          1.9350   -0.5860    0.9430 ca        1 AQS     -0.632500
      4 C4          1.2980   -0.1430    2.1350 ca        1 AQS      0.047000
      5 C5         -0.0590    0.1260    2.1790 ca        1 AQS     -0.170600
      6 C6         -0.6450    0.7740    3.3850 c         1 AQS      0.656300
      7 O6          0.1010    1.4500    4.1220 o         1 AQS     -0.653100
      8 C7         -2.0790    0.5960    3.5820 ca        1 AQS     -0.175600
      9 C8         -2.6440    0.8140    4.8410 ca        1 AQS     -0.050000
     10 C9         -4.0190    0.6340    5.0390 ca        1 AQS     -0.094000
     11 C16        -4.8320    0.2540    3.9780 ca        1 AQS     -0.061000
     12 C17        -4.2790    0.0460    2.7050 ca        1 AQS     -0.051000
     13 C18        -2.9080    0.2060    2.5020 ca        1 AQS     -0.136600
     14 C19        -2.3600   -0.0180    1.1570 c         1 AQS      0.556300
     15 O19        -3.0380   -0.0870    0.1310 o         1 AQS     -0.421100
     16 C20        -0.8720   -0.1870    1.0720 ca        1 AQS      0.048400
     17 S1          3.4720   -0.7530    0.9090 s4        1 AQS      1.691300
     18 O1S         4.1290   -0.8890    2.0810 o         1 AQS     -0.405400
     19 O2S         4.1090   -0.7090   -0.2790 o         1 AQS     -0.405400
     20 N1          4.7710    1.7670    1.3010 n3        1 AQS     -0.876200
     21 C1A         4.6490    2.5210    2.5470 c3        1 AQS      0.144300
     22 C2A         3.2070    2.8860    2.9210 c3        1 AQS     -0.126900
     23 C3A         3.2030    3.5420    4.3020 c3        1 AQS      0.104300
     24 N3A         1.8750    3.4940    4.9750 n4        1 AQS     -0.837100
     25 C1B         4.9440    2.5710    0.1010 c3        1 AQS      0.144300
     26 C2B         6.3710    3.0700   -0.1740 c3        1 AQS     -0.126900
     27 C3B         6.4200    3.7150   -1.5560 c3        1 AQS      0.104300
     28 N3B         7.7870    4.1640   -1.9500 n4        1 AQS     -0.837100
     29 H1         -0.9250   -0.9020   -0.9770 ha        1 AQS      0.224000
     30 H2          1.5500   -1.1750   -1.1320 ha        1 AQS      0.188000
     31 H4          1.9020   -0.0090    3.0550 ha        1 AQS      0.172000
     32 H8         -2.0020    1.1190    5.6830 ha        1 AQS      0.155000
     33 H9         -4.4530    0.7960    6.0420 ha        1 AQS      0.180000
     34 H16        -5.9180    0.1140    4.1280 ha        1 AQS      0.187000
     35 H17        -4.9290   -0.2430    1.8580 ha        1 AQS      0.188000
     36 HA11        5.0740    1.8800    3.3770 h1        1 AQS      0.075200
     37 HA12        5.2530    3.4740    2.5140 h1        1 AQS      0.075200
     38 HA21        2.7770    3.5920    2.1640 hc        1 AQS      0.073950
     39 HA22        2.5650    1.9650    2.9280 hc        1 AQS      0.073950
     40 HA31        3.5050    4.6270    4.2090 hx        1 AQS      0.119950
     41 HA32        3.9420    3.0270    4.9860 hx        1 AQS      0.119950
     42 HNA1        1.6310    2.5250    5.2300 hn        1 AQS      0.475633
     43 HNA2        1.8930    4.0680    5.8260 hn        1 AQS      0.475633
     44 HNA3        1.1360    3.8400    4.3520 hn        1 AQS      0.475633
     45 HB11        4.2490    3.4560    0.1450 h1        1 AQS      0.075200
     46 HB12        4.6270    1.9150   -0.7630 h1        1 AQS      0.075200
     47 HB21        7.0900    2.2070   -0.1270 hc        1 AQS      0.073950
     48 HB22        6.6730    3.8100    0.6130 hc        1 AQS      0.073950
     49 HB31        6.0690    2.9780   -2.3380 hx        1 AQS      0.119950
     50 HB32        5.7440    4.6190   -1.5850 hx        1 AQS      0.119950
     51 HNB1        8.4370    3.3680   -1.9730 hn        1 AQS      0.475633
     52 HNB2        8.1470    4.8590   -1.2860 hn        1 AQS      0.475633
     53 HNB3        7.7550    4.5890   -2.8870 hn        1 AQS      0.475633
     54 H11         5.5650    1.1490    1.3970 hn        1 AQS      0.388800
@<TRIPOS>BOND
     1    1    2 ar  
     2    1   16 ar  
     3    1   29 1   
     4    2    3 ar  
     5    2   30 1   
     6    3    4 ar  
     7    3   17 1   
     8    4    5 ar  
     9    4   31 1   
    10    5    6 1   
    11    5   16 ar  
    12    6    7 2   
    13    6    8 1   
    14    8    9 ar  
    15    8   13 ar  
    16    9   10 ar  
    17    9   32 1   
    18   10   11 ar  
    19   10   33 1   
    20   11   12 ar  
    21   11   34 1   
    22   12   13 ar  
    23   12   35 1   
    24   13   14 1   
    25   14   15 2   
    26   14   16 1   
    27   17   18 1   
    28   17   19 1   
    29   20   21 1   
    30   20   25 1   
    31   20   54 1   
    32   21   22 1   
    33   21   36 1   
    34   21   37 1   
    35   22   23 1   
    36   22   38 1   
    37   22   39 1   
    38   23   24 1   
    39   23   40 1   
    40   23   41 1   
    41   24   42 1   
    42   24   43 1   
    43   24   44 1   
    44   25   26 1   
    45   25   45 1   
    46   25   46 1   
    47   26   27 1   
    48   26   47 1   
    49   26   48 1   
    50   27   28 1   
    51   27   49 1   
    52   27   50 1   
    53   28   51 1   
    54   28   52 1   
    55   28   53 1   
@<TRIPOS>SUBSTRUCTURE
     1 AQS         1 TEMP              0 ****  ****    0 ROOT
