@<TRIPOS>MOLECULE
AQS
   54    55     1     0     0
SMALL
bcc


@<TRIPOS>ATOM
      1 C1         -0.2800   -0.6560   -0.1150 ca        1 AQS     -0.113000
      2 C2          1.0940   -0.8170   -0.1990 ca        1 AQS      0.064000
      3 C3          1.9400   -0.5780    0.9210 ca        1 AQS     -0.632500
      4 C4          1.3080   -0.1490    2.1210 ca        1 AQS      0.047000
      5 C5         -0.0500    0.1140    2.1760 ca        1 AQS     -0.170600
      6 C6         -0.6320    0.7480    3.3920 c         1 AQS      0.656300
      7 O6          0.1150    1.4180    4.1310 o         1 AQS     -0.653100
      8 C7         -2.0640    0.5620    3.5940 ca        1 AQS     -0.175600
      9 C8         -2.6230    0.7650    4.8590 ca        1 AQS     -0.050000
     10 C9         -3.9960    0.5780    5.0630 ca        1 AQS     -0.094000
     11 C16        -4.8140    0.2060    4.0020 ca        1 AQS     -0.061000
     12 C17        -4.2670    0.0130    2.7250 ca        1 AQS     -0.051000
     13 C18        -2.8970    0.1800    2.5160 ca        1 AQS     -0.136600
     14 C19        -2.3570   -0.0290    1.1650 c         1 AQS      0.556300
     15 O19        -3.0400   -0.0900    0.1420 o         1 AQS     -0.421100
     16 C20        -0.8690   -0.1910    1.0700 ca        1 AQS      0.048400
     17 S1          3.4770   -0.7390    0.8770 s4        1 AQS      1.691300
     18 O1S         4.1410   -0.8830    2.0440 o         1 AQS     -0.405400
     19 O2S         4.1070   -0.6800   -0.3150 o         1 AQS     -0.405400
     20 N1          4.7680    1.7830    1.2860 n7        1 AQS     -0.876200
     21 C1A         4.6510    2.5230    2.5410 c3        1 AQS      0.144300
     22 C2A         3.2100    2.8790    2.9270 c3        1 AQS     -0.126900
     23 C3A         3.2120    3.5190    4.3150 c3        1 AQS      0.104300
     24 N3A         1.8870    3.4600    4.9950 nz        1 AQS     -0.837100
     25 C1B         4.9300    2.6000    0.0940 c3        1 AQS      0.144300
     26 C2B         6.3540    3.1070   -0.1860 c3        1 AQS     -0.126900
     27 C3B         6.3910    3.7670   -1.5600 c3        1 AQS      0.104300
     28 N3B         7.7530    4.2260   -1.9590 nz        1 AQS     -0.837100
     29 H1         -0.9310   -0.8850   -0.9860 ha        1 AQS      0.224000
     30 H2          1.5440   -1.1470   -1.1580 ha        1 AQS      0.188000
     31 H4          1.9160   -0.0220    3.0390 ha        1 AQS      0.172000
     32 H8         -1.9770    1.0640    5.7010 ha        1 AQS      0.155000
     33 H9         -4.4240    0.7290    6.0690 ha        1 AQS      0.180000
     34 H16        -5.8990    0.0610    4.1570 ha        1 AQS      0.187000
     35 H17        -4.9200   -0.2690    1.8790 ha        1 AQS      0.188000
     36 HA11        5.2510    3.4790    2.5140 h1        1 AQS      0.075200
     37 HA12        5.0830    1.8750    3.3610 h1        1 AQS      0.075200
     38 HA21        2.5710    1.9550    2.9280 hc        1 AQS      0.073950
     39 HA22        2.7720    3.5920    2.1800 hc        1 AQS      0.073950
     40 HA31        3.5100    4.6060    4.2320 hx        1 AQS      0.119950
     41 HA32        3.9570    3.0000    4.9890 hx        1 AQS      0.119950
     42 HNA1        1.6490    2.4870    5.2410 hn        1 AQS      0.475633
     43 HNA2        1.1440    3.8100    4.3800 hn        1 AQS      0.475633
     44 HNA3        1.9090    4.0250    5.8520 hn        1 AQS      0.475633
     45 HB11        4.6100    1.9520   -0.7760 h1        1 AQS      0.075200
     46 HB12        4.2310    3.4810    0.1520 h1        1 AQS      0.075200
     47 HB21        7.0760    2.2470   -0.1520 hc        1 AQS      0.073950
     48 HB22        6.6570    3.8410    0.6080 hc        1 AQS      0.073950
     49 HB31        5.7100    4.6690   -1.5750 hx        1 AQS      0.119950
     50 HB32        6.0370    3.0380   -2.3490 hx        1 AQS      0.119950
     51 HNB1        8.4060    3.4330   -1.9950 hn        1 AQS      0.475633
     52 HNB2        8.1150    4.9150   -1.2900 hn        1 AQS      0.475633
     53 HNB3        7.7130    4.6620   -2.8910 hn        1 AQS      0.475633
     54 H11         5.5650    1.1670    1.3700 hn        1 AQS      0.388800
@<TRIPOS>BOND
     1    1    2 ar  
     2    1   16 ar  
     3    1   29 1   
     4    2    3 ar  
     5    2   30 1   
     6    3    4 ar  
     7    3   17 1   
     8    4    5 ar  
     9    4   31 1   
    10    5    6 1   
    11    5   16 ar  
    12    6    7 2   
    13    6    8 1   
    14    8    9 ar  
    15    8   13 ar  
    16    9   10 ar  
    17    9   32 1   
    18   10   11 ar  
    19   10   33 1   
    20   11   12 ar  
    21   11   34 1   
    22   12   13 ar  
    23   12   35 1   
    24   13   14 1   
    25   14   15 2   
    26   14   16 1   
    27   17   18 1   
    28   17   19 1   
    29   20   21 1   
    30   20   25 1   
    31   20   54 1   
    32   21   22 1   
    33   21   36 1   
    34   21   37 1   
    35   22   23 1   
    36   22   38 1   
    37   22   39 1   
    38   23   24 1   
    39   23   40 1   
    40   23   41 1   
    41   24   42 1   
    42   24   43 1   
    43   24   44 1   
    44   25   26 1   
    45   25   45 1   
    46   25   46 1   
    47   26   27 1   
    48   26   47 1   
    49   26   48 1   
    50   27   28 1   
    51   27   49 1   
    52   27   50 1   
    53   28   51 1   
    54   28   52 1   
    55   28   53 1   
@<TRIPOS>SUBSTRUCTURE
     1 AQS         1 TEMP              0 ****  ****    0 ROOT
