@<TRIPOS>MOLECULE
AQS
   53    49     1     0     0
SMALL
bcc


@<TRIPOS>ATOM
      1 C1         -1.5460   -0.2940   -2.2390 c1        1 AQS     -0.055000
      2 C2         -0.4440    0.0330   -1.4420 c1        1 AQS     -0.055000
      3 C3         -0.4000   -0.3780   -0.1080 c1        1 AQS     -0.853000
      4 C4         -1.4610   -1.1190    0.4340 c1        1 AQS     -0.005000
      5 C5         -2.5770   -1.4500   -0.3720 c1        1 AQS     -0.143000
      6 C6         -3.7230   -2.3150    0.2080 c2        1 AQS      0.367000
      7 O6         -3.6380   -2.7610    1.3410 o         1 AQS     -0.414000
      8 C7         -4.9440   -2.6660   -0.6690 c2        1 AQS     -0.141000
      9 C8         -5.9890   -3.4570   -0.1430 c2        1 AQS     -0.059000
     10 C9         -7.0920   -3.7750   -0.9400 c1        1 AQS     -0.105000
     11 C16        -7.1600   -3.3120   -2.2560 c1        1 AQS     -0.055000
     12 C17        -6.1260   -2.5300   -2.7770 c1        1 AQS     -0.055000
     13 C18        -5.0120   -2.2080   -1.9740 c1        1 AQS     -0.106000
     14 C19        -3.8660   -1.3440   -2.5510 c2        1 AQS      0.286000
     15 O19        -3.9580   -0.8800   -3.6780 o         1 AQS     -0.220000
     16 C20        -2.6200   -1.0440   -1.6930 c1        1 AQS     -0.006000
     17 S1          0.9980   -0.1600    1.0210 s4        1 AQS      2.089800
     18 O1S         0.5970   -0.3370    2.3890 o         1 AQS     -0.562900
     19 O2S         1.9550   -1.2160    0.8720 o         1 AQS     -0.562900
     20 N1          1.7030    1.3310    0.7880 n2        1 AQS     -0.823000
     21 C1A         1.9750    2.1960    1.9390 c3        1 AQS     -0.016500
     22 C2A         3.1060    1.5690    2.8010 c3        1 AQS     -0.224500
     23 C3A         3.1960    2.3130    4.1530 c3        1 AQS     -0.130000
     24 N3A         3.6810    1.4220    5.1540 n4        1 AQS     -0.067000
     25 C1B         1.9280    1.8260   -0.5620 c3        1 AQS     -0.016500
     26 C2B         3.4060    1.6040   -0.9530 c3        1 AQS     -0.224500
     27 C3B         3.5340    1.5820   -2.4850 c3        1 AQS     -0.130000
     28 N3B         4.8690    1.1700   -2.8500 n4        1 AQS     -0.067000
     29 H1         -1.5760   -0.0040   -3.1800 ha        1 AQS      0.177500
     30 H2          0.2980    0.5510   -1.8200 ha        1 AQS      0.177500
     31 H4         -1.4290   -1.4080    1.3740 ha        1 AQS      0.132000
     32 H8         -5.9420   -3.7820    0.7810 ha        1 AQS      0.157000
     33 H9         -7.8220   -4.3270   -0.5730 ha        1 AQS      0.167000
     34 H16        -7.9370   -3.5370   -2.8170 ha        1 AQS      0.177500
     35 H17        -6.1750   -2.2040   -3.7040 ha        1 AQS      0.177500
     36 HA11        2.2550    3.0780    1.6250 h1        1 AQS      0.103000
     37 HA12        1.1610    2.2840    2.4810 h1        1 AQS      0.103000
     38 HA21        3.9610    1.6490    2.3260 hc        1 AQS      0.138750
     39 HA22        2.9090    0.6210    2.9610 hc        1 AQS      0.138750
     40 HA31        2.3070    2.6380    4.4070 hx        1 AQS      0.155000
     41 HA32        3.8100    3.0720    4.0680 hx        1 AQS      0.155000
     42 HNA1        3.1100    0.7080    5.2300 hn        1 AQS      0.266833
     43 HNA2        4.5130    1.1230    4.9200 hn        1 AQS      0.266833
     44 HNA3        3.7290    1.8630    5.9620 hn        1 AQS      0.266833
     45 HB11        1.3470    1.3430   -1.1890 h1        1 AQS      0.103000
     46 HB12        1.7220    2.7830   -0.5970 h1        1 AQS      0.103000
     47 HB21        3.9500    2.3280   -0.5920 hc        1 AQS      0.138750
     48 HB22        3.7150    0.7490   -0.5870 hc        1 AQS      0.138750
     49 HB31        3.3620    2.4760   -2.8380 hx        1 AQS      0.155000
     50 HB32        2.8810    0.9500   -2.8590 hx        1 AQS      0.155000
     51 HNB1        5.4740    1.7810   -2.5350 hn        1 AQS      0.266833
     52 HNB2        4.9350    1.1170   -3.7710 hn        1 AQS      0.266833
     53 HNB3        5.0470    0.3450   -2.4820 hn        1 AQS      0.266833
@<TRIPOS>BOND
     1    1    2 1   
     2    1   29 1   
     3    2   30 1   
     4    3    4 1   
     5    3   17 1   
     6    4   31 1   
     7    5    6 1   
     8    5   16 1   
     9    6    7 1   
    10    6    8 1   
    11    8    9 1   
    12    8   13 1   
    13    9   10 1   
    14    9   32 1   
    15   10   33 1   
    16   11   12 1   
    17   11   34 1   
    18   12   35 1   
    19   13   14 1   
    20   14   15 1   
    21   14   16 1   
    22   17   18 1   
    23   17   19 1   
    24   20   21 1   
    25   20   25 1   
    26   21   22 1   
    27   21   36 1   
    28   21   37 1   
    29   22   23 1   
    30   22   38 1   
    31   22   39 1   
    32   23   24 1   
    33   23   40 1   
    34   23   41 1   
    35   24   42 1   
    36   24   43 1   
    37   24   44 1   
    38   25   26 1   
    39   25   45 1   
    40   25   46 1   
    41   26   27 1   
    42   26   47 1   
    43   26   48 1   
    44   27   28 1   
    45   27   49 1   
    46   27   50 1   
    47   28   51 1   
    48   28   52 1   
    49   28   53 1   
@<TRIPOS>SUBSTRUCTURE
     1 AQS         1 TEMP              0 ****  ****    0 ROOT
