@<TRIPOS>MOLECULE
AQS
   54    55     1     0     0
SMALL
bcc


@<TRIPOS>ATOM
      1 C1         -0.2770   -0.6670   -0.1050 ca        1 AQS     -0.113000
      2 C2          1.0970   -0.8360   -0.1770 ca        1 AQS      0.064000
      3 C3          1.9350   -0.5890    0.9470 ca        1 AQS     -0.632500
      4 C4          1.2960   -0.1420    2.1370 ca        1 AQS      0.047000
      5 C5         -0.0600    0.1290    2.1780 ca        1 AQS     -0.170600
      6 C6         -0.6490    0.7800    3.3820 c         1 AQS      0.656300
      7 O6          0.0970    1.4550    4.1190 o         1 AQS     -0.653100
      8 C7         -2.0830    0.6040    3.5750 ca        1 AQS     -0.175600
      9 C8         -2.6500    0.8260    4.8340 ca        1 AQS     -0.050000
     10 C9         -4.0260    0.6490    5.0290 ca        1 AQS     -0.094000
     11 C16        -4.8380    0.2690    3.9670 ca        1 AQS     -0.061000
     12 C17        -4.2820    0.0580    2.6960 ca        1 AQS     -0.051000
     13 C18        -2.9100    0.2140    2.4950 ca        1 AQS     -0.136600
     14 C19        -2.3600   -0.0130    1.1510 c         1 AQS      0.556300
     15 O19        -3.0360   -0.0830    0.1240 o         1 AQS     -0.421100
     16 C20        -0.8720   -0.1840    1.0700 ca        1 AQS      0.048400
     17 S1          3.4710   -0.7580    0.9160 s4        1 AQS      1.691300
     18 O1S         4.1260   -0.8920    2.0890 o         1 AQS     -0.404900
     19 O2S         4.1110   -0.7170   -0.2710 o         1 AQS     -0.404900
     20 N1          4.7730    1.7620    1.3050 n3        1 AQS     -0.876200
     21 C1A         4.6500    2.5160    2.5510 c3        1 AQS      0.144300
     22 C2A         3.2090    2.8840    2.9220 c3        1 AQS     -0.126900
     23 C3A         3.2040    3.5410    4.3030 c3        1 AQS      0.104300
     24 N3A         1.8740    3.4960    4.9730 n4        1 AQS     -0.837100
     25 C1B         4.9480    2.5650    0.1050 c3        1 AQS      0.144300
     26 C2B         6.3750    3.0620   -0.1700 c3        1 AQS     -0.126900
     27 C3B         6.4260    3.7070   -1.5510 c3        1 AQS      0.104300
     28 N3B         7.7930    4.1540   -1.9460 n4        1 AQS     -0.837100
     29 H1         -0.9230   -0.9020   -0.9780 ha        1 AQS      0.224000
     30 H2          1.5520   -1.1790   -1.1290 ha        1 AQS      0.188000
     31 H4          1.8980   -0.0080    3.0580 ha        1 AQS      0.172000
     32 H8         -2.0090    1.1310    5.6770 ha        1 AQS      0.155000
     33 H9         -4.4610    0.8140    6.0300 ha        1 AQS      0.180000
     34 H16        -5.9240    0.1310    4.1150 ha        1 AQS      0.187000
     35 H17        -4.9310   -0.2310    1.8480 ha        1 AQS      0.188000
     36 HA11        5.2560    3.4680    2.5180 h1        1 AQS      0.075200
     37 HA12        5.0730    1.8750    3.3810 h1        1 AQS      0.075200
     38 HA21        2.5640    1.9650    2.9290 hc        1 AQS      0.073950
     39 HA22        2.7810    3.5920    2.1640 hc        1 AQS      0.073950
     40 HA31        3.5090    4.6250    4.2100 hx        1 AQS      0.119950
     41 HA32        3.9410    3.0250    4.9890 hx        1 AQS      0.119950
     42 HNA1        1.6280    2.5280    5.2290 hn        1 AQS      0.475633
     43 HNA2        1.1370    3.8440    4.3490 hn        1 AQS      0.475633
     44 HNA3        1.8930    4.0710    5.8250 hn        1 AQS      0.475633
     45 HB11        4.6300    1.9090   -0.7600 h1        1 AQS      0.075200
     46 HB12        4.2530    3.4500    0.1480 h1        1 AQS      0.075200
     47 HB21        7.0930    2.1980   -0.1220 hc        1 AQS      0.073950
     48 HB22        6.6780    3.8020    0.6180 hc        1 AQS      0.073950
     49 HB31        5.7500    4.6120   -1.5810 hx        1 AQS      0.119950
     50 HB32        6.0730    2.9700   -2.3340 hx        1 AQS      0.119950
     51 HNB1        8.4420    3.3570   -1.9680 hn        1 AQS      0.475633
     52 HNB2        8.1540    4.8480   -1.2810 hn        1 AQS      0.475633
     53 HNB3        7.7620    4.5790   -2.8820 hn        1 AQS      0.475633
     54 H11         5.5660    1.1430    1.4020 hn        1 AQS      0.388800
@<TRIPOS>BOND
     1    1    2 ar  
     2    1   16 ar  
     3    1   29 1   
     4    2    3 ar  
     5    2   30 1   
     6    3    4 ar  
     7    3   17 1   
     8    4    5 ar  
     9    4   31 1   
    10    5    6 1   
    11    5   16 ar  
    12    6    7 2   
    13    6    8 1   
    14    8    9 ar  
    15    8   13 ar  
    16    9   10 ar  
    17    9   32 1   
    18   10   11 ar  
    19   10   33 1   
    20   11   12 ar  
    21   11   34 1   
    22   12   13 ar  
    23   12   35 1   
    24   13   14 1   
    25   14   15 2   
    26   14   16 1   
    27   17   18 1   
    28   17   19 1   
    29   20   21 1   
    30   20   25 1   
    31   20   54 1   
    32   21   22 1   
    33   21   36 1   
    34   21   37 1   
    35   22   23 1   
    36   22   38 1   
    37   22   39 1   
    38   23   24 1   
    39   23   40 1   
    40   23   41 1   
    41   24   42 1   
    42   24   43 1   
    43   24   44 1   
    44   25   26 1   
    45   25   45 1   
    46   25   46 1   
    47   26   27 1   
    48   26   47 1   
    49   26   48 1   
    50   27   28 1   
    51   27   49 1   
    52   27   50 1   
    53   28   51 1   
    54   28   52 1   
    55   28   53 1   
@<TRIPOS>SUBSTRUCTURE
     1 AQS         1 TEMP              0 ****  ****    0 ROOT
