@<TRIPOS>MOLECULE
AQS
   53    55     1     0     0
SMALL
bcc


@<TRIPOS>ATOM
      1 C1         -0.6440   -2.4540   -0.6570 ca        1 AQS     -0.100000
      2 C2          0.6700   -2.1870   -0.2710 ca        1 AQS      0.019000
      3 C3          1.0270   -0.9350    0.2490 ca        1 AQS     -0.405500
      4 C4          0.0260    0.0370    0.3700 ca        1 AQS      0.006000
      5 C5         -1.2810   -0.1990   -0.0480 ca        1 AQS     -0.164600
      6 C6         -2.2770    0.8930    0.0340 c         1 AQS      0.653300
      7 O6         -1.8870    2.0670    0.2150 o         1 AQS     -0.668100
      8 C7         -3.6840    0.5250   -0.1220 ca        1 AQS     -0.162600
      9 C8         -4.6820    1.4500    0.2010 ca        1 AQS     -0.061000
     10 C9         -6.0310    1.1090    0.0640 ca        1 AQS     -0.105000
     11 C16        -6.3870   -0.1500   -0.4070 ca        1 AQS     -0.076000
     12 C17        -5.3950   -1.0810   -0.7420 ca        1 AQS     -0.068000
     13 C18        -4.0450   -0.7540   -0.5980 ca        1 AQS     -0.125600
     14 C19        -3.0290   -1.7600   -0.9580 c         1 AQS      0.566300
     15 O19        -3.2990   -2.8060   -1.5560 o         1 AQS     -0.460100
     16 C20        -1.6260   -1.4650   -0.5500 ca        1 AQS     -0.028600
     17 S1          2.5630   -0.5810    0.7910 sy        1 AQS      1.534200
     18 O1S         2.5080   -0.0520    2.0850 o         1 AQS     -0.666300
     19 O2S         3.4300   -1.6910    0.5780 o         1 AQS     -0.666300
     20 N1          3.0880    0.6060   -0.2340 n3        1 AQS     -0.808500
     21 C1A         2.7850    1.9930   -0.0070 c3        1 AQS      0.217300
     22 C2A         1.7990    2.6210   -1.0030 c3        1 AQS     -0.137900
     23 C3A         1.3650    4.0080   -0.5420 c3        1 AQS      0.106800
     24 N3A         0.0280    4.0350    0.1140 n4        1 AQS     -0.837600
     25 C1B         4.0120    0.2960   -1.2950 c3        1 AQS      0.217300
     26 C2B         5.4960    0.2870   -0.8890 c3        1 AQS     -0.137900
     27 C3B         6.2290   -0.9850   -1.2920 c3        1 AQS      0.106800
     28 N3B         5.9210   -2.1640   -0.4350 n4        1 AQS     -0.837600
     29 H1         -0.9230   -3.4500   -1.0510 ha        1 AQS      0.195000
     30 H2          1.4350   -2.9790   -0.3610 ha        1 AQS      0.166000
     31 H4          0.2700    1.0130    0.8270 ha        1 AQS      0.128000
     32 H8         -4.3970    2.4480    0.5710 ha        1 AQS      0.153000
     33 H9         -6.8100    1.8430    0.3300 ha        1 AQS      0.167000
     34 H16        -7.4500   -0.4230   -0.5190 ha        1 AQS      0.171000
     35 H17        -5.6750   -2.0790   -1.1240 ha        1 AQS      0.179000
     36 HA11        3.7420    2.5940   -0.0400 h1        1 AQS      0.068200
     37 HA12        2.3650    2.0920    1.0390 h1        1 AQS      0.068200
     38 HA21        0.9160    1.9470   -1.1710 hc        1 AQS      0.091450
     39 HA22        2.3060    2.7360   -2.0000 hc        1 AQS      0.091450
     40 HA31        1.3090    4.7020   -1.4330 hx        1 AQS      0.114950
     41 HA32        2.1140    4.4350    0.1880 hx        1 AQS      0.114950
     42 HNA1       -0.7120    3.7670   -0.5530 hn        1 AQS      0.472300
     43 HNA2       -0.1720    4.9740    0.4720 hn        1 AQS      0.472300
     44 HNA3       -0.0210    3.3610    0.8890 hn        1 AQS      0.472300
     45 HB11        3.7320   -0.7150   -1.7150 h1        1 AQS      0.068200
     46 HB12        3.8810    1.0440   -2.1300 h1        1 AQS      0.068200
     47 HB21        6.0170    1.1310   -1.4220 hc        1 AQS      0.091450
     48 HB22        5.6270    0.4790    0.2090 hc        1 AQS      0.091450
     49 HB31        5.9790   -1.2620   -2.3570 hx        1 AQS      0.114950
     50 HB32        7.3430   -0.8000   -1.2240 hx        1 AQS      0.114950
     51 HNB1        5.9920   -1.9160    0.5590 hn        1 AQS      0.472300
     52 HNB2        4.9510   -2.4820   -0.5910 hn        1 AQS      0.472300
     53 HNB3        6.5670   -2.9310   -0.6410 hn        1 AQS      0.472300
@<TRIPOS>BOND
     1    1    2 ar  
     2    1   16 ar  
     3    1   29 1   
     4    2    3 ar  
     5    2   30 1   
     6    3    4 ar  
     7    3   17 1   
     8    4    5 ar  
     9    4   31 1   
    10    5    6 1   
    11    5   16 ar  
    12    6    7 2   
    13    6    8 1   
    14    8    9 ar  
    15    8   13 ar  
    16    9   10 ar  
    17    9   32 1   
    18   10   11 ar  
    19   10   33 1   
    20   11   12 ar  
    21   11   34 1   
    22   12   13 ar  
    23   12   35 1   
    24   13   14 1   
    25   14   15 2   
    26   14   16 1   
    27   17   18 2   
    28   17   19 2   
    29   17   20 1   
    30   20   21 1   
    31   20   25 1   
    32   21   22 1   
    33   21   36 1   
    34   21   37 1   
    35   22   23 1   
    36   22   38 1   
    37   22   39 1   
    38   23   24 1   
    39   23   40 1   
    40   23   41 1   
    41   24   42 1   
    42   24   43 1   
    43   24   44 1   
    44   25   26 1   
    45   25   45 1   
    46   25   46 1   
    47   26   27 1   
    48   26   47 1   
    49   26   48 1   
    50   27   28 1   
    51   27   49 1   
    52   27   50 1   
    53   28   51 1   
    54   28   52 1   
    55   28   53 1   
@<TRIPOS>SUBSTRUCTURE
     1 AQS         1 TEMP              0 ****  ****    0 ROOT
