@<TRIPOS>MOLECULE
AQU
   65    57     1     0     0
SMALL
bcc


@<TRIPOS>ATOM
      1 N1         -4.4590    4.7280   -2.1800 n1        1 AQU     -0.242000
      2 C2         -5.1250    5.3890   -3.1800 c1        1 AQU      0.007000
      3 N3         -5.2510    6.7490   -3.1370 n1        1 AQU     -0.189000
      4 C4         -4.7150    7.4510   -2.0990 c1        1 AQU     -0.058500
      5 C5         -4.0550    6.7980   -1.1070 c1        1 AQU     -0.058500
      6 C6         -3.9290    5.4180   -1.1530 c1        1 AQU      0.175000
      7 CAA         5.7230   -4.0500    1.9130 c3        1 AQU     -0.202667
      8 CAB         5.1000   -1.9470    3.0400 c3        1 AQU     -0.202667
      9 CAC         4.2890   -4.1030    3.9200 c3        1 AQU     -0.202667
     10 NAD         0.4400   -7.4660   -2.0490 n3        1 AQU     -0.328000
     11 OAE         0.5860   -0.2260    0.2350 o         1 AQU     -0.355000
     12 CAF        -4.3000    9.5700   -0.9990 c1        1 AQU     -0.122500
     13 CAG        -3.6280    8.9040    0.0120 c1        1 AQU     -0.122500
     14 CAH         2.5820   -4.7020   -3.3320 c1        1 AQU     -0.121250
     15 CAJ         1.8910   -5.9030   -3.2970 c1        1 AQU     -0.190000
     16 CAK         2.5740   -3.8650   -2.2270 c1        1 AQU     -0.121250
     17 CAL        -1.3510    1.8880    0.9040 c1        1 AQU     -0.117000
     18 CAM        -2.9420    1.0670   -0.6980 c1        1 AQU     -0.121250
     19 CAN        -1.7410    3.1890    0.6230 c1        1 AQU     -0.147000
     20 CAO        -3.3320    2.3680   -0.9770 c1        1 AQU     -0.121250
     21 CAP        -4.8450    8.8570   -2.0540 c2        1 AQU     -0.103500
     22 CAQ        -3.5000    7.5250   -0.0320 c2        1 AQU     -0.103500
     23 CAR         1.1830   -5.4290   -1.0520 c1        1 AQU     -0.223000
     24 CAS         2.2470   -2.5440    2.0890 c1        1 AQU     -0.207000
     25 NAV         3.2170   -3.8240    0.5890 n2        1 AQU     -0.059000
     26 NAW        -1.6480   -0.5080    0.6270 n         1 AQU     -0.311000
     27 NAX         0.0080   -2.2870    1.0370 n         1 AQU     -0.285000
     28 NAY        -3.7250    4.4350   -0.1430 n3        1 AQU     -0.241000
     29 CAZ        -0.3030   -0.9710    0.5920 c2        1 AQU      0.391000
     30 CBA         1.1910   -6.2660   -2.1570 c1        1 AQU      0.066000
     31 CBB        -1.9510    0.8270    0.2440 c1        1 AQU      0.056000
     32 CBC        -2.7320    3.4290   -0.3170 c1        1 AQU      0.031000
     33 CBD         1.8750   -4.2290   -1.0870 c1        1 AQU      0.096000
     34 CBE         3.3920   -3.2250    1.7860 c1        1 AQU     -0.091000
     35 CBF         1.3620   -2.7300    1.0630 c2        1 AQU      0.050000
     36 NBJ         1.9560   -3.5170    0.1390 n3        1 AQU     -0.121000
     37 CBK         4.6280   -3.3310    2.6660 c2        1 AQU      0.018000
     38 H2         -5.5090    4.8870   -3.9240 ha        1 AQU      0.190000
     39 HAA         5.3940   -4.9240    1.6140 hc        1 AQU      0.078667
     40 HAAA        5.9880   -3.5170    1.1350 hc        1 AQU      0.078667
     41 HAAB        6.4960   -4.1760    2.5020 hc        1 AQU      0.078667
     42 HAB         4.4610   -1.5400    3.6620 hc        1 AQU      0.078667
     43 HABA        5.9800   -2.0060    3.4680 hc        1 AQU      0.078667
     44 HABB        5.1660   -1.3960    2.2340 hc        1 AQU      0.078667
     45 HAC         3.9240   -4.9780    3.6760 hc        1 AQU      0.078667
     46 HACA        3.6240   -3.6050    4.4400 hc        1 AQU      0.078667
     47 HACB        5.1000   -4.2250    4.4580 hc        1 AQU      0.078667
     48 HNAD        0.4130   -8.0530   -2.7490 hn        1 AQU      0.187500
     49 HNAA       -0.0050   -7.6580   -1.2740 hn        1 AQU      0.187500
     50 HAF        -4.3900   10.5410   -0.9680 ha        1 AQU      0.138000
     51 HAG        -3.2440    9.4060    0.7560 ha        1 AQU      0.138000
     52 HAH         3.0750   -4.4450   -4.1360 ha        1 AQU      0.146250
     53 HAJ         1.8960   -6.4920   -4.0750 ha        1 AQU      0.138000
     54 HAK         3.0610   -3.0200   -2.2520 ha        1 AQU      0.146250
     55 HAL        -0.6540    1.7200    1.5650 ha        1 AQU      0.172000
     56 HAM        -3.3650    0.3200   -1.1630 ha        1 AQU      0.146250
     57 HAN        -1.3190    3.9370    1.0880 ha        1 AQU      0.134000
     58 HAO        -4.0290    2.5370   -1.6390 ha        1 AQU      0.146250
     59 HAP        -5.3190    9.3270   -2.7660 ha        1 AQU      0.142500
     60 HAQ        -3.0260    7.0560    0.6810 ha        1 AQU      0.142500
     61 HAR         0.6910   -5.6860   -0.2490 ha        1 AQU      0.148000
     62 HAS         2.0880   -2.0170    2.8950 DU        1 AQU      0.191000
     63 HNAX       -0.6620   -2.8520    1.2900 hn        1 AQU      0.229000
     64 HNAW       -2.3140   -1.0630    0.9090 hn        1 AQU      0.224000
     65 HNAY       -4.2310    4.4500    0.6170 hn        1 AQU      0.225000
@<TRIPOS>BOND
     1    1    6 1   
     2    2    3 1   
     3    2   38 1   
     4    4    5 1   
     5    4   21 1   
     6    5   22 1   
     7    6   28 1   
     8    7   37 1   
     9    7   39 1   
    10    7   40 1   
    11    7   41 1   
    12    8   37 1   
    13    8   42 1   
    14    8   43 1   
    15    8   44 1   
    16    9   37 1   
    17    9   45 1   
    18    9   46 1   
    19    9   47 1   
    20   10   30 1   
    21   10   48 1   
    22   10   49 1   
    23   11   29 1   
    24   12   21 1   
    25   12   50 1   
    26   13   22 1   
    27   13   51 1   
    28   14   16 1   
    29   14   52 1   
    30   15   30 1   
    31   15   53 1   
    32   16   54 1   
    33   17   31 1   
    34   17   55 1   
    35   18   20 1   
    36   18   56 1   
    37   19   32 1   
    38   19   57 1   
    39   20   58 1   
    40   21   59 1   
    41   22   60 1   
    42   23   33 1   
    43   23   61 1   
    44   24   34 1   
    45   24   35 1   
    46   25   34 1   
    47   25   36 1   
    48   26   29 1   
    49   26   31 1   
    50   26   64 1   
    51   27   29 1   
    52   27   35 1   
    53   27   63 1   
    54   28   32 1   
    55   28   65 1   
    56   33   36 1   
    57   35   36 1   
@<TRIPOS>SUBSTRUCTURE
     1 AQU         1 TEMP              0 ****  ****    0 ROOT
