@<TRIPOS>MOLECULE
AQU
   65    69     1     0     0
SMALL
bcc


@<TRIPOS>ATOM
      1 N1          5.5690    0.0920   -1.5740 nb        1 AQU     -0.765000
      2 C2          6.4680   -0.2200   -2.5680 ca        1 AQU      0.669900
      3 N3          7.7980   -0.2010   -2.5170 nb        1 AQU     -0.715000
      4 C4          8.3540    0.1630   -1.3020 ca        1 AQU      0.434600
      5 C5          7.5410    0.4980   -0.1730 ca        1 AQU     -0.288600
      6 C6          6.0880    0.4500   -0.3780 ca        1 AQU      0.695200
      7 CAA        -5.1040   -4.4840    1.9610 c3        1 AQU     -0.085100
      8 CAB        -4.3020   -4.7960   -0.3760 c3        1 AQU     -0.085100
      9 CAC        -6.6770   -4.2200    0.0600 c3        1 AQU     -0.085100
     10 OAE        -0.8770   -1.1830    0.6050 o         1 AQU     -0.591100
     11 CAF        10.3440    0.5500    0.0420 ca        1 AQU     -0.104000
     12 CAG         9.5350    0.8630    1.1560 ca        1 AQU     -0.142000
     13 CAH        -5.8840    3.1310    0.7310 ca        1 AQU     -0.083000
     14 CAJ        -6.5500    3.4540   -0.4440 ca        1 AQU     -0.195000
     15 CAK        -5.3490    1.8630    0.9370 ca        1 AQU     -0.205000
     16 CAL         1.6950   -0.1830    0.0540 ca        1 AQU     -0.140500
     17 CAM         1.7830    2.0200    1.0650 ca        1 AQU     -0.140500
     18 CAN         3.0830   -0.2510    0.0880 ca        1 AQU     -0.117000
     19 CAO         3.1680    1.9570    1.0820 ca        1 AQU     -0.117000
     20 CAP         9.7770    0.2040   -1.1600 ca        1 AQU     -0.178300
     21 CAQ         8.1630    0.8360    1.0500 ca        1 AQU     -0.094000
     22 CAR        -6.1560    1.1940   -1.2660 ca        1 AQU     -0.177000
     23 CAS        -3.5500   -2.0510    0.8630 cc        1 AQU     -0.272300
     24 NAV        -5.6410   -1.5360    0.0310 nd        1 AQU     -0.493800
     25 NAX        -2.6370    0.3200    0.8520 n         1 AQU     -0.430100
     26 NAY         5.2530    0.7360    0.7070 nh        1 AQU     -0.721300
     27 CAZ        -1.2660    0.0020    0.6290 c         1 AQU      0.763100
     28 CBA        -6.6970    2.4860   -1.4640 ca        1 AQU      0.156600
     29 CBB         1.0180    0.9530    0.5420 ca        1 AQU      0.048600
     30 CBC         3.8450    0.8180    0.5970 ca        1 AQU      0.113600
     31 CBD        -5.4730    0.8920   -0.0770 ca        1 AQU      0.053800
     32 CBE        -4.8510   -2.5540    0.4630 cc        1 AQU      0.332600
     33 CBF        -3.6080   -0.6640    0.6380 cd        1 AQU      0.019300
     34 NBJ        -4.9070   -0.4060    0.0860 na        1 AQU      0.118300
     35 H2          6.0010   -0.5130   -3.5330 h5        1 AQU      0.054100
     36 HAA        -4.0590   -4.3290    2.3240 hc        1 AQU      0.039256
     37 HAAA       -5.8020   -3.9240    2.6280 hc        1 AQU      0.039256
     38 HAAB       -5.3470   -5.5720    2.0190 hc        1 AQU      0.039256
     39 HAB        -4.5460   -5.8830   -0.3090 hc        1 AQU      0.039256
     40 HABA       -4.4090   -4.4690   -1.4380 hc        1 AQU      0.039256
     41 HABB       -3.2420   -4.6440   -0.0600 hc        1 AQU      0.039256
     42 HAC        -7.3890   -3.6500    0.7030 hc        1 AQU      0.039256
     43 HACA       -6.8050   -3.8870   -0.9980 hc        1 AQU      0.039256
     44 HACB       -6.9280   -5.3060    0.1240 hc        1 AQU      0.039256
     45 HNAD       -7.9310    3.5830   -2.6380 hn        1 AQU      0.397300
     46 HNAA       -7.6310    2.0460   -3.2090 hn        1 AQU      0.397300
     47 HAF        11.4390    0.5810    0.1500 ha        1 AQU      0.138000
     48 HAG        10.0150    1.1260    2.1100 ha        1 AQU      0.137000
     49 HAH        -5.7870    3.8900    1.5230 ha        1 AQU      0.135000
     50 HAJ        -6.9620    4.4650   -0.5750 ha        1 AQU      0.137000
     51 HAK        -4.8700    1.6210    1.8970 ha        1 AQU      0.148000
     52 HAL         1.1280   -1.0390   -0.3490 ha        1 AQU      0.152000
     53 HAM         1.2900    2.9240    1.4570 ha        1 AQU      0.152000
     54 HAN         3.5770   -1.1580   -0.2970 ha        1 AQU      0.145000
     55 HAO         3.7310    2.8120    1.4890 ha        1 AQU      0.145000
     56 HAP        10.4040   -0.0470   -2.0300 ha        1 AQU      0.155000
     57 HAQ         7.5630    1.0670    1.9430 ha        1 AQU      0.129000
     58 HAR        -6.2710    0.4230   -2.0450 ha        1 AQU      0.157000
     59 HAS        -2.7000   -2.6210    1.2270 ha        1 AQU      0.192000
     60 HNAX       -2.9320    1.2570    0.6640 hn        1 AQU      0.313500
     61 HNAW       -0.7200    2.0000    0.6970 hn        1 AQU      0.308500
     62 HNAY        5.6470    1.3640    1.3760 hn        1 AQU      0.428800
     63 NAW        -0.3840    1.0900    0.4660 n         1 AQU     -0.457100
     64 CBK        -5.2430   -3.9990    0.5210 c3        1 AQU     -0.076300
     65 NAD        -7.2950    2.8200   -2.6820 nh        1 AQU     -0.822200
@<TRIPOS>BOND
     1    1    2 ar  
     2    1    6 ar  
     3    2    3 ar  
     4    2   35 1   
     5    3    4 ar  
     6    4    5 ar  
     7    4   20 ar  
     8    5    6 ar  
     9    5   21 ar  
    10    6   26 1   
    11    7   36 1   
    12    7   37 1   
    13    7   38 1   
    14    7   64 1   
    15    8   39 1   
    16    8   40 1   
    17    8   41 1   
    18    8   64 1   
    19    9   42 1   
    20    9   43 1   
    21    9   44 1   
    22    9   64 1   
    23   10   27 2   
    24   11   12 ar  
    25   11   20 ar  
    26   11   47 1   
    27   12   21 ar  
    28   12   48 1   
    29   13   14 ar  
    30   13   15 ar  
    31   13   49 1   
    32   14   28 ar  
    33   14   50 1   
    34   15   31 ar  
    35   15   51 1   
    36   16   18 ar  
    37   16   29 ar  
    38   16   52 1   
    39   17   19 ar  
    40   17   29 ar  
    41   17   53 1   
    42   18   30 ar  
    43   18   54 1   
    44   19   30 ar  
    45   19   55 1   
    46   20   56 1   
    47   21   57 1   
    48   22   28 ar  
    49   22   31 ar  
    50   22   58 1   
    51   23   32 1   
    52   23   33 2   
    53   23   59 1   
    54   24   32 2   
    55   24   34 1   
    56   25   27 1   
    57   25   33 1   
    58   25   60 1   
    59   26   30 1   
    60   26   62 1   
    61   27   63 1   
    62   28   65 1   
    63   29   63 1   
    64   31   34 1   
    65   32   64 1   
    66   33   34 1   
    67   45   65 1   
    68   46   65 1   
    69   61   63 1   
@<TRIPOS>SUBSTRUCTURE
     1 AQU         1 TEMP              0 ****  ****    0 ROOT
