@<TRIPOS>MOLECULE
AQU
   65    64     1     0     0
SMALL
bcc


@<TRIPOS>ATOM
      1 N1         -1.3290    0.6400   -0.4980 n2        1 AQU     -0.235000
      2 C2          0.0130    0.7450   -0.3470 c2        1 AQU     -0.001000
      3 N3          0.7150    1.7940    0.1540 n2        1 AQU     -0.198000
      4 C4         -0.0280    2.8520    0.5470 c2        1 AQU     -0.018000
      5 C5         -1.4250    2.8780    0.4540 c2        1 AQU     -0.272000
      6 C6         -2.0750    1.7160   -0.0750 c2        1 AQU      0.134000
      7 CAA        -1.7210   -6.8530   -6.6610 c3        1 AQU     -0.212500
      8 CAB        -3.7830   -7.0400   -8.0560 c3        1 AQU     -0.212500
      9 CAC        -3.7560   -5.9010   -5.8410 c1        1 AQU     -0.039000
     10 OAE        -3.1830   -4.2310   -2.5750 o         1 AQU     -0.340000
     11 CAF        -3.2880   -2.0740    3.7980 c1        1 AQU     -0.081500
     12 CAG        -3.2510   -2.5560    5.0650 c1        1 AQU     -0.081500
     13 CAH        -5.4010    0.4100   -6.7640 ca        1 AQU     -0.097000
     14 CAJ        -6.6370    0.2190   -7.3670 ca        1 AQU     -0.164000
     15 CAK        -4.4250   -0.5830   -6.7870 ca        1 AQU     -0.136000
     16 CAL        -3.6110   -1.7950   -1.4360 c3        1 AQU     -0.226000
     17 CAM        -4.2900   -0.1370   -3.1800 c2        1 AQU     -0.333000
     18 CAN        -3.6990   -0.7580   -0.4300 c1        1 AQU     -0.013000
     19 CAO        -4.2590    0.9010   -2.2630 c1        1 AQU     -0.157000
     20 CAP        -3.3190   -1.6470    2.6770 c1        1 AQU     -0.174500
     21 CAQ        -3.2190   -2.9810    6.1850 c1        1 AQU     -0.174500
     22 CAR        -5.9440   -2.0140   -8.0440 ca        1 AQU     -0.173000
     23 CAS        -1.5240   -4.6380   -8.4510 c2        1 AQU     -0.101000
     24 NAV        -3.7920   -3.9050   -7.8390 n2        1 AQU     -0.078000
     25 NAX        -0.8900   -2.4580   -9.6760 n1        1 AQU     -0.018000
     26 NAY        -3.4830    1.6670   -0.0630 nh        1 AQU     -0.198000
     27 CAZ        -3.5660   -3.7780   -3.6610 c2        1 AQU      0.216000
     28 CBA        -6.9250   -0.9980   -8.0310 ca        1 AQU      0.061000
     29 CBB        -3.9680   -1.4560   -2.8600 c2        1 AQU      0.152000
     30 CBC        -4.1450    0.6020   -0.8120 c3        1 AQU     -0.096000
     31 CBD        -4.6980   -1.8100   -7.4290 ca        1 AQU     -0.038000
     32 CBE        -2.6940   -4.8330   -7.8020 c2        1 AQU      0.015000
     33 CBF        -1.1880   -3.4370   -9.1210 c1        1 AQU     -0.112000
     34 NBJ        -3.6270   -2.7700   -7.4010 n2        1 AQU     -0.040000
     35 H2         -3.3480   -1.2650    1.6720 ha        1 AQU      0.249000
     36 HAA        -1.0320   -6.1430   -6.1450 hc        1 AQU      0.095833
     37 HAAA       -1.2080   -7.2770   -7.5580 hc        1 AQU      0.095833
     38 HAAB       -1.9620   -7.6970   -5.9690 hc        1 AQU      0.095833
     39 HAB        -3.9960   -8.0220   -7.5690 hc        1 AQU      0.095833
     40 HABA       -3.1800   -7.2200   -8.9780 hc        1 AQU      0.095833
     41 HABB       -4.7480   -6.5620   -8.3500 hc        1 AQU      0.095833
     42 HAC        -4.1990   -6.8080   -5.3970 ha        1 AQU      0.059000
     43 HACA       -5.8050   -5.1510   -6.2350 ha        1 AQU      0.015000
     44 HACB       -5.8570   -5.7020   -6.6360 ha        1 AQU      0.015000
     45 HNAD       -8.3920   -2.1040   -8.8930 hn        1 AQU      0.192500
     46 HNAA       -8.8690   -0.5750   -8.4250 hn        1 AQU      0.192500
     47 HAF         0.6050   -0.1340   -0.6800 h5        1 AQU      0.185000
     48 HAG        -3.1890   -3.3560    7.1750 ha        1 AQU      0.249000
     49 HAH        -7.3860    1.0250   -7.3370 ha        1 AQU      0.142000
     50 HAJ        -5.1860    1.3640   -6.2550 ha        1 AQU      0.153000
     51 HAK        -3.4450   -0.3950   -6.3200 ha        1 AQU      0.156000
     52 HAL        -2.5330   -2.1600   -1.3960 hc        1 AQU      0.189000
     53 HAM        -4.5320    0.1280   -4.2260 ha        1 AQU      0.140000
     54 HAN        -4.2190   -2.6840   -1.0830 hc        1 AQU      0.189000
     55 HAO        -5.2350    0.6080   -0.4370 h1        1 AQU      0.171000
     56 HAP         0.5300    3.7140    0.9540 h4        1 AQU      0.162000
     57 HAQ        -1.9970    3.7520    0.7840 ha        1 AQU      0.154000
     58 HAR        -6.1580   -2.9650   -8.5580 ha        1 AQU      0.148000
     59 HAS        -0.7580   -5.4310   -8.5140 ha        1 AQU      0.162000
     60 HNAX       -3.6560   -4.4020   -4.6100 h5        1 AQU      0.226000
     61 HNAW       -4.1920   -2.1510   -4.7520 hn        1 AQU      0.250000
     62 HNAY       -3.8800    2.5590   -0.3040 hn        1 AQU      0.210000
     63 NAW        -3.9460   -2.4380   -3.8230 n         1 AQU     -0.323000
     64 CBK        -3.0100   -6.1390   -7.0940 c3        1 AQU     -0.091000
     65 NAD        -8.1240   -1.1600   -8.7280 nh        1 AQU     -0.333000
@<TRIPOS>BOND
     1    1    2 1   
     2    1    6 1   
     3    2    3 1   
     4    2   47 1   
     5    3    4 1   
     6    4    5 1   
     7    4   56 1   
     8    5    6 1   
     9    5   57 1   
    10    6   26 1   
    11    7   36 1   
    12    7   37 1   
    13    7   38 1   
    14    7   64 1   
    15    8   39 1   
    16    8   40 1   
    17    8   41 1   
    18    8   64 1   
    19    9   42 1   
    20    9   64 1   
    21   10   27 1   
    22   11   12 1   
    23   11   20 1   
    24   12   21 1   
    25   13   14 1   
    26   13   15 1   
    27   13   50 1   
    28   14   28 1   
    29   14   49 1   
    30   15   31 1   
    31   15   51 1   
    32   16   18 1   
    33   16   29 1   
    34   16   52 1   
    35   16   54 1   
    36   17   19 1   
    37   17   29 1   
    38   17   53 1   
    39   18   30 1   
    40   19   30 1   
    41   20   35 1   
    42   21   48 1   
    43   22   28 1   
    44   22   31 1   
    45   22   58 1   
    46   23   32 1   
    47   23   33 1   
    48   23   59 1   
    49   24   32 1   
    50   24   34 1   
    51   25   33 1   
    52   26   30 1   
    53   26   62 1   
    54   27   60 1   
    55   27   63 1   
    56   28   65 1   
    57   29   63 1   
    58   30   55 1   
    59   31   34 1   
    60   32   64 1   
    61   43   44 1   
    62   45   65 1   
    63   46   65 1   
    64   61   63 1   
@<TRIPOS>SUBSTRUCTURE
     1 AQU         1 TEMP              0 ****  ****    0 ROOT
