@<TRIPOS>MOLECULE
AQZ
   80    85     1     0     0
SMALL
bcc


@<TRIPOS>ATOM
      1 C1         -4.1280   -0.1670   -0.3810 c3        1 AQZ      0.115700
      2 O2         -3.2760   -0.8580    0.5330 os        1 AQZ     -0.329900
      3 C3         -2.2470   -0.0900    1.0510 ca        1 AQZ      0.112100
      4 C4         -0.9530   -0.4790    0.7830 ca        1 AQZ     -0.174300
      5 C5          0.1470    0.1980    1.3960 ca        1 AQZ      0.423600
      6 N6          1.4370   -0.2310    1.1350 nb        1 AQZ     -0.707000
      7 C7          2.4100    0.4480    1.7390 ca        1 AQZ      0.663900
      8 N8          2.3020    1.5360    2.5730 nb        1 AQZ     -0.756000
      9 C9          1.0510    1.9690    2.8440 ca        1 AQZ      0.691200
     10 N10         0.8390    3.0460    3.7150 nh        1 AQZ     -0.726300
     11 C11         1.8990    3.7620    4.3210 ca        1 AQZ      0.161600
     12 C12         2.8350    3.0770    5.1200 ca        1 AQZ     -0.131000
     13 C13         3.8520    3.7830    5.7890 ca        1 AQZ      0.078600
     14 N14         4.8230    3.1470    6.5830 n         1 AQZ     -0.469100
     15 C15         4.7790    1.8560    7.0900 c         1 AQZ      0.676700
     16 O16         3.8430    1.0670    6.8800 o         1 AQZ     -0.565100
     17 C17         5.9640    1.4450    7.9080 ca        1 AQZ     -0.088600
     18 C18         6.5380    0.1930    7.6710 ca        1 AQZ     -0.224300
     19 C19         7.6330   -0.1820    8.4690 ca        1 AQZ      0.420200
     20 N20         8.1630    0.5810    9.4350 nb        1 AQZ     -0.696000
     21 C21         7.5900    1.8020    9.6800 ca        1 AQZ      0.613200
     22 C22         6.4760    2.2640    8.9140 ca        1 AQZ     -0.244300
     23 N23         8.0410    2.6150   10.7630 nh        1 AQZ     -0.727300
     24 C24         8.9590    1.9910   11.7100 c3        1 AQZ      0.147800
     25 C25         9.2650    2.9190   12.8930 c3        1 AQZ      0.122900
     26 O26         9.7270    4.1940   12.4580 os        1 AQZ     -0.412600
     27 C27         8.8040    4.8270   11.5810 c3        1 AQZ      0.122900
     28 C28         8.4850    3.9470   10.3640 c3        1 AQZ      0.147800
     29 C29         3.9180    5.1900    5.6500 ca        1 AQZ     -0.191000
     30 C30         2.9870    5.8540    4.8660 ca        1 AQZ     -0.088000
     31 C31         1.9730    5.1710    4.1910 ca        1 AQZ     -0.138300
     32 C32         1.0050    5.9280    3.3650 c3        1 AQZ     -0.052800
     33 C33        -0.1180    1.3020    2.2640 ca        1 AQZ     -0.263600
     34 C34        -1.4540    1.6820    2.5290 ca        1 AQZ     -0.169000
     35 C35        -2.5040    1.0040    1.9400 ca        1 AQZ      0.100100
     36 O36        -3.8350    1.3180    2.1130 os        1 AQZ     -0.331900
     37 C37        -4.1390    2.1550    3.2390 c3        1 AQZ      0.126400
     38 C38        -5.6660    2.0620    3.3850 c3        1 AQZ      0.162800
     39 N39        -6.1690    2.9980    4.3730 n3        1 AQZ     -0.726600
     40 C40        -7.5260    2.6920    4.8320 c3        1 AQZ      0.158300
     41 C41        -8.4040    3.9470    4.7120 c3        1 AQZ     -0.093900
     42 C42        -7.5080    5.0400    4.1450 c3        1 AQZ     -0.093900
     43 C43        -6.1240    4.4000    3.9540 c3        1 AQZ      0.158300
     44 H11        -4.6470    0.6820    0.1270 h1        1 AQZ      0.046033
     45 H12A       -4.8610   -0.9520   -0.6950 h1        1 AQZ      0.046033
     46 H13        -3.5400    0.2010   -1.2560 h1        1 AQZ      0.046033
     47 H4         -0.7620   -1.3310    0.1100 ha        1 AQZ      0.172000
     48 H7          3.4530    0.1160    1.5490 h5        1 AQZ      0.054100
     49 H10         0.0390    3.6020    3.4940 hn        1 AQZ      0.429800
     50 H12         2.7670    1.9790    5.2200 ha        1 AQZ      0.188000
     51 H14         5.6040    3.7100    6.8370 hn        1 AQZ      0.319500
     52 H18         6.1360   -0.4780    6.9010 ha        1 AQZ      0.167000
     53 H19         8.1250   -1.1620    8.3230 h4        1 AQZ      0.030100
     54 H22         6.0070    3.2310    9.1450 ha        1 AQZ      0.151000
     55 H241        9.9340    1.7090   11.2180 h1        1 AQZ      0.053950
     56 H242        8.4770    1.0550   12.1040 h1        1 AQZ      0.053950
     57 H251        8.3600    3.0500   13.5430 h1        1 AQZ      0.057450
     58 H252       10.1160    2.5030   13.4930 h1        1 AQZ      0.057450
     59 H271        9.3270    5.7620   11.2490 h1        1 AQZ      0.057450
     60 H272        7.8670    5.0840   12.1410 h1        1 AQZ      0.057450
     61 H281        7.6650    4.4420    9.7740 h1        1 AQZ      0.053950
     62 H282        9.4040    3.8910    9.7130 h1        1 AQZ      0.053950
     63 H29         4.7040    5.7690    6.1570 ha        1 AQZ      0.130000
     64 H30         3.0520    6.9500    4.7700 ha        1 AQZ      0.133000
     65 H321       -0.0240    5.8640    3.8010 hc        1 AQZ      0.042700
     66 H322        1.2850    7.0100    3.3100 hc        1 AQZ      0.042700
     67 H323        0.9740    5.5290    2.3200 hc        1 AQZ      0.042700
     68 H341       -1.6710    2.5020    3.2280 ha        1 AQZ      0.141000
     69 H371       -3.6210    1.7780    4.1570 h1        1 AQZ      0.048700
     70 H372       -3.8070    3.2020    3.0120 h1        1 AQZ      0.048700
     71 H381       -6.1270    2.2100    2.3640 h1        1 AQZ      0.048200
     72 H382       -5.9180    1.0160    3.7210 h1        1 AQZ      0.048200
     73 H401       -7.4410    2.3750    5.9070 h1        1 AQZ      0.044700
     74 H402       -7.9900    1.8410    4.2600 h1        1 AQZ      0.044700
     75 H411       -8.8060    4.2360    5.7140 hc        1 AQZ      0.048450
     76 H412       -9.2750    3.7520    4.0400 hc        1 AQZ      0.048450
     77 H421       -7.9020    5.4170    3.1700 hc        1 AQZ      0.048450
     78 H422       -7.4420    5.9080    4.8450 hc        1 AQZ      0.048450
     79 H431       -5.7890    4.5140    2.8870 h1        1 AQZ      0.044700
     80 H432       -5.3650    4.9120    4.6070 h1        1 AQZ      0.044700
@<TRIPOS>BOND
     1    1    2 1   
     2    1   44 1   
     3    1   45 1   
     4    1   46 1   
     5    2    3 1   
     6    3    4 ar  
     7    3   35 ar  
     8    4    5 ar  
     9    4   47 1   
    10    5    6 ar  
    11    5   33 ar  
    12    6    7 ar  
    13    7    8 ar  
    14    7   48 1   
    15    8    9 ar  
    16    9   10 1   
    17    9   33 ar  
    18   10   11 1   
    19   10   49 1   
    20   11   12 ar  
    21   11   31 ar  
    22   12   13 ar  
    23   12   50 1   
    24   13   14 1   
    25   13   29 ar  
    26   14   15 1   
    27   14   51 1   
    28   15   16 2   
    29   15   17 1   
    30   17   18 ar  
    31   17   22 ar  
    32   18   19 ar  
    33   18   52 1   
    34   19   20 ar  
    35   19   53 1   
    36   20   21 ar  
    37   21   22 ar  
    38   21   23 1   
    39   22   54 1   
    40   23   24 1   
    41   23   28 1   
    42   24   25 1   
    43   24   55 1   
    44   24   56 1   
    45   25   26 1   
    46   25   57 1   
    47   25   58 1   
    48   26   27 1   
    49   27   28 1   
    50   27   59 1   
    51   27   60 1   
    52   28   61 1   
    53   28   62 1   
    54   29   30 ar  
    55   29   63 1   
    56   30   31 ar  
    57   30   64 1   
    58   31   32 1   
    59   32   65 1   
    60   32   66 1   
    61   32   67 1   
    62   33   34 ar  
    63   34   35 ar  
    64   34   68 1   
    65   35   36 1   
    66   36   37 1   
    67   37   38 1   
    68   37   69 1   
    69   37   70 1   
    70   38   39 1   
    71   38   71 1   
    72   38   72 1   
    73   39   40 1   
    74   39   43 1   
    75   40   41 1   
    76   40   73 1   
    77   40   74 1   
    78   41   42 1   
    79   41   75 1   
    80   41   76 1   
    81   42   43 1   
    82   42   77 1   
    83   42   78 1   
    84   43   79 1   
    85   43   80 1   
@<TRIPOS>SUBSTRUCTURE
     1 AQZ         1 TEMP              0 ****  ****    0 ROOT
