@<TRIPOS>MOLECULE
AQZ
   80    85     1     0     0
SMALL
bcc


@<TRIPOS>ATOM
      1 C1         -1.2060    0.2800    0.6180 c3        1 AQZ      0.123700
      2 O2          0.0080    1.0280    0.5700 os        1 AQZ     -0.326900
      3 C3          0.8790    0.8530    1.6260 ca        1 AQZ      0.130100
      4 C4          1.5760    1.9760    2.0260 ca        1 AQZ     -0.191300
      5 C5          2.5710    1.8870    3.0460 ca        1 AQZ      0.434600
      6 N6          3.2790    3.0210    3.4040 nb        1 AQZ     -0.709000
      7 C7          4.1860    2.8640    4.3650 ca        1 AQZ      0.665900
      8 N8          4.4970    1.7230    5.0680 nb        1 AQZ     -0.758000
      9 C9          3.8190    0.6030    4.7330 ca        1 AQZ      0.694200
     10 N10         4.0940   -0.6180    5.3660 nh        1 AQZ     -0.726300
     11 C11         5.0490   -0.7440    6.4030 ca        1 AQZ      0.161600
     12 C12         6.3860   -0.3660    6.1700 ca        1 AQZ     -0.131000
     13 C13         7.3630   -0.5530    7.1650 ca        1 AQZ      0.078600
     14 N14         8.7060   -0.1760    6.9910 n         1 AQZ     -0.469100
     15 C15         9.3480    0.1150    5.7960 c         1 AQZ      0.676700
     16 O16         8.7850    0.0870    4.6890 o         1 AQZ     -0.565100
     17 C17        10.7920    0.4940    5.9160 ca        1 AQZ     -0.088600
     18 C18        11.2540    1.6030    5.2020 ca        1 AQZ     -0.224300
     19 C19        12.6170    1.9240    5.3090 ca        1 AQZ      0.420200
     20 N20        13.5000    1.2420    6.0520 nb        1 AQZ     -0.696000
     21 C21        13.0520    0.1450    6.7400 ca        1 AQZ      0.613200
     22 C22        11.6810   -0.2510    6.6900 ca        1 AQZ     -0.244300
     23 N23        13.9620   -0.6830    7.4650 nh        1 AQZ     -0.727300
     24 C24        15.3840   -0.4380    7.2460 c3        1 AQZ      0.147800
     25 C25        16.2520   -1.4720    7.9750 c3        1 AQZ      0.122900
     26 O26        15.9280   -1.5510    9.3590 os        1 AQZ     -0.412600
     27 C27        14.5540   -1.8480    9.5710 c3        1 AQZ      0.122900
     28 C28        13.6410   -0.8250    8.8820 c3        1 AQZ      0.147800
     29 C29         6.9830   -1.1290    8.4000 ca        1 AQZ     -0.191000
     30 C30         5.6660   -1.5030    8.6170 ca        1 AQZ     -0.088000
     31 C31         4.6810   -1.3220    7.6440 ca        1 AQZ     -0.138300
     32 C32         3.2870   -1.7370    7.9260 c3        1 AQZ     -0.052800
     33 C33         2.8060    0.6250    3.6740 ca        1 AQZ     -0.276600
     34 C34         2.0850   -0.5130    3.2480 ca        1 AQZ     -0.155000
     35 C35         1.1450   -0.4130    2.2410 ca        1 AQZ      0.081100
     36 O36         0.3820   -1.4700    1.7860 os        1 AQZ     -0.340900
     37 C37         0.8820   -2.7800    2.0940 c3        1 AQZ      0.127400
     38 C38         0.0880   -3.7190    1.1720 c3        1 AQZ      0.162800
     39 N39         0.3390   -5.1140    1.4820 n3        1 AQZ     -0.725600
     40 C40        -0.0720   -6.0340    0.4180 c3        1 AQZ      0.158300
     41 C41        -0.9630   -7.1380    1.0090 c3        1 AQZ     -0.093900
     42 C42        -1.0830   -6.8370    2.4960 c3        1 AQZ     -0.093900
     43 C43        -0.2520   -5.5680    2.7430 c3        1 AQZ      0.158300
     44 H11        -1.9030    0.8670   -0.0320 h1        1 AQZ      0.047367
     45 H12A       -1.0300   -0.7390    0.1930 h1        1 AQZ      0.047367
     46 H13        -1.5980    0.2030    1.6590 h1        1 AQZ      0.047367
     47 H4          1.3770    2.9450    1.5400 ha        1 AQZ      0.173000
     48 H7          4.7720    3.7600    4.6620 h5        1 AQZ      0.053100
     49 H10         3.3020   -1.2180    5.4590 hn        1 AQZ      0.429800
     50 H12         6.6640    0.0790    5.1980 ha        1 AQZ      0.188000
     51 H14         9.2570   -0.1570    7.8210 hn        1 AQZ      0.319500
     52 H18        10.5760    2.1890    4.5660 ha        1 AQZ      0.167000
     53 H19        13.0340    2.7920    4.7650 h4        1 AQZ      0.030100
     54 H22        11.3450   -1.1530    7.2200 ha        1 AQZ      0.151000
     55 H241       15.6860    0.5910    7.5960 h1        1 AQZ      0.053950
     56 H242       15.5890   -0.5110    6.1430 h1        1 AQZ      0.053950
     57 H251       16.1460   -2.4850    7.5060 h1        1 AQZ      0.057450
     58 H252       17.3260   -1.1470    7.9580 h1        1 AQZ      0.057450
     59 H271       14.3320   -2.8860    9.2070 h1        1 AQZ      0.057450
     60 H272       14.4210   -1.7900   10.6830 h1        1 AQZ      0.057450
     61 H281       12.5770   -1.1750    8.9800 h1        1 AQZ      0.053950
     62 H282       13.7390    0.1610    9.4210 h1        1 AQZ      0.053950
     63 H29         7.7230   -1.2840    9.2000 ha        1 AQZ      0.130000
     64 H30         5.3880   -1.9510    9.5850 ha        1 AQZ      0.133000
     65 H321        2.5780   -0.8860    7.7660 hc        1 AQZ      0.042700
     66 H322        2.9830   -2.5840    7.2610 hc        1 AQZ      0.042700
     67 H323        3.1790   -2.0790    8.9860 hc        1 AQZ      0.042700
     68 H341        2.2860   -1.4970    3.6960 ha        1 AQZ      0.141000
     69 H371        0.6840   -2.9970    3.1760 h1        1 AQZ      0.049700
     70 H372        1.9800   -2.8400    1.8830 h1        1 AQZ      0.049700
     71 H381        0.4180   -3.5240    0.1120 h1        1 AQZ      0.046700
     72 H382       -1.0050   -3.4420    1.2430 h1        1 AQZ      0.046700
     73 H401        0.8700   -6.4770   -0.0080 h1        1 AQZ      0.044450
     74 H402       -0.6120   -5.5090   -0.4170 h1        1 AQZ      0.044450
     75 H411       -1.9660   -7.1370    0.5160 hc        1 AQZ      0.048700
     76 H412       -0.5010   -8.1410    0.8380 hc        1 AQZ      0.048700
     77 H421       -2.1480   -6.6700    2.7880 hc        1 AQZ      0.048700
     78 H422       -0.6910   -7.6840    3.1110 hc        1 AQZ      0.048700
     79 H431       -0.8900   -4.7750    3.2230 h1        1 AQZ      0.044450
     80 H432        0.6000   -5.7900    3.4420 h1        1 AQZ      0.044450
@<TRIPOS>BOND
     1    1    2 1   
     2    1   44 1   
     3    1   45 1   
     4    1   46 1   
     5    2    3 1   
     6    3    4 ar  
     7    3   35 ar  
     8    4    5 ar  
     9    4   47 1   
    10    5    6 ar  
    11    5   33 ar  
    12    6    7 ar  
    13    7    8 ar  
    14    7   48 1   
    15    8    9 ar  
    16    9   10 1   
    17    9   33 ar  
    18   10   11 1   
    19   10   49 1   
    20   11   12 ar  
    21   11   31 ar  
    22   12   13 ar  
    23   12   50 1   
    24   13   14 1   
    25   13   29 ar  
    26   14   15 1   
    27   14   51 1   
    28   15   16 2   
    29   15   17 1   
    30   17   18 ar  
    31   17   22 ar  
    32   18   19 ar  
    33   18   52 1   
    34   19   20 ar  
    35   19   53 1   
    36   20   21 ar  
    37   21   22 ar  
    38   21   23 1   
    39   22   54 1   
    40   23   24 1   
    41   23   28 1   
    42   24   25 1   
    43   24   55 1   
    44   24   56 1   
    45   25   26 1   
    46   25   57 1   
    47   25   58 1   
    48   26   27 1   
    49   27   28 1   
    50   27   59 1   
    51   27   60 1   
    52   28   61 1   
    53   28   62 1   
    54   29   30 ar  
    55   29   63 1   
    56   30   31 ar  
    57   30   64 1   
    58   31   32 1   
    59   32   65 1   
    60   32   66 1   
    61   32   67 1   
    62   33   34 ar  
    63   34   35 ar  
    64   34   68 1   
    65   35   36 1   
    66   36   37 1   
    67   37   38 1   
    68   37   69 1   
    69   37   70 1   
    70   38   39 1   
    71   38   71 1   
    72   38   72 1   
    73   39   40 1   
    74   39   43 1   
    75   40   41 1   
    76   40   73 1   
    77   40   74 1   
    78   41   42 1   
    79   41   75 1   
    80   41   76 1   
    81   42   43 1   
    82   42   77 1   
    83   42   78 1   
    84   43   79 1   
    85   43   80 1   
@<TRIPOS>SUBSTRUCTURE
     1 AQZ         1 TEMP              0 ****  ****    0 ROOT
