@<TRIPOS>MOLECULE
AQZ
   80    85     1     0     0
SMALL
bcc


@<TRIPOS>ATOM
      1 C1         -1.2180    0.2790    0.6350 c3        1 AQZ      0.123700
      2 O2         -0.0050    1.0300    0.5870 os        1 AQZ     -0.326900
      3 C3          0.8670    0.8550    1.6420 ca        1 AQZ      0.130100
      4 C4          1.5630    1.9790    2.0410 ca        1 AQZ     -0.191300
      5 C5          2.5590    1.8900    3.0600 ca        1 AQZ      0.435600
      6 N6          3.2670    3.0250    3.4170 nb        1 AQZ     -0.709000
      7 C7          4.1760    2.8680    4.3780 ca        1 AQZ      0.665900
      8 N8          4.4880    1.7270    5.0790 nb        1 AQZ     -0.758000
      9 C9          3.8120    0.6060    4.7450 ca        1 AQZ      0.694200
     10 N10         4.0880   -0.6140    5.3760 nu        1 AQZ     -0.726300
     11 C11         5.0450   -0.7400    6.4120 ca        1 AQZ      0.161600
     12 C12         6.3810   -0.3620    6.1760 ca        1 AQZ     -0.131000
     13 C13         7.3600   -0.5490    7.1690 ca        1 AQZ      0.078600
     14 N14         8.7030   -0.1720    6.9930 ns        1 AQZ     -0.469100
     15 C15         9.3430    0.1180    5.7970 c         1 AQZ      0.676700
     16 O16         8.7770    0.0920    4.6910 o         1 AQZ     -0.565100
     17 C17        10.7870    0.4960    5.9140 ca        1 AQZ     -0.088600
     18 C18        11.2490    1.6040    5.1990 ca        1 AQZ     -0.224300
     19 C19        12.6130    1.9240    5.3040 ca        1 AQZ      0.420200
     20 N20        13.4970    1.2410    6.0450 nb        1 AQZ     -0.696000
     21 C21        13.0490    0.1430    6.7330 ca        1 AQZ      0.613200
     22 C22        11.6770   -0.2510    6.6850 ca        1 AQZ     -0.244300
     23 N23        13.9600   -0.6860    7.4550 nh        1 AQZ     -0.727300
     24 C24        15.3810   -0.4420    7.2340 c3        1 AQZ      0.147800
     25 C25        16.2500   -1.4780    7.9600 c3        1 AQZ      0.122900
     26 O26        15.9280   -1.5580    9.3440 os        1 AQZ     -0.412600
     27 C27        14.5550   -1.8540    9.5580 c3        1 AQZ      0.122900
     28 C28        13.6410   -0.8290    8.8720 c3        1 AQZ      0.147800
     29 C29         6.9830   -1.1250    8.4060 ca        1 AQZ     -0.191000
     30 C30         5.6660   -1.4980    8.6250 ca        1 AQZ     -0.088000
     31 C31         4.6790   -1.3180    7.6530 ca        1 AQZ     -0.138300
     32 C32         3.2860   -1.7330    7.9390 c3        1 AQZ     -0.052800
     33 C33         2.7970    0.6280    3.6870 ca        1 AQZ     -0.276600
     34 C34         2.0770   -0.5100    3.2610 ca        1 AQZ     -0.155000
     35 C35         1.1350   -0.4110    2.2550 ca        1 AQZ      0.081100
     36 O36         0.3730   -1.4700    1.8010 os        1 AQZ     -0.340900
     37 C37         0.8810   -2.7790    2.0990 c3        1 AQZ      0.127400
     38 C38         0.0910   -3.7160    1.1720 c3        1 AQZ      0.162800
     39 N39         0.3520   -5.1120    1.4720 n3        1 AQZ     -0.725600
     40 C40        -0.0560   -6.0260    0.4020 c3        1 AQZ      0.158300
     41 C41        -0.9370   -7.1410    0.9880 c3        1 AQZ     -0.093900
     42 C42        -1.0540   -6.8510    2.4780 c3        1 AQZ     -0.093900
     43 C43        -0.2310   -5.5790    2.7310 c3        1 AQZ      0.158300
     44 H11        -1.6080    0.1980    1.6760 h1        1 AQZ      0.047367
     45 H12A       -1.9170    0.8650   -0.0130 h1        1 AQZ      0.047367
     46 H13        -1.0390   -0.7390    0.2080 h1        1 AQZ      0.047367
     47 H4          1.3620    2.9480    1.5560 ha        1 AQZ      0.173000
     48 H7          4.7610    3.7650    4.6740 h5        1 AQZ      0.053100
     49 H10         3.2960   -1.2140    5.4710 hn        1 AQZ      0.429800
     50 H12         6.6580    0.0830    5.2040 ha        1 AQZ      0.188000
     51 H14         9.2550   -0.1540    7.8220 hn        1 AQZ      0.319500
     52 H18        10.5700    2.1920    4.5660 ha        1 AQZ      0.167000
     53 H19        13.0300    2.7920    4.7600 h4        1 AQZ      0.030100
     54 H22        11.3410   -1.1530    7.2160 ha        1 AQZ      0.151000
     55 H241       15.5840   -0.5150    6.1300 h1        1 AQZ      0.053950
     56 H242       15.6850    0.5860    7.5840 h1        1 AQZ      0.053950
     57 H251       17.3230   -1.1550    7.9410 h1        1 AQZ      0.057450
     58 H252       16.1420   -2.4910    7.4900 h1        1 AQZ      0.057450
     59 H271       14.4240   -1.7960   10.6710 h1        1 AQZ      0.057450
     60 H272       14.3310   -2.8910    9.1950 h1        1 AQZ      0.057450
     61 H281       12.5770   -1.1790    8.9720 h1        1 AQZ      0.053950
     62 H282       13.7410    0.1570    9.4120 h1        1 AQZ      0.053950
     63 H29         7.7240   -1.2800    9.2040 ha        1 AQZ      0.130000
     64 H30         5.3900   -1.9460    9.5930 ha        1 AQZ      0.133000
     65 H321        2.9810   -2.5800    7.2740 hc        1 AQZ      0.042700
     66 H322        2.5760   -0.8820    7.7790 hc        1 AQZ      0.042700
     67 H323        3.1790   -2.0740    8.9980 hc        1 AQZ      0.042700
     68 H341        2.2800   -1.4950    3.7070 ha        1 AQZ      0.141000
     69 H371        1.9800   -2.8310    1.8860 h1        1 AQZ      0.049700
     70 H372        0.6870   -3.0030    3.1800 h1        1 AQZ      0.049700
     71 H381        0.4160   -3.5110    0.1130 h1        1 AQZ      0.046700
     72 H382       -1.0030   -3.4460    1.2490 h1        1 AQZ      0.046700
     73 H401       -0.6030   -5.4980   -0.4270 h1        1 AQZ      0.044450
     74 H402        0.8870   -6.4590   -0.0310 h1        1 AQZ      0.044450
     75 H411       -0.4690   -8.1390    0.8080 hc        1 AQZ      0.048700
     76 H412       -1.9410   -7.1430    0.4980 hc        1 AQZ      0.048700
     77 H421       -0.6530   -7.7000    3.0850 hc        1 AQZ      0.048700
     78 H422       -2.1190   -6.6940    2.7740 hc        1 AQZ      0.048700
     79 H431        0.6250   -5.8000    3.4260 h1        1 AQZ      0.044450
     80 H432       -0.8730   -4.7930    3.2180 h1        1 AQZ      0.044450
@<TRIPOS>BOND
     1    1    2 1   
     2    1   44 1   
     3    1   45 1   
     4    1   46 1   
     5    2    3 1   
     6    3    4 ar  
     7    3   35 ar  
     8    4    5 ar  
     9    4   47 1   
    10    5    6 ar  
    11    5   33 ar  
    12    6    7 ar  
    13    7    8 ar  
    14    7   48 1   
    15    8    9 ar  
    16    9   10 1   
    17    9   33 ar  
    18   10   11 1   
    19   10   49 1   
    20   11   12 ar  
    21   11   31 ar  
    22   12   13 ar  
    23   12   50 1   
    24   13   14 1   
    25   13   29 ar  
    26   14   15 1   
    27   14   51 1   
    28   15   16 2   
    29   15   17 1   
    30   17   18 ar  
    31   17   22 ar  
    32   18   19 ar  
    33   18   52 1   
    34   19   20 ar  
    35   19   53 1   
    36   20   21 ar  
    37   21   22 ar  
    38   21   23 1   
    39   22   54 1   
    40   23   24 1   
    41   23   28 1   
    42   24   25 1   
    43   24   55 1   
    44   24   56 1   
    45   25   26 1   
    46   25   57 1   
    47   25   58 1   
    48   26   27 1   
    49   27   28 1   
    50   27   59 1   
    51   27   60 1   
    52   28   61 1   
    53   28   62 1   
    54   29   30 ar  
    55   29   63 1   
    56   30   31 ar  
    57   30   64 1   
    58   31   32 1   
    59   32   65 1   
    60   32   66 1   
    61   32   67 1   
    62   33   34 ar  
    63   34   35 ar  
    64   34   68 1   
    65   35   36 1   
    66   36   37 1   
    67   37   38 1   
    68   37   69 1   
    69   37   70 1   
    70   38   39 1   
    71   38   71 1   
    72   38   72 1   
    73   39   40 1   
    74   39   43 1   
    75   40   41 1   
    76   40   73 1   
    77   40   74 1   
    78   41   42 1   
    79   41   75 1   
    80   41   76 1   
    81   42   43 1   
    82   42   77 1   
    83   42   78 1   
    84   43   79 1   
    85   43   80 1   
@<TRIPOS>SUBSTRUCTURE
     1 AQZ         1 TEMP              0 ****  ****    0 ROOT
