@<TRIPOS>MOLECULE
AQZ
   82    87     1     0     0
SMALL
bcc


@<TRIPOS>ATOM
      1 C1          0.7330   -0.1790   -0.5740 c3        1 AQZ      0.116700
      2 O2          1.6100    0.7590    0.0560 os        1 AQZ     -0.292900
      3 C3          2.3900    0.3630    1.1010 ca        1 AQZ      0.181100
      4 C4          3.3570    1.2830    1.4700 ca        1 AQZ     -0.202300
      5 C5          4.2240    1.0390    2.5750 ca        1 AQZ      0.453600
      6 N6          5.1830    1.9630    2.9090 nb        1 AQZ     -0.599000
      7 C7          5.9740    1.6760    3.9480 ca        1 AQZ      0.646900
      8 N8          5.9250    0.5520    4.7390 nb        1 AQZ     -0.706000
      9 C9          4.9780   -0.3440    4.4170 ca        1 AQZ      0.490200
     10 N10         4.8870   -1.5780    5.2520 n4        1 AQZ     -0.624100
     11 C11         5.3280   -1.4160    6.6430 ca        1 AQZ     -0.018400
     12 C12         6.7060   -1.3530    6.9150 ca        1 AQZ     -0.049000
     13 C13         7.1330   -1.2030    8.2430 ca        1 AQZ     -0.037400
     14 N14         8.5610   -1.1350    8.5500 n4        1 AQZ     -0.566200
     15 C15         9.0010    0.2580    9.0730 c         1 AQZ      0.591700
     16 O16         8.3820    0.6680   10.0350 o         1 AQZ     -0.385100
     17 C17        10.1030    0.8540    8.3100 ca        1 AQZ     -0.110600
     18 C18        10.0100    2.2010    7.9720 ca        1 AQZ     -0.244300
     19 C19        11.1120    2.7560    7.2730 ca        1 AQZ      0.472200
     20 N20        12.2020    2.0860    6.9250 nb        1 AQZ     -0.667000
     21 C21        12.3010    0.7390    7.2560 ca        1 AQZ      0.697200
     22 C22        11.2350    0.1010    7.9740 ca        1 AQZ     -0.336300
     23 N23        13.4080    0.0190    6.8180 nh        1 AQZ     -0.727300
     24 C24        14.5580    0.7630    6.3110 c3        1 AQZ      0.161800
     25 C25        15.6650   -0.1250    5.7320 c3        1 AQZ      0.116900
     26 O26        15.9790   -1.2020    6.6050 os        1 AQZ     -0.382600
     27 C27        14.8530   -2.0330    6.8210 c3        1 AQZ      0.116900
     28 C28        13.6810   -1.2620    7.4480 c3        1 AQZ      0.161800
     29 C29         6.1910   -1.1130    9.2890 ca        1 AQZ     -0.042000
     30 C30         4.8350   -1.1690    8.9940 ca        1 AQZ     -0.096000
     31 C31         4.3710   -1.3120    7.6790 ca        1 AQZ      0.019700
     32 C32         2.9140   -1.3530    7.4210 c3        1 AQZ     -0.109800
     33 C33         4.0710   -0.1940    3.3180 ca        1 AQZ     -0.222600
     34 C34         3.0890   -1.1300    2.9200 ca        1 AQZ     -0.256000
     35 C35         2.2630   -0.8750    1.8390 ca        1 AQZ      0.176100
     36 O36         1.3000   -1.7300    1.3900 os        1 AQZ     -0.311900
     37 C37         1.1310   -2.9710    2.1030 c3        1 AQZ      0.120400
     38 C38         0.0400   -3.7240    1.3180 c3        1 AQZ      0.169800
     39 N39        -0.3240   -4.9400    2.0170 n3        1 AQZ     -0.741600
     40 C40        -0.7570   -6.0340    1.1410 c3        1 AQZ      0.158800
     41 C41        -2.1400   -6.5310    1.5890 c3        1 AQZ     -0.095400
     42 C42        -2.5180   -5.7000    2.8080 c3        1 AQZ     -0.095400
     43 C43        -1.3330   -4.7560    3.0640 c3        1 AQZ      0.158800
     44 H11        -0.1000   -0.4510    0.1190 h1        1 AQZ      0.070367
     45 H12A        0.3510    0.4040   -1.4540 h1        1 AQZ      0.070367
     46 H13         1.2950   -1.0850   -0.9040 h1        1 AQZ      0.070367
     47 H4          3.4550    2.2240    0.8960 ha        1 AQZ      0.208000
     48 H7          6.7590    2.4180    4.2170 h5        1 AQZ      0.088100
     49 H10         5.4610   -2.3030    4.7990 hn        1 AQZ      0.472300
     50 H12         7.4390   -1.4030    6.0880 ha        1 AQZ      0.176000
     51 H14         9.1130   -1.3550    7.7110 hn        1 AQZ      0.467800
     52 H18         9.1480    2.8240    8.2450 ha        1 AQZ      0.174000
     53 H19        11.1050    3.8310    6.9920 h4        1 AQZ      0.063100
     54 H22        11.3370   -0.9350    8.3180 ha        1 AQZ      0.139000
     55 H241       14.9930    1.3890    7.1440 h1        1 AQZ      0.062950
     56 H242       14.2120    1.4530    5.4900 h1        1 AQZ      0.062950
     57 H251       15.3730   -0.5220    4.7240 h1        1 AQZ      0.074200
     58 H252       16.6180    0.4640    5.6550 h1        1 AQZ      0.074200
     59 H271       14.5340   -2.5070    5.8550 h1        1 AQZ      0.074200
     60 H272       15.2110   -2.8180    7.5400 h1        1 AQZ      0.074200
     61 H281       13.8920   -1.1100    8.5460 h1        1 AQZ      0.062950
     62 H282       12.7700   -1.9170    7.3430 h1        1 AQZ      0.062950
     63 H29         6.5150   -0.9770   10.3390 ha        1 AQZ      0.195000
     64 H30         4.1010   -1.0910    9.8200 ha        1 AQZ      0.198000
     65 H321        2.6080   -0.5410    6.7120 hc        1 AQZ      0.088033
     66 H322        2.3330   -1.2010    8.3690 hc        1 AQZ      0.088033
     67 H323        2.6080   -2.3460    7.0020 hc        1 AQZ      0.088033
     68 H341        2.9770   -2.0840    3.4530 ha        1 AQZ      0.128000
     69 H371        2.0960   -3.5390    2.0970 h1        1 AQZ      0.048200
     70 H372        0.8080   -2.7470    3.1520 h1        1 AQZ      0.048200
     71 H381       -0.8260   -3.0180    1.1610 h1        1 AQZ      0.057700
     72 H382        0.4610   -3.9750    0.3030 h1        1 AQZ      0.057700
     73 H401        0.0060   -6.8520    1.2490 h1        1 AQZ      0.045700
     74 H402       -0.7870   -5.7320    0.0590 h1        1 AQZ      0.045700
     75 H411       -2.8880   -6.4030    0.7680 hc        1 AQZ      0.060700
     76 H412       -2.0970   -7.6190    1.8420 hc        1 AQZ      0.060700
     77 H421       -2.6980   -6.3490    3.6990 hc        1 AQZ      0.060700
     78 H422       -3.4510   -5.1140    2.6200 hc        1 AQZ      0.060700
     79 H431       -1.6880   -3.6920    3.1310 h1        1 AQZ      0.045700
     80 H432       -0.8390   -5.0140    4.0400 h1        1 AQZ      0.045700
     81 H102        3.9000   -1.8810    5.2480 hn        1 AQZ      0.472300
     82 H142        8.7690   -1.8330    9.2770 hn        1 AQZ      0.467800
@<TRIPOS>BOND
     1    1    2 1   
     2    1   44 1   
     3    1   45 1   
     4    1   46 1   
     5    2    3 1   
     6    3    4 ar  
     7    3   35 ar  
     8    4    5 ar  
     9    4   47 1   
    10    5    6 ar  
    11    5   33 ar  
    12    6    7 ar  
    13    7    8 ar  
    14    7   48 1   
    15    8    9 ar  
    16    9   10 1   
    17    9   33 ar  
    18   10   11 1   
    19   10   49 1   
    20   10   81 1   
    21   11   12 ar  
    22   11   31 ar  
    23   12   13 ar  
    24   12   50 1   
    25   13   14 1   
    26   13   29 ar  
    27   14   15 1   
    28   14   51 1   
    29   14   82 1   
    30   15   16 2   
    31   15   17 1   
    32   17   18 ar  
    33   17   22 ar  
    34   18   19 ar  
    35   18   52 1   
    36   19   20 ar  
    37   19   53 1   
    38   20   21 ar  
    39   21   22 ar  
    40   21   23 1   
    41   22   54 1   
    42   23   24 1   
    43   23   28 1   
    44   24   25 1   
    45   24   55 1   
    46   24   56 1   
    47   25   26 1   
    48   25   57 1   
    49   25   58 1   
    50   26   27 1   
    51   27   28 1   
    52   27   59 1   
    53   27   60 1   
    54   28   61 1   
    55   28   62 1   
    56   29   30 ar  
    57   29   63 1   
    58   30   31 ar  
    59   30   64 1   
    60   31   32 1   
    61   32   65 1   
    62   32   66 1   
    63   32   67 1   
    64   33   34 ar  
    65   34   35 ar  
    66   34   68 1   
    67   35   36 1   
    68   36   37 1   
    69   37   38 1   
    70   37   69 1   
    71   37   70 1   
    72   38   39 1   
    73   38   71 1   
    74   38   72 1   
    75   39   40 1   
    76   39   43 1   
    77   40   41 1   
    78   40   73 1   
    79   40   74 1   
    80   41   42 1   
    81   41   75 1   
    82   41   76 1   
    83   42   43 1   
    84   42   77 1   
    85   42   78 1   
    86   43   79 1   
    87   43   80 1   
@<TRIPOS>SUBSTRUCTURE
     1 AQZ         1 TEMP              0 ****  ****    0 ROOT
