@<TRIPOS>MOLECULE
AQZ
   80    77     1     0     0
SMALL
bcc


@<TRIPOS>ATOM
      1 C1         -2.3220    3.1410   -5.6630 c3        1 AQZ     -0.081000
      2 O2         -3.4840    2.5130   -5.3040 os        1 AQZ     -0.201000
      3 C3         -3.4010    1.8110   -4.0850 c2        1 AQZ      0.090000
      4 C4         -3.7480    2.8180   -3.1940 c1        1 AQZ     -0.199000
      5 C5         -3.6530    2.5930   -1.8050 c1        1 AQZ      0.069000
      6 N6         -3.9180    3.6100   -0.9260 n1        1 AQZ     -0.196000
      7 C7         -3.7500    3.4170    0.4020 c1        1 AQZ      0.011000
      8 N8         -3.3120    2.1960    0.8740 n1        1 AQZ     -0.247000
      9 C9         -3.0520    1.1990    0.0170 c1        1 AQZ      0.184000
     10 N10        -2.6680   -0.0590    0.5950 n3        1 AQZ     -0.248000
     11 C11        -2.0690   -0.0970    1.9260 c2        1 AQZ      0.078000
     12 C12        -0.7160    0.2040    2.0850 c2        1 AQZ     -0.163000
     13 C13        -0.0920    0.0080    3.3350 c1        1 AQZ      0.086000
     14 N14         1.2850    0.3290    3.5050 n2        1 AQZ     -0.317000
     15 C15         2.2410   -0.7210    3.7570 c2        1 AQZ      0.352000
     16 O16         1.8730   -1.8660    3.8210 o         1 AQZ     -0.340000
     17 C17         3.7370   -0.3640    4.0630 c2        1 AQZ     -0.068000
     18 C18         4.5410    0.0990    3.0720 c2        1 AQZ     -0.195000
     19 C19         5.8930    0.3650    3.3320 c1        1 AQZ     -0.043000
     20 N20         6.4030    0.1570    4.5820 n1        1 AQZ     -0.172000
     21 C21         5.6030   -0.3050    5.5730 c1        1 AQZ      0.097000
     22 C22         4.2480   -0.5710    5.3160 c1        1 AQZ     -0.151000
     23 N23         6.1290   -0.4460    6.9120 n3        1 AQZ     -0.218000
     24 C24         6.6640    0.8000    7.3370 c3        1 AQZ     -0.089000
     25 C25         7.3730    0.6970    8.6650 c3        1 AQZ     -0.027500
     26 O26         8.3520   -0.3670    8.6860 os        1 AQZ     -0.269000
     27 C27         7.8200   -1.6070    8.2640 c3        1 AQZ     -0.027500
     28 C28         7.1090   -1.5080    6.9350 c3        1 AQZ     -0.089000
     29 C29        -0.8250   -0.4850    4.4080 c2        1 AQZ     -0.161000
     30 C30        -2.1830   -0.7870    4.2480 c1        1 AQZ     -0.090000
     31 C31        -2.8040   -0.5910    3.0020 c1        1 AQZ     -0.129000
     32 C32        -4.2750   -0.9260    2.8250 c3        1 AQZ     -0.179000
     33 C33        -3.2230    1.3930   -1.3410 c1        1 AQZ     -0.177000
     34 C34        -2.8710    0.3740   -2.2450 c1        1 AQZ     -0.090000
     35 C35        -2.9640    0.5950   -3.6120 c2        1 AQZ      0.031000
     36 O36        -3.1340   -0.3770   -4.6110 os        1 AQZ     -0.225000
     37 C37        -1.9190   -0.7090   -5.3150 c3        1 AQZ     -0.024000
     38 C38        -2.2290   -1.6850   -6.4330 c3        1 AQZ     -0.073000
     39 N39        -2.9020   -0.9840   -7.5210 n3        1 AQZ     -0.246000
     40 C40        -4.3440   -1.5510   -7.7120 c3        1 AQZ     -0.084000
     41 C41        -4.4680   -1.8750   -9.2500 c3        1 AQZ     -0.176000
     42 C42        -3.4220   -1.3060   -9.8000 c3        1 AQZ     -0.176000
     43 C43        -2.2840   -1.2470   -8.6520 c3        1 AQZ     -0.084000
     44 H11        -1.6830    3.0630   -4.9550 h1        1 AQZ      0.090333
     45 H12A       -2.5040    4.0880   -5.8350 h1        1 AQZ      0.090333
     46 H13        -1.9670    2.7280   -6.4670 h1        1 AQZ      0.090333
     47 H4         -4.0490    3.6800   -3.5290 ha        1 AQZ      0.163000
     48 H7         -3.9320    4.1210    1.0090 ha        1 AQZ      0.190000
     49 H10        -2.7710   -0.8590    0.0990 hn        1 AQZ      0.231000
     50 H12        -0.2110    0.5230    1.3460 ha        1 AQZ      0.150000
     51 H14         1.5700    1.1690    3.3600 hn        1 AQZ      0.238000
     52 H18         4.1630    0.2530    2.1430 ha        1 AQZ      0.150000
     53 H19         6.4610    0.6920    2.6300 ha        1 AQZ      0.164000
     54 H22         3.6650   -0.9070    6.0360 ha        1 AQZ      0.167000
     55 H241        7.2710    1.1050    6.6930 h1        1 AQZ      0.096250
     56 H242        5.9050    1.4730    7.4190 h1        1 AQZ      0.096250
     57 H251        6.7240    0.5370    9.3470 h1        1 AQZ      0.096750
     58 H252        7.8210    1.5400    8.8480 h1        1 AQZ      0.096750
     59 H271        8.5690   -2.2700    8.1810 h1        1 AQZ      0.096750
     60 H272        7.1880   -1.9260    8.9390 h1        1 AQZ      0.096750
     61 H281        7.7670   -1.3430    6.2390 h1        1 AQZ      0.096250
     62 H282        6.6540   -2.3690    6.7500 h1        1 AQZ      0.096250
     63 H29        -0.3860   -0.6220    5.2880 ha        1 AQZ      0.175000
     64 H30        -2.6780   -1.1180    4.9720 ha        1 AQZ      0.137000
     65 H321       -4.6760   -1.1070    3.6960 hc        1 AQZ      0.083333
     66 H322       -4.3620   -1.7080    2.2620 hc        1 AQZ      0.083333
     67 H323       -4.7450   -0.1470    2.3930 hc        1 AQZ      0.083333
     68 H341       -2.5520   -0.5210   -1.8970 ha        1 AQZ      0.147000
     69 H371       -1.2900   -1.1110   -4.7000 h1        1 AQZ      0.095500
     70 H372       -1.5210    0.1200   -5.7010 h1        1 AQZ      0.095500
     71 H381       -2.8140   -2.4120   -6.0900 h1        1 AQZ      0.082500
     72 H382       -1.3730   -2.0790   -6.7730 h1        1 AQZ      0.082500
     73 H401       -4.4600   -2.3560   -7.1900 h1        1 AQZ      0.089750
     74 H402       -5.0190   -0.8700   -7.4490 h1        1 AQZ      0.089750
     75 H411       -4.4490   -2.8550   -9.4010 hc        1 AQZ      0.085000
     76 H412       -5.3140   -1.4820   -9.6240 hc        1 AQZ      0.085000
     77 H421       -3.1000   -1.8500  -10.5730 hc        1 AQZ      0.085000
     78 H422       -3.6440   -0.4100  -10.0930 hc        1 AQZ      0.085000
     79 H431       -1.6580   -0.5600   -8.8480 h1        1 AQZ      0.089750
     80 H432       -1.8370   -2.0970   -8.5920 h1        1 AQZ      0.089750
@<TRIPOS>BOND
     1    1    2 1   
     2    1   44 1   
     3    1   45 1   
     4    1   46 1   
     5    2    3 1   
     6    3    4 1   
     7    3   35 1   
     8    4   47 1   
     9    5    6 1   
    10    5   33 1   
    11    7    8 1   
    12    7   48 1   
    13    9   10 1   
    14    9   33 1   
    15   10   11 1   
    16   10   49 1   
    17   11   12 1   
    18   11   31 1   
    19   12   13 1   
    20   12   50 1   
    21   13   29 1   
    22   14   15 1   
    23   14   51 1   
    24   15   16 1   
    25   15   17 1   
    26   17   18 1   
    27   17   22 1   
    28   18   19 1   
    29   18   52 1   
    30   19   53 1   
    31   20   21 1   
    32   21   23 1   
    33   22   54 1   
    34   23   24 1   
    35   23   28 1   
    36   24   25 1   
    37   24   55 1   
    38   24   56 1   
    39   25   26 1   
    40   25   57 1   
    41   25   58 1   
    42   26   27 1   
    43   27   28 1   
    44   27   59 1   
    45   27   60 1   
    46   28   61 1   
    47   28   62 1   
    48   29   30 1   
    49   29   63 1   
    50   30   64 1   
    51   31   32 1   
    52   32   65 1   
    53   32   66 1   
    54   32   67 1   
    55   34   35 1   
    56   34   68 1   
    57   35   36 1   
    58   36   37 1   
    59   37   38 1   
    60   37   69 1   
    61   37   70 1   
    62   38   39 1   
    63   38   71 1   
    64   38   72 1   
    65   39   40 1   
    66   39   43 1   
    67   40   41 1   
    68   40   73 1   
    69   40   74 1   
    70   41   42 1   
    71   41   75 1   
    72   41   76 1   
    73   42   43 1   
    74   42   77 1   
    75   42   78 1   
    76   43   79 1   
    77   43   80 1   
@<TRIPOS>SUBSTRUCTURE
     1 AQZ         1 TEMP              0 ****  ****    0 ROOT
