@<TRIPOS>MOLECULE
AR0
   46    45     1     0     0
SMALL
bcc


@<TRIPOS>ATOM
      1 N          -1.1590    1.9030   -1.6830 n3        1 AR0     -0.908800
      2 C1         -1.1800    1.0510   -0.5170 c3        1 AR0      0.144500
      3 C2          0.0800    0.1420   -0.4300 c3        1 AR0      0.114100
      4 O1         -0.0120   -0.6540    0.7380 oh        1 AR0     -0.600800
      5 C3         -2.4150    0.1350   -0.3990 c3        1 AR0     -0.130400
      6 C4         -3.6810    0.9230   -0.1390 c3        1 AR0     -0.092400
      7 C5         -4.8140   -0.0570    0.1720 c3        1 AR0      0.016300
      8 N2         -6.0750    0.6140    0.4240 nh        1 AR0     -0.401100
      9 C6         -7.2360   -0.0560    0.7360 cz        1 AR0      0.522300
     10 N3         -7.2580   -1.4300    0.8170 nh        1 AR0     -0.506200
     11 N4         -8.3940    0.6570    0.9700 nh        1 AR0     -0.506200
     12 C7          1.3730    0.9870   -0.4380 c3        1 AR0      0.189800
     13 N5          2.5930    0.2400   -0.5900 na        1 AR0     -0.533200
     14 C8          3.0810   -0.0370   -1.8740 cc        1 AR0      0.040000
     15 C9          4.0430   -0.9660   -2.1030 cd        1 AR0     -0.185500
     16 C10         4.5850   -1.7800   -1.0240 cd        1 AR0     -0.022000
     17 C11         4.0050   -1.5160    0.2860 cd        1 AR0     -0.185500
     18 C12         3.0440   -0.5740    0.4560 cc        1 AR0      0.040000
     19 C13         5.5440   -2.7000   -1.2210 c2        1 AR0     -0.250000
     20 C           2.1530    1.5930    3.8570 c1        1 AR0      0.895000
     21 O           1.4810    1.1990    2.9520 o         1 AR0     -0.446500
     22 OXT         2.8140    1.9860    4.7590 o         1 AR0     -0.446500
     23 H          -1.0350    1.3750   -2.5230 hn        1 AR0      0.355800
     24 H1         -1.1670    1.7320    0.3860 h1        1 AR0      0.062700
     25 H3         -2.5260   -0.4730   -1.3350 hc        1 AR0      0.067700
     26 H4         -2.2340   -0.5820    0.4470 hc        1 AR0      0.067700
     27 H5         -3.5220    1.6200    0.7270 hc        1 AR0      0.060700
     28 H6         -3.9440    1.5440   -1.0350 hc        1 AR0      0.060700
     29 H7         -4.9390   -0.7580   -0.7050 h1        1 AR0      0.070200
     30 H8         -4.5310   -0.6620    1.0820 h1        1 AR0      0.070200
     31 H9         -6.0820    1.6120    0.3760 hn        1 AR0      0.323700
     32 H10        -6.4340   -1.9630    0.6560 hn        1 AR0      0.327700
     33 H11        -8.0980   -1.9150    1.0420 hn        1 AR0      0.327700
     34 H12        -9.2450    0.1910    1.1930 hn        1 AR0      0.327700
     35 H13        -8.4030    1.6500    0.9150 hn        1 AR0      0.327700
     36 H14         1.3210    1.7440   -1.2700 h1        1 AR0      0.076200
     37 H15         1.4260    1.5450    0.5440 h1        1 AR0      0.076200
     38 H16         2.6630    0.5890   -2.6810 h4        1 AR0      0.140500
     39 H17         4.4420   -1.1160   -3.1150 ha        1 AR0      0.143000
     40 H18         4.3710   -2.1000    1.1410 ha        1 AR0      0.143000
     41 H19         2.5760   -0.3710    1.4360 h4        1 AR0      0.140500
     42 H20         5.9470   -3.3070   -0.4020 ha        1 AR0      0.114500
     43 H21         5.9750   -2.8900   -2.2100 ha        1 AR0      0.114500
     44 H2         -1.9970    2.4440   -1.7460 hn        1 AR0      0.355800
     45 H24         0.0730   -0.6010   -1.2770 h1        1 AR0      0.084700
     46 H25         0.2720   -0.1150    1.4890 ho        1 AR0      0.414000
@<TRIPOS>BOND
     1    1    2 1   
     2    1   23 1   
     3    1   44 1   
     4    2    3 1   
     5    2    5 1   
     6    2   24 1   
     7    3    4 1   
     8    3   12 1   
     9    3   45 1   
    10    4   46 1   
    11    5    6 1   
    12    5   25 1   
    13    5   26 1   
    14    6    7 1   
    15    6   27 1   
    16    6   28 1   
    17    7    8 1   
    18    7   29 1   
    19    7   30 1   
    20    8    9 2   
    21    8   31 1   
    22    9   10 1   
    23    9   11 1   
    24   10   32 1   
    25   10   33 1   
    26   11   34 1   
    27   11   35 1   
    28   12   13 1   
    29   12   36 1   
    30   12   37 1   
    31   13   14 1   
    32   13   18 1   
    33   14   15 2   
    34   14   38 1   
    35   15   16 1   
    36   15   39 1   
    37   16   17 1   
    38   16   19 2   
    39   17   18 2   
    40   17   40 1   
    41   18   41 1   
    42   19   42 1   
    43   19   43 1   
    44   20   21 2   
    45   20   22 2   
@<TRIPOS>SUBSTRUCTURE
     1 AR0         1 TEMP              0 ****  ****    0 ROOT
