@<TRIPOS>MOLECULE
AR0
   46    43     1     0     0
SMALL
bcc


@<TRIPOS>ATOM
      1 N          -2.2680   -0.3730   -0.8850 n3        1 AR0     -0.345000
      2 C1         -0.8120   -0.3690   -0.9070 c3        1 AR0     -0.020000
      3 C2         -0.2940   -0.3680    0.4690 c3        1 AR0      0.008000
      4 O1          1.1020   -0.5160    0.4390 oh        1 AR0     -0.346000
      5 C3         -0.3200    0.8730   -1.6370 c3        1 AR0     -0.205000
      6 C4         -0.3170    0.6030   -3.1240 c3        1 AR0     -0.173000
      7 C5          0.3330    1.7810   -3.8620 c3        1 AR0     -0.043000
      8 N2          0.1590    1.6040   -5.2970 n3        1 AR0     -0.315000
      9 C6          0.5340    2.6720   -6.2390 c2        1 AR0      0.390000
     10 N3          1.8950    2.8780   -6.5750 n3        1 AR0     -0.363000
     11 N4         -0.3930    3.4350   -6.7710 n2        1 AR0     -0.373000
     12 C7         -0.9230   -1.5500    1.2590 c3        1 AR0     -0.058000
     13 N5         -0.4300   -1.5310    2.6450 n3        1 AR0     -0.217000
     14 C8         -0.9820   -0.6930    3.5500 c2        1 AR0     -0.048000
     15 C9         -0.4930   -0.6620    4.8740 c1        1 AR0     -0.186000
     16 C10         0.5590   -1.4950    5.2430 c1        1 AR0     -0.027000
     17 C11         1.1150   -2.3390    4.3270 c1        1 AR0     -0.187000
     18 C12         0.6310   -2.3690    3.0210 c1        1 AR0     -0.062000
     19 C13         1.1210   -1.4450    6.6880 c3        1 AR0     -0.246000
     20 C           0.4900   -2.4950    7.4900 c2        1 AR0      0.420000
     21 O           0.8800   -3.6720    7.3870 o         1 AR0     -0.209500
     22 OXT        -0.3630   -2.1950    8.3480 o         1 AR0     -0.209500
     23 H          -2.5990   -1.0330   -1.5110 hn        1 AR0      0.151500
     24 H1         -0.4920   -1.1730   -1.3770 h1        1 AR0      0.114000
     25 H3         -0.9160    1.6290   -1.4400 hc        1 AR0      0.108500
     26 H4          0.5490    1.0790   -1.3530 hc        1 AR0      0.108500
     27 H5         -1.2350    0.4900   -3.4350 hc        1 AR0      0.100000
     28 H6          0.2030   -0.2340   -3.3090 hc        1 AR0      0.100000
     29 H7          1.2570    1.8120   -3.6550 h1        1 AR0      0.110000
     30 H8         -0.0730    2.5820   -3.5960 h1        1 AR0      0.110000
     31 H9         -0.1800    0.8080   -5.6250 hn        1 AR0      0.274000
     32 H10         2.5070    2.3750   -6.2370 hn        1 AR0      0.278500
     33 H11         2.1000    3.4280   -7.2620 hn        1 AR0      0.278500
     34 H12        -1.3170    3.3050   -6.5520 DU        1 AR0      0.277000
     35 H13        -0.1460    4.1010   -7.3600 hn        1 AR0      0.277000
     36 H14        -1.9010   -1.4630    1.2570 h1        1 AR0      0.124500
     37 H15        -0.6680   -2.4030    0.8310 h1        1 AR0      0.124500
     38 H16        -1.7390   -0.0940    3.2820 h4        1 AR0      0.144000
     39 H17        -0.8680   -0.0330    5.5200 ha        1 AR0      0.145000
     40 H18         1.8780   -2.9440    4.5960 ha        1 AR0      0.144000
     41 H19         1.0310   -2.9790    2.3640 ha        1 AR0      0.154000
     42 H20         0.9300   -0.5700    7.0840 hc        1 AR0      0.115500
     43 H21         2.0830   -1.5900    6.6670 hc        1 AR0      0.115500
     44 H2         -2.5680    0.4240   -1.1130 hn        1 AR0      0.151500
     45 H24        -0.5400    0.5320    0.9340 h1        1 AR0      0.084000
     46 H25         1.4840    0.1750    0.8520 ho        1 AR0      0.225000
@<TRIPOS>BOND
     1    1    2 1   
     2    1   23 1   
     3    1   44 1   
     4    2    3 1   
     5    2    5 1   
     6    2   24 1   
     7    3    4 1   
     8    3   12 1   
     9    3   45 1   
    10    4   46 1   
    11    5    6 1   
    12    5   25 1   
    13    5   26 1   
    14    6    7 1   
    15    6   27 1   
    16    6   28 1   
    17    7    8 1   
    18    7   29 1   
    19    7   30 1   
    20    8    9 1   
    21    8   31 1   
    22    9   10 1   
    23    9   11 1   
    24   10   32 1   
    25   10   33 1   
    26   11   35 1   
    27   12   13 1   
    28   12   36 1   
    29   12   37 1   
    30   13   14 1   
    31   13   18 1   
    32   14   15 1   
    33   14   38 1   
    34   15   39 1   
    35   16   17 1   
    36   16   19 1   
    37   17   40 1   
    38   18   41 1   
    39   19   20 1   
    40   19   42 1   
    41   19   43 1   
    42   20   21 1   
    43   20   22 1   
@<TRIPOS>SUBSTRUCTURE
     1 AR0         1 TEMP              0 ****  ****    0 ROOT
