@<TRIPOS>MOLECULE
AR1
   64    66     1     0     0
SMALL
bcc


@<TRIPOS>ATOM
      1 CA         -0.5850    0.0700   -0.0090 c         1 AR1      0.668900
      2 OA          0.6220    0.0610   -0.2880 o         1 AR1     -0.581100
      3 N1         -1.0770    0.0600    1.2830 n         1 AR1     -0.544400
      4 C11        -0.2700    0.0380    2.4230 cc        1 AR1      0.404200
      5 N21        -0.7630    0.0280    3.7340 nc        1 AR1     -0.680000
      6 C31         0.3440    0.0060    4.5370 cd        1 AR1      0.316000
      7 N41         1.5300    0.0020    3.7790 na        1 AR1     -0.125900
      8 CN1         2.8670   -0.0190    4.2870 c3        1 AR1      0.013600
      9 C51         1.1620    0.0220    2.4470 cd        1 AR1     -0.218600
     10 C1          0.3490   -0.0130    6.0210 c         1 AR1      0.624600
     11 O1          1.4140   -0.0350    6.6700 o         1 AR1     -0.609100
     12 N2         -0.8930   -0.0050    6.6450 n         1 AR1     -0.514400
     13 C12        -1.0440   -0.0210    8.0300 cc        1 AR1      0.433200
     14 N22        -2.2800   -0.0110    8.6780 nc        1 AR1     -0.671000
     15 C32        -1.9890   -0.0340   10.0200 cd        1 AR1      0.281000
     16 N42        -0.5990   -0.0580   10.2450 na        1 AR1     -0.110900
     17 CN2         0.0570   -0.0860   11.5180 c3        1 AR1      0.008600
     18 C52         0.0120   -0.0510    9.0110 cd        1 AR1     -0.201600
     19 C2         -2.9730   -0.0340   11.1140 c         1 AR1      0.639600
     20 O2         -2.6540   -0.0580   12.3170 o         1 AR1     -0.604100
     21 N3         -4.3270   -0.0060   10.7320 n         1 AR1     -0.521400
     22 C13        -5.3700   -0.0030   11.6360 cc        1 AR1      0.503200
     23 N23        -6.7020    0.0280   11.3100 nc        1 AR1     -0.701000
     24 C33        -7.3900    0.0190   12.5310 cd        1 AR1      0.187000
     25 N43        -6.4820   -0.0180   13.6270 na        1 AR1     -0.053900
     26 CN3        -6.8400   -0.0580   15.0180 c3        1 AR1     -0.018400
     27 C53        -5.2310   -0.0330   13.1090 cd        1 AR1     -0.122600
     28 C3         -8.8010    0.0560   12.6740 c         1 AR1      0.498600
     29 O3         -9.5280    0.0660   13.6630 o         1 AR1     -0.491100
     30 NT         -9.5430    0.0910   11.3100 n4        1 AR1     -0.664800
     31 C1T       -11.0120    0.1190   11.4830 c3        1 AR1      0.080800
     32 C2T       -11.7690    0.1650   10.1410 c3        1 AR1      0.077800
     33 N3T       -13.2550    0.1090   10.3110 n4        1 AR1     -0.674400
     34 CNT       -13.8030    1.3960   10.8250 c3        1 AR1      0.077100
     35 CMT       -13.9060   -0.2500    9.0160 c3        1 AR1      0.077100
     36 HA         -1.3920    0.0880   -0.7780 h5        1 AR1      0.046200
     37 HN1        -2.0610    0.0690    1.4300 hn        1 AR1      0.330500
     38 HN11        3.5930   -0.0160    3.4320 h1        1 AR1      0.074700
     39 HN12        3.0380    0.8810    4.9380 h1        1 AR1      0.074700
     40 HN13        3.0180   -0.9400    4.9150 h1        1 AR1      0.074700
     41 H51         1.8710    0.0240    1.6140 h4        1 AR1      0.227000
     42 HN2        -1.7240    0.0130    6.0930 hn        1 AR1      0.358500
     43 HN21       -0.2360    0.8220   12.1130 h1        1 AR1      0.078033
     44 HN22       -0.2620   -1.0010   12.0870 h1        1 AR1      0.078033
     45 HN23        1.1690   -0.0990   11.3660 h1        1 AR1      0.078033
     46 H52         1.0970   -0.0650    8.8610 h4        1 AR1      0.236000
     47 HN3        -4.5550    0.0130    9.7570 hn        1 AR1      0.372500
     48 HN31       -7.1270   -1.1090   15.3010 h1        1 AR1      0.099367
     49 HN32       -7.7130    0.6250   15.2040 h1        1 AR1      0.099367
     50 HN33       -5.9630    0.2690   15.6410 h1        1 AR1      0.099367
     51 H53        -4.2990   -0.0600   13.6990 h4        1 AR1      0.264000
     52 HT         -9.2540   -0.7370   10.7750 hn        1 AR1      0.470800
     53 H1T1      -11.2640    1.0230   12.1140 hx        1 AR1      0.130700
     54 H1T2      -11.3030   -0.8000   12.0770 hx        1 AR1      0.130700
     55 H2T1      -11.4650   -0.7160    9.4980 hx        1 AR1      0.122200
     56 H2T2      -11.5220    1.1140    9.5810 hx        1 AR1      0.122200
     57 HNT       -13.4780   -0.6300   10.9960 hn        1 AR1      0.461800
     58 HNT1      -13.3350    1.6400   11.8160 hx        1 AR1      0.119700
     59 HNT2      -14.9170    1.2920   10.9570 hx        1 AR1      0.119700
     60 HNT3      -13.5960    2.2190   10.0890 hx        1 AR1      0.119700
     61 HMT1      -13.6510    0.5190    8.2380 hx        1 AR1      0.119700
     62 HMT2      -13.5520   -1.2630    8.6830 hx        1 AR1      0.119700
     63 HMT3      -15.0210   -0.2750    9.1650 hx        1 AR1      0.119700
     64 HT2        -9.2200    0.9230   10.8000 hn        1 AR1      0.470800
@<TRIPOS>BOND
     1    1    2 2   
     2    1    3 1   
     3    1   36 1   
     4    3    4 1   
     5    3   37 1   
     6    4    5 1   
     7    4    9 2   
     8    5    6 2   
     9    6    7 1   
    10    6   10 1   
    11    7    8 1   
    12    7    9 1   
    13    8   38 1   
    14    8   39 1   
    15    8   40 1   
    16    9   41 1   
    17   10   11 2   
    18   10   12 1   
    19   12   13 1   
    20   12   42 1   
    21   13   14 1   
    22   13   18 2   
    23   14   15 2   
    24   15   16 1   
    25   15   19 1   
    26   16   17 1   
    27   16   18 1   
    28   17   43 1   
    29   17   44 1   
    30   17   45 1   
    31   18   46 1   
    32   19   20 2   
    33   19   21 1   
    34   21   22 1   
    35   21   47 1   
    36   22   23 1   
    37   22   27 2   
    38   23   24 2   
    39   24   25 1   
    40   24   28 1   
    41   25   26 1   
    42   25   27 1   
    43   26   48 1   
    44   26   49 1   
    45   26   50 1   
    46   27   51 1   
    47   28   29 2   
    48   28   30 1   
    49   30   31 1   
    50   30   52 1   
    51   30   64 1   
    52   31   32 1   
    53   31   53 1   
    54   31   54 1   
    55   32   33 1   
    56   32   55 1   
    57   32   56 1   
    58   33   34 1   
    59   33   35 1   
    60   33   57 1   
    61   34   58 1   
    62   34   59 1   
    63   34   60 1   
    64   35   61 1   
    65   35   62 1   
    66   35   63 1   
@<TRIPOS>SUBSTRUCTURE
     1 AR1         1 TEMP              0 ****  ****    0 ROOT
