@<TRIPOS>MOLECULE
AR1
   63    55     1     0     0
SMALL
bcc


@<TRIPOS>ATOM
      1 CA          4.6710    0.1770   -9.6350 c1        1 AR1      0.269000
      2 OA          5.7770    0.1690   -9.0890 o         1 AR1     -0.352000
      3 N1          3.6050    0.9550   -9.0800 n2        1 AR1     -0.307000
      4 C11         3.8240    1.7250   -7.8860 c2        1 AR1     -0.009000
      5 N21         3.5840    1.3150   -6.6330 n2        1 AR1     -0.150000
      6 C31         3.8660    2.3320   -5.8020 c1        1 AR1     -0.111000
      7 N41         4.2900    3.3940   -6.5590 n2        1 AR1     -0.090000
      8 CN1         4.7600    4.6790   -6.0470 c2        1 AR1     -0.082333
      9 C51         4.2640    3.0250   -7.8300 c1        1 AR1     -0.138000
     10 C1          3.6910    2.3290   -4.2440 c1        1 AR1      0.405000
     11 O1          3.9880    3.3290   -3.5930 o         1 AR1     -0.377500
     12 N2          3.1950    1.1800   -3.5840 n3        1 AR1     -0.275000
     13 C12         3.0390    1.1880   -2.1320 c2        1 AR1      0.014500
     14 N22         1.8670    1.1830   -1.4590 n2        1 AR1     -0.138000
     15 C32         2.1430    1.3350   -0.1320 c1        1 AR1     -0.137000
     16 N42         3.5050    1.4350    0.0080 n2        1 AR1     -0.082500
     17 CN2         4.1940    1.4740    1.2070 c2        1 AR1     -0.082333
     18 C52         4.0570    1.3460   -1.2110 c1        1 AR1     -0.126500
     19 C2          1.1310    1.2470    1.0120 c1        1 AR1      0.405000
     20 O2          1.5010    1.4030    2.1680 o         1 AR1     -0.377500
     21 N3         -0.2670    1.0550    0.7230 n3        1 AR1     -0.275000
     22 C13        -1.2400    1.0490    1.8190 c2        1 AR1      0.014500
     23 N23        -2.1410    0.1000    2.0610 n2        1 AR1     -0.138000
     24 C33        -2.8780    0.4850    3.1350 c1        1 AR1     -0.137000
     25 N43        -2.4140    1.6860    3.5480 n2        1 AR1     -0.082500
     26 CN3        -2.9470    2.4780    4.6470 c2        1 AR1     -0.082333
     27 C53        -1.4090    2.0390    2.7460 c1        1 AR1     -0.126500
     28 C3         -3.9190   -0.3580    3.8510 c1        1 AR1      0.409000
     29 O3         -4.5180    0.1050    4.8100 o         1 AR1     -0.452000
     30 NT         -4.0480   -1.7460    3.5380 n3        1 AR1     -0.373000
     31 C1T        -4.7830   -2.6060    4.4090 c3        1 AR1     -0.035000
     32 C2T        -4.5690   -4.0710    3.9930 c3        1 AR1     -0.152000
     33 N3T        -4.9760   -4.9710    5.1180 n4        1 AR1     -0.001000
     34 CNT        -6.0620   -5.8290    4.6820 c3        1 AR1     -0.191000
     35 CMT        -3.8670   -5.7710    5.5110 c3        1 AR1     -0.191000
     36 HA          4.5130   -0.3740  -10.4220 ha        1 AR1      0.135000
     37 HN1         2.7620    0.9150   -9.4560 hn        1 AR1      0.246000
     38 HN11        4.0520    5.0970   -5.5120 ha        1 AR1      0.111444
     39 HN12        4.9880    5.2630   -6.7920 ha        1 AR1      0.111444
     40 HN13        5.5560    4.5370   -5.4860 ha        1 AR1      0.111444
     41 H51         4.5160    3.5820   -8.5980 DU        1 AR1      0.225667
     42 HN2         2.8970    0.4840   -4.0600 hn        1 AR1      0.274500
     43 HN21        4.0540    0.6300    1.6920 ha        1 AR1      0.111444
     44 HN22        3.8650    2.2190    1.7470 ha        1 AR1      0.111444
     45 HN23        5.1420    1.5950    1.0330 ha        1 AR1      0.111444
     46 H52         5.0180    1.3840   -1.4140 DU        1 AR1      0.225667
     47 HN3        -0.5240    0.8020   -0.1060 hn        1 AR1      0.274500
     48 HN31       -2.7470    2.0280    5.5060 ha        1 AR1      0.111444
     49 HN32       -2.5340    3.3670    4.6390 ha        1 AR1      0.111444
     50 HN33       -3.9170    2.5700    4.5440 ha        1 AR1      0.111444
     51 H53        -0.8830    2.8660    2.8100 DU        1 AR1      0.225667
     52 HT         -3.7160   -2.0730    2.7360 hn        1 AR1      0.273000
     53 H1T1       -5.7380   -2.3860    4.3550 h1        1 AR1      0.128500
     54 H1T2       -4.4700   -2.4800    5.3310 h1        1 AR1      0.128500
     55 H2T1       -3.6030   -4.2190    3.7810 hx        1 AR1      0.143000
     56 H2T2       -5.1190   -4.2720    3.1910 hx        1 AR1      0.143000
     57 HNT        -5.2560   -4.4650    5.8300 hn        1 AR1      0.278000
     58 HNT1       -5.8300   -6.2390    3.8250 hx        1 AR1      0.142000
     59 HNT2       -6.2130   -6.5390    5.3590 hx        1 AR1      0.142000
     60 HNT3       -6.8810   -5.2930    4.5790 hx        1 AR1      0.142000
     61 HMT1       -3.5600   -6.2920    4.7540 hx        1 AR1      0.142000
     62 HMT2       -3.1430   -5.1920    5.8240 hx        1 AR1      0.142000
     63 HMT3       -4.1420   -6.3790    6.2410 hx        1 AR1      0.142000
@<TRIPOS>BOND
     1    1    2 1   
     2    1   36 1   
     3    3    4 1   
     4    3   37 1   
     5    4    5 1   
     6    4    9 1   
     7    5    6 1   
     8    6    7 1   
     9    7    9 1   
    10    8   38 1   
    11    8   39 1   
    12    8   40 1   
    13   10   11 1   
    14   10   12 1   
    15   12   13 1   
    16   12   42 1   
    17   13   14 1   
    18   13   18 1   
    19   14   15 1   
    20   15   16 1   
    21   16   18 1   
    22   17   43 1   
    23   17   44 1   
    24   17   45 1   
    25   19   20 1   
    26   19   21 1   
    27   21   22 1   
    28   21   47 1   
    29   22   23 1   
    30   22   27 1   
    31   23   24 1   
    32   24   25 1   
    33   25   27 1   
    34   26   48 1   
    35   26   49 1   
    36   26   50 1   
    37   28   29 1   
    38   28   30 1   
    39   30   31 1   
    40   30   52 1   
    41   31   32 1   
    42   31   53 1   
    43   31   54 1   
    44   32   33 1   
    45   32   55 1   
    46   32   56 1   
    47   33   34 1   
    48   33   35 1   
    49   33   57 1   
    50   34   58 1   
    51   34   59 1   
    52   34   60 1   
    53   35   61 1   
    54   35   62 1   
    55   35   63 1   
@<TRIPOS>SUBSTRUCTURE
     1 AR1         1 TEMP              0 ****  ****    0 ROOT
