@<TRIPOS>MOLECULE
AR1
   67    69     1     0     0
SMALL
bcc


@<TRIPOS>ATOM
      1 CA          3.9350    0.3340    1.1110 c         1 AR1      0.577900
      2 OA          4.7200    0.2180    2.0190 o         1 AR1     -0.346100
      3 N1          2.4900   -0.1620    1.3330 n4        1 AR1     -0.663500
      4 C11         2.1520   -0.4520    2.7120 cc        1 AR1      0.346200
      5 N21         0.9990   -0.0200    3.3520 nc        1 AR1     -0.593000
      6 C31         1.0870   -0.5190    4.6270 cd        1 AR1      0.269000
      7 N41         2.2840   -1.2630    4.8120 na        1 AR1     -0.071900
      8 CN1         2.7110   -1.9150    6.0230 c3        1 AR1     -0.022400
      9 C51         2.9610   -1.2300    3.6240 cd        1 AR1     -0.071600
     10 C1          0.1040   -0.3430    5.6940 c         1 AR1      0.501600
     11 O1          0.1480   -0.7890    6.8280 o         1 AR1     -0.385100
     12 N2         -1.1210    0.4910    5.3160 n4        1 AR1     -0.607500
     13 C12        -1.8610    0.9900    6.4600 cc        1 AR1      0.339200
     14 N22        -2.9040    0.3180    7.0910 nc        1 AR1     -0.577000
     15 C32        -3.3110    1.1570    8.0950 cd        1 AR1      0.291000
     16 N42        -2.5380    2.3490    8.1230 na        1 AR1     -0.069900
     17 CN2        -2.6840    3.4480    9.0460 c3        1 AR1     -0.025400
     18 C52        -1.6270    2.2580    7.1060 cd        1 AR1     -0.091600
     19 C2         -4.3990    0.9230    9.0530 c         1 AR1      0.492600
     20 O2         -4.7470    1.6690    9.9530 o         1 AR1     -0.369100
     21 N3         -5.1710   -0.3790    8.8800 n4        1 AR1     -0.600500
     22 C13        -5.9280   -0.7630   10.0580 cc        1 AR1      0.326200
     23 N23        -7.2310   -0.3570   10.3400 nc        1 AR1     -0.572000
     24 C33        -7.5400   -0.9660   11.5260 cd        1 AR1      0.299000
     25 N43        -6.4540   -1.7460   12.0140 na        1 AR1     -0.064900
     26 CN3        -6.4280   -2.5170   13.2350 c3        1 AR1     -0.029400
     27 C53        -5.4400   -1.6270   11.1060 cd        1 AR1     -0.091600
     28 C3         -8.8010   -0.8780   12.2740 c         1 AR1      0.495600
     29 O3         -9.0300   -1.3950   13.3550 o         1 AR1     -0.363100
     30 NT         -9.9250   -0.0750   11.6370 n4        1 AR1     -0.657800
     31 C1T       -11.1680   -0.1220   12.4730 c3        1 AR1      0.077800
     32 C2T       -12.3420    0.6760   11.8660 c3        1 AR1      0.080800
     33 N3T       -13.6080    0.5550   12.6550 n4        1 AR1     -0.675400
     34 CNT       -13.5570    1.3370   13.9250 c3        1 AR1      0.074100
     35 CMT       -14.7730    1.0040   11.8260 c3        1 AR1      0.074100
     36 HA          4.0560    0.7410    0.0750 hx        1 AR1      0.185200
     37 HN1         2.3590   -1.0290    0.7840 hn        1 AR1      0.487800
     38 HN11        1.9320   -2.6630    6.3400 h1        1 AR1      0.114033
     39 HN12        3.6890   -2.4440    5.8430 h1        1 AR1      0.114033
     40 HN13        2.8450   -1.1480    6.8360 h1        1 AR1      0.114033
     41 H51         3.9430   -1.7040    3.4670 h4        1 AR1      0.262000
     42 HN2        -1.7370   -0.1000    4.7310 hn        1 AR1      0.496300
     43 HN21       -1.9300    4.2480    8.8060 h1        1 AR1      0.117367
     44 HN22       -3.7230    3.8730    8.9610 h1        1 AR1      0.117367
     45 HN23       -2.5180    3.0780   10.0970 h1        1 AR1      0.117367
     46 H52        -0.8930    3.0480    6.8850 h4        1 AR1      0.251000
     47 HN3        -5.8140   -0.2630    8.0770 hn        1 AR1      0.496300
     48 HN31       -5.4320   -3.0320   13.3360 h1        1 AR1      0.122367
     49 HN32       -6.5890   -1.8320   14.1150 h1        1 AR1      0.122367
     50 HN33       -7.2480   -3.2880   13.2100 h1        1 AR1      0.122367
     51 H53        -4.4700   -2.1330   11.2220 h4        1 AR1      0.249000
     52 HT        -10.1140   -0.4570   10.6990 hn        1 AR1      0.483300
     53 H1T1      -10.9040    0.2850   13.4970 hx        1 AR1      0.142700
     54 H1T2      -11.4510   -1.2120   12.5960 hx        1 AR1      0.142700
     55 H2T1      -12.0810    1.7750   11.8080 hx        1 AR1      0.125200
     56 H2T2      -12.5580    0.3040   10.8190 hx        1 AR1      0.125200
     57 HNT       -13.7580   -0.4370   12.8950 hn        1 AR1      0.465800
     58 HNT1      -14.5240    1.1840   14.4870 hx        1 AR1      0.127700
     59 HNT2      -13.4430    2.4330   13.6980 hx        1 AR1      0.127700
     60 HNT3      -12.7050    0.9800   14.5610 hx        1 AR1      0.127700
     61 HMT1      -15.7120    0.9070   12.4440 hx        1 AR1      0.127700
     62 HMT2      -14.6360    2.0790   11.5280 hx        1 AR1      0.127700
     63 HMT3      -14.8620    0.3550   10.9130 hx        1 AR1      0.127700
     64 H12         1.8440    0.5500    0.9570 hn        1 AR1      0.487800
     65 H22        -0.8270    1.3050    4.7520 hn        1 AR1      0.496300
     66 H32        -4.5160   -1.1480    8.6620 hn        1 AR1      0.496300
     67 HT2        -9.6090    0.9000   11.5290 hn        1 AR1      0.483300
@<TRIPOS>BOND
     1    1    2 2   
     2    1    3 1   
     3    1   36 1   
     4    3    4 1   
     5    3   37 1   
     6    3   64 1   
     7    4    5 1   
     8    4    9 2   
     9    5    6 2   
    10    6    7 1   
    11    6   10 1   
    12    7    8 1   
    13    7    9 1   
    14    8   38 1   
    15    8   39 1   
    16    8   40 1   
    17    9   41 1   
    18   10   11 2   
    19   10   12 1   
    20   12   13 1   
    21   12   42 1   
    22   12   65 1   
    23   13   14 1   
    24   13   18 2   
    25   14   15 2   
    26   15   16 1   
    27   15   19 1   
    28   16   17 1   
    29   16   18 1   
    30   17   43 1   
    31   17   44 1   
    32   17   45 1   
    33   18   46 1   
    34   19   20 2   
    35   19   21 1   
    36   21   22 1   
    37   21   47 1   
    38   21   66 1   
    39   22   23 1   
    40   22   27 2   
    41   23   24 2   
    42   24   25 1   
    43   24   28 1   
    44   25   26 1   
    45   25   27 1   
    46   26   48 1   
    47   26   49 1   
    48   26   50 1   
    49   27   51 1   
    50   28   29 2   
    51   28   30 1   
    52   30   31 1   
    53   30   52 1   
    54   30   67 1   
    55   31   32 1   
    56   31   53 1   
    57   31   54 1   
    58   32   33 1   
    59   32   55 1   
    60   32   56 1   
    61   33   34 1   
    62   33   35 1   
    63   33   57 1   
    64   34   58 1   
    65   34   59 1   
    66   34   60 1   
    67   35   61 1   
    68   35   62 1   
    69   35   63 1   
@<TRIPOS>SUBSTRUCTURE
     1 AR1         1 TEMP              0 ****  ****    0 ROOT
