@<TRIPOS>MOLECULE
AR1
   63    65     1     0     0
SMALL
bcc


@<TRIPOS>ATOM
      1 CA          8.6270   -4.1140    0.7290 c         1 AR1      0.667900
      2 OA          9.6980   -3.5140    0.5540 o         1 AR1     -0.591100
      3 N1          7.3850   -3.5170    0.6610 n         1 AR1     -0.540400
      4 C11         7.1840   -2.1610    0.3890 cc        1 AR1      0.399200
      5 N21         5.9200   -1.5560    0.3170 nc        1 AR1     -0.676000
      6 C31         6.1630   -0.2430    0.0350 cd        1 AR1      0.330000
      7 N41         7.5410    0.0140   -0.0770 na        1 AR1     -0.134900
      8 CN1         8.1530    1.2740   -0.3630 c3        1 AR1      0.016600
      9 C51         8.1990   -1.1840    0.1430 cd        1 AR1     -0.227600
     10 C1          5.1360    0.8230   -0.1410 c         1 AR1      0.618600
     11 O1          5.4690    1.9980   -0.3990 o         1 AR1     -0.617100
     12 N2          3.8150    0.4350   -0.0040 n         1 AR1     -0.505400
     13 C12         2.7450    1.3220   -0.1390 cc        1 AR1      0.414200
     14 N22         1.4030    0.9360   -0.0090 nc        1 AR1     -0.669000
     15 C32         0.6770    2.0760   -0.2080 cd        1 AR1      0.320000
     16 N42         1.5110    3.1810   -0.4620 na        1 AR1     -0.132900
     17 CN2         1.0920    4.5250   -0.7130 c3        1 AR1      0.016600
     18 C52         2.8160    2.7230   -0.4220 cd        1 AR1     -0.222600
     19 C2         -0.8050    2.1860   -0.1710 c         1 AR1      0.624600
     20 O2         -1.3830    3.2710   -0.3820 o         1 AR1     -0.615100
     21 N3         -1.5030    1.0180    0.1070 n         1 AR1     -0.511400
     22 C13        -2.8940    0.9660    0.1770 cc        1 AR1      0.431200
     23 N23        -3.6120   -0.2040    0.4350 nc        1 AR1     -0.661000
     24 C33        -4.9320    0.1660    0.4150 cd        1 AR1      0.286000
     25 N43        -5.0780    1.5410    0.1510 na        1 AR1     -0.120900
     26 CN3        -6.3070    2.2690    0.0720 c3        1 AR1      0.014600
     27 C53        -3.8090    2.0620    0.0010 cd        1 AR1     -0.209600
     28 C3         -6.0700   -0.7420    0.6400 c         1 AR1      0.622600
     29 O3         -7.2620   -0.3790    0.4700 o         1 AR1     -0.681100
     30 NT         -5.7980   -2.0530    1.0000 n         1 AR1     -0.563900
     31 C1T        -6.8220   -2.8930    1.5420 c3        1 AR1      0.075000
     32 C2T        -7.6190   -3.7050    0.4960 c3        1 AR1      0.083800
     33 N3T        -8.4180   -2.8470   -0.4410 n4        1 AR1     -0.688400
     34 CNT        -7.7700   -2.7530   -1.7760 c3        1 AR1      0.086600
     35 CMT        -9.8090   -3.3470   -0.5750 c3        1 AR1      0.086600
     36 HA          8.5690   -5.2040    0.9590 h5        1 AR1      0.042200
     37 HN1         6.5690   -4.0660    0.8150 hn        1 AR1      0.332500
     38 HN11        7.7890    1.6540   -1.3560 h1        1 AR1      0.071367
     39 HN12        7.8640    2.0220    0.4250 h1        1 AR1      0.071367
     40 HN13        9.2680    1.1530   -0.3840 h1        1 AR1      0.071367
     41 H51         9.2860   -1.2990    0.1210 h4        1 AR1      0.221000
     42 HN2         3.5940   -0.5160    0.2030 hn        1 AR1      0.358500
     43 HN21        0.4350    4.5510   -1.6250 h1        1 AR1      0.072033
     44 HN22        0.4950    4.9040    0.1610 h1        1 AR1      0.072033
     45 HN23        1.9930    5.1740   -0.8710 h1        1 AR1      0.072033
     46 H52         3.6910    3.3590   -0.5840 h4        1 AR1      0.224000
     47 HN3        -1.0040    0.1690    0.2730 hn        1 AR1      0.363500
     48 HN31       -6.8860    1.9330   -0.8310 h1        1 AR1      0.073367
     49 HN32       -6.9270    2.0640    0.9870 h1        1 AR1      0.073367
     50 HN33       -6.0890    3.3670   -0.0040 h1        1 AR1      0.073367
     51 H53        -3.5970    3.1150   -0.2080 h4        1 AR1      0.232000
     52 HT         -4.8510   -2.3240    1.1610 hn        1 AR1      0.357500
     53 H1T1       -6.3480   -3.6570    2.2270 h1        1 AR1      0.091200
     54 H1T2       -7.5500   -2.2760    2.1500 h1        1 AR1      0.091200
     55 H2T1       -6.9240   -4.3510   -0.1100 hx        1 AR1      0.105200
     56 H2T2       -8.3250   -4.3780    1.0620 hx        1 AR1      0.105200
     57 HNT        -8.4560   -1.8830   -0.0410 hn        1 AR1      0.491800
     58 HNT1       -8.3730   -2.0670   -2.4290 hx        1 AR1      0.101533
     59 HNT2       -6.7350   -2.3340   -1.6520 hx        1 AR1      0.101533
     60 HNT3       -7.7170   -3.7700   -2.2460 hx        1 AR1      0.101533
     61 HMT1      -10.3090   -3.3330    0.4300 hx        1 AR1      0.101533
     62 HMT2      -10.3750   -2.6800   -1.2800 hx        1 AR1      0.101533
     63 HMT3       -9.8000   -4.3940   -0.9790 hx        1 AR1      0.101533
@<TRIPOS>BOND
     1    1    2 2   
     2    1    3 1   
     3    1   36 1   
     4    3    4 1   
     5    3   37 1   
     6    4    5 1   
     7    4    9 2   
     8    5    6 2   
     9    6    7 1   
    10    6   10 1   
    11    7    8 1   
    12    7    9 1   
    13    8   38 1   
    14    8   39 1   
    15    8   40 1   
    16    9   41 1   
    17   10   11 2   
    18   10   12 1   
    19   12   13 1   
    20   12   42 1   
    21   13   14 1   
    22   13   18 2   
    23   14   15 2   
    24   15   16 1   
    25   15   19 1   
    26   16   17 1   
    27   16   18 1   
    28   17   43 1   
    29   17   44 1   
    30   17   45 1   
    31   18   46 1   
    32   19   20 2   
    33   19   21 1   
    34   21   22 1   
    35   21   47 1   
    36   22   23 1   
    37   22   27 2   
    38   23   24 2   
    39   24   25 1   
    40   24   28 1   
    41   25   26 1   
    42   25   27 1   
    43   26   48 1   
    44   26   49 1   
    45   26   50 1   
    46   27   51 1   
    47   28   29 2   
    48   28   30 1   
    49   30   31 1   
    50   30   52 1   
    51   31   32 1   
    52   31   53 1   
    53   31   54 1   
    54   32   33 1   
    55   32   55 1   
    56   32   56 1   
    57   33   34 1   
    58   33   35 1   
    59   33   57 1   
    60   34   58 1   
    61   34   59 1   
    62   34   60 1   
    63   35   61 1   
    64   35   62 1   
    65   35   63 1   
@<TRIPOS>SUBSTRUCTURE
     1 AR1         1 TEMP              0 ****  ****    0 ROOT
