@<TRIPOS>MOLECULE
AR1
   64    66     1     0     0
SMALL
bcc


@<TRIPOS>ATOM
      1 CA         -0.5730    0.0830   -0.0030 c         1 AR1      0.668900
      2 OA          0.6350    0.0680   -0.2800 o         1 AR1     -0.581100
      3 N1         -1.0670    0.0730    1.2880 ns        1 AR1     -0.544400
      4 C11        -0.2610    0.0430    2.4290 cc        1 AR1      0.404200
      5 N21        -0.7560    0.0320    3.7400 nc        1 AR1     -0.680000
      6 C31         0.3500    0.0020    4.5440 cd        1 AR1      0.316000
      7 N41         1.5360   -0.0060    3.7880 na        1 AR1     -0.125900
      8 CN1         2.8730   -0.0360    4.2980 c3        1 AR1      0.013600
      9 C51         1.1710    0.0190    2.4550 cd        1 AR1     -0.218600
     10 C1          0.3520   -0.0190    6.0290 c         1 AR1      0.624600
     11 O1          1.4170   -0.0470    6.6780 o         1 AR1     -0.609100
     12 N2         -0.8910   -0.0070    6.6510 ns        1 AR1     -0.514400
     13 C12        -1.0430   -0.0240    8.0360 cc        1 AR1      0.433200
     14 N22        -2.2800   -0.0110    8.6820 nc        1 AR1     -0.671000
     15 C32        -1.9910   -0.0360   10.0240 cd        1 AR1      0.281000
     16 N42        -0.6010   -0.0640   10.2510 na        1 AR1     -0.110900
     17 CN2         0.0530   -0.0950   11.5240 c3        1 AR1      0.008600
     18 C52         0.0110   -0.0580    9.0170 cd        1 AR1     -0.201600
     19 C2         -2.9760   -0.0340   11.1170 c         1 AR1      0.639600
     20 O2         -2.6590   -0.0570   12.3210 o         1 AR1     -0.604100
     21 N3         -4.3300   -0.0040   10.7330 ns        1 AR1     -0.521400
     22 C13        -5.3730    0.0020   11.6360 cc        1 AR1      0.503200
     23 N23        -6.7050    0.0320   11.3080 nc        1 AR1     -0.701000
     24 C33        -7.3940    0.0260   12.5290 cd        1 AR1      0.187000
     25 N43        -6.4880   -0.0080   13.6260 na        1 AR1     -0.053900
     26 CN3        -6.8480   -0.0450   15.0170 c3        1 AR1     -0.018400
     27 C53        -5.2360   -0.0240   13.1100 cd        1 AR1     -0.122600
     28 C3         -8.8060    0.0630   12.6690 c         1 AR1      0.498600
     29 O3         -9.5340    0.0760   13.6570 o         1 AR1     -0.491100
     30 NT         -9.5460    0.0940   11.3050 ny        1 AR1     -0.664800
     31 C1T       -11.0160    0.1210   11.4750 c3        1 AR1      0.080800
     32 C2T       -11.7700    0.1610   10.1320 c3        1 AR1      0.077800
     33 N3T       -13.2560    0.1060   10.3010 nx        1 AR1     -0.674400
     34 CNT       -13.8060    1.3950   10.8070 c3        1 AR1      0.077100
     35 CMT       -13.9060   -0.2600    9.0060 c3        1 AR1      0.077100
     36 HA         -1.3790    0.1080   -0.7730 h5        1 AR1      0.046200
     37 HN1        -2.0510    0.0860    1.4340 hn        1 AR1      0.330500
     38 HN11        3.6000   -0.0350    3.4440 h1        1 AR1      0.074700
     39 HN12        3.0180   -0.9590    4.9240 h1        1 AR1      0.074700
     40 HN13        3.0470    0.8620    4.9510 h1        1 AR1      0.074700
     41 H51         1.8810    0.0190    1.6240 h4        1 AR1      0.227000
     42 HN2        -1.7200    0.0150    6.0970 hn        1 AR1      0.358500
     43 HN21       -0.2370    0.8140   12.1190 h1        1 AR1      0.078033
     44 HN22       -0.2700   -1.0090   12.0930 h1        1 AR1      0.078033
     45 HN23        1.1650   -0.1130   11.3740 h1        1 AR1      0.078033
     46 H52         1.0960   -0.0750    8.8690 h4        1 AR1      0.236000
     47 HN3        -4.5560    0.0150    9.7580 hn        1 AR1      0.372500
     48 HN31       -7.7210    0.6400   15.1990 h1        1 AR1      0.099367
     49 HN32       -7.1360   -1.0950   15.3020 h1        1 AR1      0.099367
     50 HN33       -5.9710    0.2840   15.6390 h1        1 AR1      0.099367
     51 H53        -4.3050   -0.0500   13.7000 h4        1 AR1      0.264000
     52 HT         -9.2560   -0.7360   10.7730 hn        1 AR1      0.470800
     53 H1T1      -11.3060   -0.7950   12.0730 hx        1 AR1      0.130700
     54 H1T2      -11.2680    1.0280   12.1030 hx        1 AR1      0.130700
     55 H2T1      -11.5230    1.1090    9.5680 hx        1 AR1      0.122200
     56 H2T2      -11.4650   -0.7220    9.4940 hx        1 AR1      0.122200
     57 HNT       -13.4800   -0.6300   10.9890 hn        1 AR1      0.461800
     58 HNT1      -13.3390    1.6440   11.7970 hx        1 AR1      0.119700
     59 HNT2      -14.9200    1.2910   10.9390 hx        1 AR1      0.119700
     60 HNT3      -13.5990    2.2140   10.0670 hx        1 AR1      0.119700
     61 HMT1      -13.5510   -1.2750    8.6790 hx        1 AR1      0.119700
     62 HMT2      -15.0210   -0.2840    9.1540 hx        1 AR1      0.119700
     63 HMT3      -13.6490    0.5050    8.2250 hx        1 AR1      0.119700
     64 HT2        -9.2230    0.9250   10.7930 hn        1 AR1      0.470800
@<TRIPOS>BOND
     1    1    2 2   
     2    1    3 1   
     3    1   36 1   
     4    3    4 1   
     5    3   37 1   
     6    4    5 1   
     7    4    9 2   
     8    5    6 2   
     9    6    7 1   
    10    6   10 1   
    11    7    8 1   
    12    7    9 1   
    13    8   38 1   
    14    8   39 1   
    15    8   40 1   
    16    9   41 1   
    17   10   11 2   
    18   10   12 1   
    19   12   13 1   
    20   12   42 1   
    21   13   14 1   
    22   13   18 2   
    23   14   15 2   
    24   15   16 1   
    25   15   19 1   
    26   16   17 1   
    27   16   18 1   
    28   17   43 1   
    29   17   44 1   
    30   17   45 1   
    31   18   46 1   
    32   19   20 2   
    33   19   21 1   
    34   21   22 1   
    35   21   47 1   
    36   22   23 1   
    37   22   27 2   
    38   23   24 2   
    39   24   25 1   
    40   24   28 1   
    41   25   26 1   
    42   25   27 1   
    43   26   48 1   
    44   26   49 1   
    45   26   50 1   
    46   27   51 1   
    47   28   29 2   
    48   28   30 1   
    49   30   31 1   
    50   30   52 1   
    51   30   64 1   
    52   31   32 1   
    53   31   53 1   
    54   31   54 1   
    55   32   33 1   
    56   32   55 1   
    57   32   56 1   
    58   33   34 1   
    59   33   35 1   
    60   33   57 1   
    61   34   58 1   
    62   34   59 1   
    63   34   60 1   
    64   35   61 1   
    65   35   62 1   
    66   35   63 1   
@<TRIPOS>SUBSTRUCTURE
     1 AR1         1 TEMP              0 ****  ****    0 ROOT
