@<TRIPOS>MOLECULE
AR2
   39    40     1     0     0
SMALL
bcc


@<TRIPOS>ATOM
      1 N          -2.4920    3.4070    0.9310 n3        1 AR2     -0.900800
      2 CA         -1.8400    2.1920    0.4750 c3        1 AR2      0.081500
      3 CB         -2.7180    1.2500   -0.3710 c3        1 AR2     -0.107400
      4 CG         -3.6760    0.4720    0.5040 c3        1 AR2     -0.087400
      5 CD         -4.5760   -0.4060   -0.3690 c3        1 AR2      0.187800
      6 NE         -5.4050   -1.2920    0.4230 nh        1 AR2     -0.804200
      7 CZ         -6.2530   -2.2160   -0.2740 c2        1 AR2      0.749100
      8 NH1        -6.4010   -2.1410   -1.5740 n2        1 AR2     -0.866100
      9 NH2        -7.0140   -3.1050    0.5670 nh        1 AR2     -0.940800
     10 N5          0.4240    0.3080    0.2660 nc        1 AR2     -0.506100
     11 S5          2.1710    2.0470   -0.5540 ss        1 AR2      0.017900
     12 C5          0.5510    1.5590   -0.1760 cd        1 AR2      0.225200
     13 C61         1.6740   -0.3050    0.3110 ca        1 AR2      0.045400
     14 C62         2.7660    0.5340   -0.1090 ca        1 AR2     -0.086100
     15 C63         4.0720    0.0420   -0.1010 ca        1 AR2     -0.089000
     16 C64         4.3120   -1.2630    0.3110 ca        1 AR2     -0.095600
     17 C65         3.2400   -2.0870    0.7180 ca        1 AR2     -0.102000
     18 C66         1.9370   -1.6310    0.7240 ca        1 AR2     -0.107000
     19 C1          5.7360   -1.8160    0.3250 c         1 AR2      0.908200
     20 O1          6.6640   -1.0480   -0.0460 o         1 AR2     -0.818300
     21 O2          5.8920   -3.0080    0.7080 o         1 AR2     -0.818300
     22 C          -0.5800    2.4900   -0.3440 c         1 AR2      0.527800
     23 H          -2.4360    4.1230    0.2300 hn        1 AR2      0.351300
     24 HN2        -3.4570    3.2220    1.1280 hn        1 AR2      0.351300
     25 HA         -1.5320    1.6410    1.4150 h1        1 AR2      0.096700
     26 HB1        -3.2850    1.8380   -1.1390 hc        1 AR2      0.059700
     27 HB2        -2.0570    0.5300   -0.9220 hc        1 AR2      0.059700
     28 HG1        -3.0870   -0.1580    1.2220 hc        1 AR2      0.047700
     29 HG2        -4.3080    1.1700    1.1130 hc        1 AR2      0.047700
     30 HD1        -5.2580    0.2530   -0.9780 h1        1 AR2      0.054700
     31 HD2        -3.9270   -0.9810   -1.0930 h1        1 AR2      0.054700
     32 HE         -4.8890   -1.7300    1.1610 hn        1 AR2      0.385800
     33 HH11       -7.0880   -2.7500   -1.9610 hn        1 AR2      0.389400
     34 HH21       -6.7960   -3.0710    1.5370 hn        1 AR2      0.385300
     35 HH22       -7.0430   -4.0380    0.2200 hn        1 AR2      0.385300
     36 H63         4.9270    0.6640   -0.4150 ha        1 AR2      0.167000
     37 H65         3.4890   -3.1150    1.0340 ha        1 AR2      0.163000
     38 H66         1.1080   -2.2770    1.0420 ha        1 AR2      0.127000
     39 O          -0.5240    3.4590   -1.1090 o         1 AR2     -0.540100
@<TRIPOS>BOND
     1    1    2 1   
     2    1   23 1   
     3    1   24 1   
     4    2    3 1   
     5    2   22 1   
     6    2   25 1   
     7    3    4 1   
     8    3   26 1   
     9    3   27 1   
    10    4    5 1   
    11    4   28 1   
    12    4   29 1   
    13    5    6 1   
    14    5   30 1   
    15    5   31 1   
    16    6    7 1   
    17    6   32 1   
    18    7    8 2   
    19    7    9 1   
    20    8   33 1   
    21    9   34 1   
    22    9   35 1   
    23   10   12 2   
    24   10   13 1   
    25   11   12 1   
    26   11   14 1   
    27   12   22 1   
    28   13   14 ar  
    29   13   18 ar  
    30   14   15 ar  
    31   15   16 ar  
    32   15   36 1   
    33   16   17 ar  
    34   16   19 1   
    35   17   18 ar  
    36   17   37 1   
    37   18   38 1   
    38   19   20 1   
    39   19   21 1   
    40   22   39 2   
@<TRIPOS>SUBSTRUCTURE
     1 AR2         1 TEMP              0 ****  ****    0 ROOT
