@<TRIPOS>MOLECULE
AR2
   39    35     1     0     0
SMALL
bcc


@<TRIPOS>ATOM
      1 N          -1.4160   -0.0100    0.5510 n3        1 AR2     -0.332000
      2 CA         -0.0090    0.1550    0.5560 c3        1 AR2     -0.049000
      3 CB          0.4940    0.1410    1.9750 c3        1 AR2     -0.156000
      4 CG         -0.3800    1.1050    2.8530 c3        1 AR2     -0.164000
      5 CD         -0.1780    0.7640    4.3410 c3        1 AR2     -0.056000
      6 NE         -1.0690    1.5500    5.1370 n3        1 AR2     -0.334000
      7 CZ         -1.2880    1.2050    6.5500 c2        1 AR2      0.165000
      8 NH1        -0.5910    1.8060    7.4920 n1        1 AR2     -0.366000
      9 NH2        -2.2710    0.2030    6.9080 n3        1 AR2     -0.321000
     10 N5          1.2810   -1.9890   -2.4720 n2        1 AR2     -0.088000
     11 S5          0.3060    0.2050   -2.7490 ss        1 AR2      0.472000
     12 C5          0.7310   -0.9160   -1.7320 c1        1 AR2     -0.368000
     13 C61         1.2380   -1.6070   -4.0360 c1        1 AR2     -0.095000
     14 C62         0.6540   -0.3000   -4.1670 c1        1 AR2     -0.313000
     15 C63         0.4480    0.2370   -5.4220 c1        1 AR2     -0.090000
     16 C64         0.8060   -0.4880   -6.5610 c1        1 AR2     -0.073000
     17 C65         1.3810   -1.7740   -6.4300 c1        1 AR2     -0.101000
     18 C66         1.5910   -2.3220   -5.1640 c1        1 AR2     -0.106000
     19 C1          0.6820    0.1180   -7.9860 c2        1 AR2      0.357000
     20 O1          1.6110    0.8440   -8.4490 o         1 AR2     -0.551500
     21 O2         -0.3320   -0.1360   -8.6940 o         1 AR2     -0.551500
     22 O           1.0530   -1.9880    0.3500 o         1 AR2     -0.297000
     23 C           0.6460   -0.9930   -0.2360 c1        1 AR2      0.264000
     24 H          -1.6220   -0.8910    0.3730 hn        1 AR2      0.157500
     25 HN2        -1.7810    0.5210   -0.0860 hn        1 AR2      0.157500
     26 HA          0.2290    1.0430    0.1210 h1        1 AR2      0.113000
     27 HB1         1.3900    0.4280    1.9920 hc        1 AR2      0.099500
     28 HB2         0.4370   -0.7640    2.3320 hc        1 AR2      0.099500
     29 HG1        -0.1030    2.0480    2.6890 hc        1 AR2      0.093500
     30 HG2        -1.3100    0.9990    2.6220 hc        1 AR2      0.093500
     31 HD1         0.7400    0.9570    4.5940 h1        1 AR2      0.082000
     32 HD2        -0.3620   -0.1790    4.4860 h1        1 AR2      0.082000
     33 HE         -1.5550    2.2190    4.7510 hn        1 AR2      0.192000
     34 HH11        0.0250    2.4330    7.2710 DU        1 AR2      0.142000
     35 HH21       -2.6440   -0.3260    6.2590 hn        1 AR2      0.190000
     36 HH22       -2.5120    0.0800    7.8170 hn        1 AR2      0.190000
     37 H63         0.0480    1.1300   -5.5140 ha        1 AR2      0.168000
     38 H65         1.6370   -2.2910   -7.2450 ha        1 AR2      0.165000
     39 H66         1.9930   -3.2190   -5.0760 ha        1 AR2      0.129000
@<TRIPOS>BOND
     1    1    2 1   
     2    1   24 1   
     3    1   25 1   
     4    2    3 1   
     5    2   23 1   
     6    2   26 1   
     7    3    4 1   
     8    3   27 1   
     9    3   28 1   
    10    4    5 1   
    11    4   29 1   
    12    4   30 1   
    13    5    6 1   
    14    5   31 1   
    15    5   32 1   
    16    6    7 1   
    17    6   33 1   
    18    7    8 1   
    19    7    9 1   
    20    9   35 1   
    21    9   36 1   
    22   10   12 1   
    23   10   13 1   
    24   11   12 1   
    25   11   14 1   
    26   13   18 1   
    27   14   15 1   
    28   15   37 1   
    29   16   17 1   
    30   16   19 1   
    31   17   38 1   
    32   18   39 1   
    33   19   20 1   
    34   19   21 1   
    35   22   23 1   
@<TRIPOS>SUBSTRUCTURE
     1 AR2         1 TEMP              0 ****  ****    0 ROOT
