@<TRIPOS>MOLECULE
AR3
   30    31     1     0     0
SMALL
bcc


@<TRIPOS>ATOM
      1 O5'         0.3010   -1.3220    0.3440 oh        1 AR3     -0.591800
      2 C5'         1.6930   -1.0600    0.2910 c3        1 AR3      0.103400
      3 C4'         2.0170   -0.0430    1.3860 c3        1 AR3      0.135100
      4 O4'         1.5190   -0.4710    2.6590 os        1 AR3     -0.395600
      5 C1'         2.5670   -0.9910    3.4830 c3        1 AR3      0.269500
      6 N1          2.4560   -2.4400    3.6220 n         1 AR3     -0.392000
      7 C6          1.5080   -3.1690    2.9550 cc        1 AR3      0.077600
      8 C5          1.3530   -4.5160    3.1710 cd        1 AR3     -0.440600
      9 C4          2.2200   -5.1600    4.1540 cd        1 AR3      0.759500
     10 N3          3.1370   -4.4650    4.8600 nc        1 AR3     -0.726100
     11 C2          3.2790   -3.1000    4.6130 c         1 AR3      0.842900
     12 O2          4.1110   -2.3840    5.2170 o         1 AR3     -0.662500
     13 N4          2.1120   -6.5210    4.3350 nv        1 AR3     -0.918800
     14 C2'         3.9100   -0.4460    2.8960 c3        1 AR3      0.097100
     15 O1          4.9210   -1.4000    2.6840 oh        1 AR3     -0.600800
     16 C3'         3.5410    0.1340    1.5090 c3        1 AR3      0.111100
     17 O3'         3.8120    1.5200    1.4380 oh        1 AR3     -0.589800
     18 H5'         0.0700   -1.7480   -0.4900 ho        1 AR3      0.404000
     19 H5'1        2.2560   -2.0180    0.4600 h1        1 AR3      0.037700
     20 H5'2        1.9820   -0.6280   -0.7030 h1        1 AR3      0.037700
     21 H4'         1.4910    0.9320    1.1870 h1        1 AR3      0.111700
     22 H1'         2.3890   -0.5470    4.5110 h2        1 AR3      0.103700
     23 H6          0.8610   -2.6180    2.2360 h4        1 AR3      0.193000
     24 H5          0.5980   -5.0880    2.6230 ha        1 AR3      0.154000
     25 HN41        1.3180   -6.9770    3.9620 hn        1 AR3      0.437800
     26 HN42        2.6150   -6.9650    5.0650 hn        1 AR3      0.437800
     27 H2'         4.2750    0.3670    3.5830 h1        1 AR3      0.070700
     28 HO1         5.2190   -1.7090    3.5540 ho        1 AR3      0.445000
     29 H3'         4.0960   -0.4120    0.6990 h1        1 AR3      0.073700
     30 H1          4.7710    1.6190    1.4990 ho        1 AR3      0.414000
@<TRIPOS>BOND
     1    1    2 1   
     2    1   18 1   
     3    2    3 1   
     4    2   19 1   
     5    2   20 1   
     6    3    4 1   
     7    3   16 1   
     8    3   21 1   
     9    4    5 1   
    10    5    6 1   
    11    5   14 1   
    12    5   22 1   
    13    6    7 1   
    14    6   11 1   
    15    7    8 2   
    16    7   23 1   
    17    8    9 1   
    18    8   24 1   
    19    9   10 2   
    20    9   13 1   
    21   10   11 1   
    22   11   12 2   
    23   13   25 1   
    24   13   26 1   
    25   14   15 1   
    26   14   16 1   
    27   14   27 1   
    28   15   28 1   
    29   16   17 1   
    30   16   29 1   
    31   17   30 1   
@<TRIPOS>SUBSTRUCTURE
     1 AR3         1 TEMP              0 ****  ****    0 ROOT
