@<TRIPOS>MOLECULE
AR3
   30    29     1     0     0
SMALL
bcc


@<TRIPOS>ATOM
      1 O5'        -2.7650    2.2090   -2.3380 oh        1 AR3     -0.325000
      2 C5'        -1.3390    2.1120   -2.3570 c3        1 AR3     -0.038000
      3 C4'        -0.8090    2.1210   -0.9290 c3        1 AR3     -0.045000
      4 O4'        -1.1620    1.0300   -0.3080 os        1 AR3     -0.284000
      5 C1'         0.0230    0.6830    0.6790 c3        1 AR3      0.120000
      6 N1          0.0120   -0.7170    0.9820 n3        1 AR3     -0.277000
      7 C6          0.5510   -1.1620    2.1360 c2        1 AR3      0.072000
      8 C5          0.5390   -2.5030    2.4250 c1        1 AR3     -0.338000
      9 C4         -0.0230   -3.3910    1.5380 c1        1 AR3      0.241000
     10 N3         -0.5610   -2.9440    0.3870 n1        1 AR3     -0.300000
     11 C2         -0.5480   -1.6050    0.0980 c1        1 AR3      0.366000
     12 O2         -1.0510   -1.1900   -0.9740 o         1 AR3     -0.390000
     13 N4         -0.0860   -4.7830    1.8640 n3        1 AR3     -0.364000
     14 C2'         1.1560    1.0070    0.0380 c3        1 AR3      0.035000
     15 O1          1.6810   -0.1530   -0.6930 oh        1 AR3     -0.308000
     16 C3'         0.7570    2.1080   -0.9300 c3        1 AR3     -0.023000
     17 O3'         1.2400    3.3030   -0.5110 oh        1 AR3     -0.314000
     18 H5'        -3.0610    2.5040   -3.1480 ho        1 AR3      0.208000
     19 H5'1       -0.9760    2.8550   -2.8340 h1        1 AR3      0.106000
     20 H5'2       -1.0670    1.2620   -2.8080 h1        1 AR3      0.106000
     21 H4'        -1.1440    2.9150   -0.4430 h1        1 AR3      0.123000
     22 H1'        -0.0600    1.2150    1.5150 h2        1 AR3      0.120000
     23 H6          0.9440   -0.5380    2.7570 h4        1 AR3      0.158000
     24 H5          0.9240   -2.8220    3.2500 ha        1 AR3      0.156000
     25 HN41       -0.1980   -5.4110    1.1920 hn        1 AR3      0.241500
     26 HN42       -0.0660   -5.0440    2.7250 hn        1 AR3      0.241500
     27 H2'         1.8010    1.3290    0.6540 h1        1 AR3      0.145000
     28 HO1         2.5070    0.0070   -0.9370 ho        1 AR3      0.233000
     29 H3'         1.0960    1.9000   -1.8460 h1        1 AR3      0.124000
     30 H1          1.6840    3.7010   -1.1860 ho        1 AR3      0.208000
@<TRIPOS>BOND
     1    1    2 1   
     2    1   18 1   
     3    2    3 1   
     4    2   19 1   
     5    2   20 1   
     6    3    4 1   
     7    3   16 1   
     8    3   21 1   
     9    4    5 1   
    10    5    6 1   
    11    5   14 1   
    12    5   22 1   
    13    6    7 1   
    14    6   11 1   
    15    7    8 1   
    16    7   23 1   
    17    8   24 1   
    18    9   10 1   
    19    9   13 1   
    20   11   12 1   
    21   13   25 1   
    22   13   26 1   
    23   14   15 1   
    24   14   16 1   
    25   14   27 1   
    26   15   28 1   
    27   16   17 1   
    28   16   29 1   
    29   17   30 1   
@<TRIPOS>SUBSTRUCTURE
     1 AR3         1 TEMP              0 ****  ****    0 ROOT
