@<TRIPOS>MOLECULE
AR3
   31    32     1     0     0
SMALL
bcc


@<TRIPOS>ATOM
      1 O5'         0.4150   -1.6620    0.4270 oh        1 AR3     -0.607800
      2 C5'         1.6880   -1.1040    0.1760 c3        1 AR3      0.108400
      3 C4'         2.0870   -0.1060    1.2630 c3        1 AR3      0.085100
      4 O4'         1.5220   -0.5100    2.5260 os        1 AR3     -0.401600
      5 C1'         2.5220   -0.9540    3.4320 c3        1 AR3      0.262500
      6 N1          2.3930   -2.4110    3.6590 n         1 AR3     -0.337000
      7 C6          1.5040   -3.1830    2.9880 cc        1 AR3      0.131600
      8 C5          1.3710   -4.5480    3.2490 cd        1 AR3     -0.446600
      9 C4          2.2280   -5.0760    4.2590 cd        1 AR3      0.608500
     10 N3          3.1170   -4.3840    4.9530 nc        1 AR3     -0.638100
     11 C2          3.2390   -2.9980    4.6730 c         1 AR3      0.837900
     12 O2          4.0480   -2.2810    5.2810 o         1 AR3     -0.554500
     13 N4          2.1190   -6.5290    4.5650 n4        1 AR3     -0.801600
     14 C2'         3.9030   -0.4730    2.8770 c3        1 AR3      0.091100
     15 O1          4.8810   -1.4790    2.8140 oh        1 AR3     -0.591800
     16 C3'         3.6110   -0.0020    1.4290 c3        1 AR3      0.121100
     17 O3'         3.9550    1.3590    1.2740 oh        1 AR3     -0.578800
     18 H5'        -0.2190   -0.9350    0.4780 ho        1 AR3      0.423000
     19 H5'1        1.7070   -0.5890   -0.8200 h1        1 AR3      0.067200
     20 H5'2        2.3810   -1.9890    0.1530 h1        1 AR3      0.067200
     21 H4'         1.6320    0.9070    1.0650 h1        1 AR3      0.118700
     22 H1'         2.2880   -0.4650    4.4270 h2        1 AR3      0.123700
     23 H6          0.8670   -2.6860    2.2110 h4        1 AR3      0.244000
     24 H5          0.6420   -5.1480    2.6930 ha        1 AR3      0.186000
     25 HN41        2.7750   -6.8060    5.3100 hn        1 AR3      0.477800
     26 HN42        1.1570   -6.7270    4.8650 hn        1 AR3      0.477800
     27 H2'         4.2380    0.3940    3.5110 h1        1 AR3      0.096700
     28 HO1         5.3430   -1.4930    3.6670 ho        1 AR3      0.441000
     29 H3'         4.1620   -0.6450    0.6910 h1        1 AR3      0.084700
     30 H1          4.9120    1.4010    1.1510 ho        1 AR3      0.427000
     31 H43         2.3290   -7.0580    3.7110 hn        1 AR3      0.477800
@<TRIPOS>BOND
     1    1    2 1   
     2    1   18 1   
     3    2    3 1   
     4    2   19 1   
     5    2   20 1   
     6    3    4 1   
     7    3   16 1   
     8    3   21 1   
     9    4    5 1   
    10    5    6 1   
    11    5   14 1   
    12    5   22 1   
    13    6    7 1   
    14    6   11 1   
    15    7    8 2   
    16    7   23 1   
    17    8    9 1   
    18    8   24 1   
    19    9   10 2   
    20    9   13 1   
    21   10   11 1   
    22   11   12 2   
    23   13   25 1   
    24   13   26 1   
    25   13   31 1   
    26   14   15 1   
    27   14   16 1   
    28   14   27 1   
    29   15   28 1   
    30   16   17 1   
    31   16   29 1   
    32   17   30 1   
@<TRIPOS>SUBSTRUCTURE
     1 AR3         1 TEMP              0 ****  ****    0 ROOT
