@<TRIPOS>MOLECULE
AR3
   30    31     1     0     0
SMALL
bcc


@<TRIPOS>ATOM
      1 O5'         2.1500    0.2680   -3.7510 oh        1 AR3     -0.597800
      2 C5'         1.7660   -0.1280   -2.4500 c3        1 AR3      0.110400
      3 C4'         0.3050   -0.5840   -2.4380 c3        1 AR3      0.063100
      4 O4'         0.0500   -1.2980   -1.2270 os        1 AR3     -0.408600
      5 C1'        -0.9530   -0.6480   -0.4220 c3        1 AR3      0.253500
      6 N1         -0.3840   -0.2040    0.8370 n         1 AR3     -0.398000
      7 C6          0.5330    0.8180    0.8840 cc        1 AR3      0.079600
      8 C5          1.1740    1.1680    2.0420 cd        1 AR3     -0.430600
      9 C4          0.8810    0.3930    3.2480 cd        1 AR3      0.758500
     10 N3          0.0050   -0.6290    3.2420 nc        1 AR3     -0.726100
     11 C2         -0.6610   -0.9490    2.0540 c         1 AR3      0.841900
     12 O2         -1.5180   -1.8520    1.9910 o         1 AR3     -0.619500
     13 N4          1.5000    0.7540    4.4240 nh        1 AR3     -0.919800
     14 C2'        -1.6030    0.4640   -1.3060 c3        1 AR3      0.110100
     15 O1         -1.6500    1.7410   -0.7080 oh        1 AR3     -0.588800
     16 C3'        -0.6920    0.5830   -2.5470 c3        1 AR3      0.120100
     17 O3'        -1.5180    0.4430   -3.6870 oh        1 AR3     -0.586800
     18 H5'         2.2110   -0.5310   -4.2890 ho        1 AR3      0.404000
     19 H5'1        1.9140    0.7860   -1.8150 h1        1 AR3      0.060200
     20 H5'2        2.4200   -0.9550   -2.0670 h1        1 AR3      0.060200
     21 H4'         0.1290   -1.3240   -3.2700 h1        1 AR3      0.078700
     22 H1'        -1.7050   -1.4650   -0.1870 h2        1 AR3      0.135700
     23 H6          0.7050    1.3640   -0.0660 h4        1 AR3      0.163000
     24 H5          1.8790    2.0060    2.0660 ha        1 AR3      0.155000
     25 HN41        1.3970    0.1910    5.2330 hn        1 AR3      0.438300
     26 HN42        2.2670    1.3760    4.3740 hn        1 AR3      0.438300
     27 H2'        -2.6330    0.1280   -1.6070 h1        1 AR3      0.087700
     28 HO1        -2.3190    1.7040   -0.0120 ho        1 AR3      0.421000
     29 H3'        -0.1640    1.5750   -2.5600 h1        1 AR3      0.078700
     30 H1         -0.9910    0.7230   -4.4460 ho        1 AR3      0.415000
@<TRIPOS>BOND
     1    1    2 1   
     2    1   18 1   
     3    2    3 1   
     4    2   19 1   
     5    2   20 1   
     6    3    4 1   
     7    3   16 1   
     8    3   21 1   
     9    4    5 1   
    10    5    6 1   
    11    5   14 1   
    12    5   22 1   
    13    6    7 1   
    14    6   11 1   
    15    7    8 2   
    16    7   23 1   
    17    8    9 1   
    18    8   24 1   
    19    9   10 2   
    20    9   13 1   
    21   10   11 1   
    22   11   12 2   
    23   13   25 1   
    24   13   26 1   
    25   14   15 1   
    26   14   16 1   
    27   14   27 1   
    28   15   28 1   
    29   16   17 1   
    30   16   29 1   
    31   17   30 1   
@<TRIPOS>SUBSTRUCTURE
     1 AR3         1 TEMP              0 ****  ****    0 ROOT
