@<TRIPOS>MOLECULE
AR4
   35    35     1     0     0
SMALL
bcc


@<TRIPOS>ATOM
      1 N           4.6590    1.6570    0.1570 n3        1 AR4     -0.897800
      2 CA          4.0090    0.4610    0.6770 c3        1 AR4      0.012500
      3 CB          2.8270    0.0030   -0.1780 c3        1 AR4     -0.061400
      4 CG          1.6930    1.0070   -0.1110 c3        1 AR4     -0.120400
      5 CD          0.5710    0.6330   -1.0240 c         1 AR4      0.659100
      6 OE1         0.5570    0.3310   -2.2140 o         1 AR4     -0.534000
      7 OE2        -0.6600    0.7100   -0.3850 os        1 AR4     -0.490900
      8 C           4.9680   -0.7640    0.8830 c         1 AR4      0.892600
      9 O           6.1980   -0.5900    0.6580 o         1 AR4     -0.835800
     10 O5'        -3.1030   -3.5670    0.1310 oh        1 AR4     -0.597800
     11 C5'        -3.8540   -2.3880   -0.0490 c3        1 AR4      0.138400
     12 C4'        -3.0320   -1.1410    0.2730 c3        1 AR4      0.059100
     13 O4'        -2.0380   -1.0180   -0.7600 os        1 AR4     -0.414600
     14 C1'        -1.8230    0.3380   -1.0950 c3        1 AR4      0.289900
     15 C2'        -3.0080    1.1810   -0.5080 c3        1 AR4      0.317100
     16 F2'        -3.6900    1.8550   -1.4940 f         1 AR4     -0.233300
     17 C3'        -3.8860    0.1400    0.2630 c3        1 AR4      0.118100
     18 O3'        -4.2320    0.5620    1.5550 oh        1 AR4     -0.573800
     19 OXT         4.4500   -1.8400    1.2860 o         1 AR4     -0.835800
     20 O2'        -2.6260    2.1880    0.3910 oh        1 AR4     -0.602800
     21 H           5.5030    1.7900    0.6910 hn        1 AR4      0.335300
     22 H2          4.9530    1.4730   -0.7870 hn        1 AR4      0.335300
     23 HA          3.6200    0.7260    1.7030 h1        1 AR4      0.040700
     24 HB2         3.1410   -0.1440   -1.2430 hc        1 AR4      0.066700
     25 HB3         2.4920   -0.9920    0.2210 hc        1 AR4      0.066700
     26 HG2         1.3150    1.0890    0.9420 hc        1 AR4      0.080700
     27 HG3         2.0530    2.0210   -0.4340 hc        1 AR4      0.080700
     28 H5'        -2.2860   -3.4660   -0.3780 ho        1 AR4      0.421000
     29 H5'1       -4.2390   -2.3310   -1.1020 h1        1 AR4      0.051700
     30 H5'2       -4.7110   -2.4700    0.6720 h1        1 AR4      0.051700
     31 H4'        -2.4970   -1.2620    1.2540 h1        1 AR4      0.087700
     32 H1'        -1.7080    0.4090   -2.2090 h2        1 AR4      0.126700
     33 H3'        -4.8640   -0.0100   -0.2710 h1        1 AR4      0.098700
     34 H3'1       -3.4380    0.9210    1.9780 ho        1 AR4      0.429000
     35 HO2'       -1.7420    2.5010    0.1520 ho        1 AR4      0.442000
@<TRIPOS>BOND
     1    1    2 1   
     2    1   21 1   
     3    1   22 1   
     4    2    3 1   
     5    2    8 1   
     6    2   23 1   
     7    3    4 1   
     8    3   24 1   
     9    3   25 1   
    10    4    5 1   
    11    4   26 1   
    12    4   27 1   
    13    5    6 2   
    14    5    7 1   
    15    7   14 1   
    16    8    9 1   
    17    8   19 1   
    18   10   11 1   
    19   10   28 1   
    20   11   12 1   
    21   11   29 1   
    22   11   30 1   
    23   12   13 1   
    24   12   17 1   
    25   12   31 1   
    26   13   14 1   
    27   14   15 1   
    28   14   32 1   
    29   15   16 1   
    30   15   17 1   
    31   15   20 1   
    32   17   18 1   
    33   17   33 1   
    34   18   34 1   
    35   20   35 1   
@<TRIPOS>SUBSTRUCTURE
     1 AR4         1 TEMP              0 ****  ****    0 ROOT
