@<TRIPOS>MOLECULE
AR7
   29    27     1     0     0
SMALL
bcc


@<TRIPOS>ATOM
      1 N          -2.2980   -1.2710    2.0260 n3        1 AR7     -0.906800
      2 CA         -0.9080   -1.3460    1.8350 c3        1 AR7      0.150500
      3 C          -0.2180   -1.4810    3.1840 c3        1 AR7      0.291900
      4 O          -0.8660   -0.6490    4.1290 oh        1 AR7     -0.631300
      5 CB         -0.4210   -0.0780    1.1370 c3        1 AR7     -0.075400
      6 CG         -0.1340   -0.3870   -0.3530 c3        1 AR7     -0.089400
      7 CD          0.3810    0.8890   -1.0520 c3        1 AR7      0.191800
      8 NE          0.6020    0.6160   -2.4540 nh        1 AR7     -0.827200
      9 CZ          1.0380    1.6650   -3.3350 c2        1 AR7      0.981100
     10 NH1         0.1560    2.4070   -3.9590 n2        1 AR7     -0.897100
     11 NH2         2.4260    1.8990   -3.5280 nh        1 AR7     -0.935800
     12 OXT        -0.2850   -2.8310    3.6180 oh        1 AR7     -0.631300
     13 H          -2.7200   -1.3410    1.2190 hn        1 AR7      0.364800
     14 H2         -2.5690   -1.9550    2.5730 hn        1 AR7      0.364800
     15 HA         -0.6960   -2.1280    1.2790 h1        1 AR7      0.078700
     16 HF          0.7220   -1.2110    3.1000 h2        1 AR7      0.077700
     17 H1         -0.3790   -0.6130    4.8780 ho        1 AR7      0.425500
     18 HB1         0.3980    0.2370    1.5690 hc        1 AR7      0.057200
     19 HB2        -1.1120    0.6160    1.2000 hc        1 AR7      0.057200
     20 HG1         0.5400   -1.0860   -0.4150 hc        1 AR7      0.074200
     21 HG2        -0.9560   -0.6870   -0.7880 hc        1 AR7      0.074200
     22 HD1        -0.2830    1.6030   -0.9590 h1        1 AR7      0.066200
     23 HD2         1.2260    1.1720   -0.6370 h1        1 AR7      0.066200
     24 HNE         0.5070   -0.2300   -2.7730 hn        1 AR7      0.481800
     25 HN11       -0.7430    2.2580   -3.8360 DU        1 AR7      0.279000
     26 HN21        2.6990    2.5380   -4.1250 hn        1 AR7      0.481800
     27 HN22        3.0410    1.3300   -3.1550 hn        1 AR7      0.481800
     28 HXT         0.4160   -3.0100    4.1420 ho        1 AR7      0.425500
     29 HN12        0.4360    3.0740   -4.5190 hn        1 AR7      0.520400
@<TRIPOS>BOND
     1    1    2 1   
     2    1   13 1   
     3    1   14 1   
     4    2    3 1   
     5    2    5 1   
     6    2   15 1   
     7    3    4 1   
     8    3   12 1   
     9    3   16 1   
    10    4   17 1   
    11    5    6 1   
    12    5   18 1   
    13    5   19 1   
    14    6    7 1   
    15    6   20 1   
    16    6   21 1   
    17    7    8 1   
    18    7   22 1   
    19    7   23 1   
    20    8    9 1   
    21    8   24 1   
    22    9   10 2   
    23    9   11 1   
    24   10   29 1   
    25   11   26 1   
    26   11   27 1   
    27   12   28 1   
@<TRIPOS>SUBSTRUCTURE
     1 AR7         1 TEMP              0 ****  ****    0 ROOT
