@<TRIPOS>MOLECULE
AR7
   29    28     1     0     0
SMALL
bcc


@<TRIPOS>ATOM
      1 N           2.2620   -1.1030    1.5980 n3        1 AR7     -0.904800
      2 CA          2.1800   -0.4430    0.3140 c3        1 AR7      0.145500
      3 C           3.3840    0.5010    0.0210 c3        1 AR7      0.290900
      4 O           4.6230   -0.1320    0.2140 oh        1 AR7     -0.629800
      5 CB          0.8940    0.3740    0.1400 c3        1 AR7     -0.073400
      6 CG         -0.3260   -0.5220    0.1950 c3        1 AR7     -0.089400
      7 CD         -1.5700    0.2990   -0.1470 c3        1 AR7      0.015300
      8 NE         -2.7820   -0.4950   -0.0770 nh        1 AR7     -0.397100
      9 CZ         -4.0330    0.0080   -0.3530 cz        1 AR7      0.522300
     10 NH1        -4.2000    1.3240   -0.7220 nh        1 AR7     -0.507700
     11 NH2        -5.1360   -0.8160   -0.2600 nh        1 AR7     -0.507700
     12 OXT         3.3320    0.8410   -1.3440 oh        1 AR7     -0.629800
     13 H           3.1110   -1.6360    1.6540 hn        1 AR7      0.363800
     14 H2          2.2490   -0.4370    2.3450 hn        1 AR7      0.363800
     15 HA          2.1950   -1.2510   -0.4780 h1        1 AR7      0.076700
     16 HF          3.3930    1.4040    0.6940 h2        1 AR7      0.076700
     17 H1          4.6780   -0.8840   -0.3900 ho        1 AR7      0.426000
     18 HB1         0.8260    1.1640    0.9320 hc        1 AR7      0.060200
     19 HB2         0.9550    0.8890   -0.8560 hc        1 AR7      0.060200
     20 HG1        -0.2060   -1.3650   -0.5360 hc        1 AR7      0.073700
     21 HG2        -0.4220   -0.9700    1.2200 hc        1 AR7      0.073700
     22 HD1        -1.6530    1.1610    0.5780 h1        1 AR7      0.066700
     23 HD2        -1.4610    0.7130   -1.1920 h1        1 AR7      0.066700
     24 HNE        -2.6860   -1.4520    0.1950 hn        1 AR7      0.325700
     25 HN11       -3.4170    1.9330   -0.8000 hn        1 AR7      0.326950
     26 HN21       -5.0400   -1.7690    0.0070 hn        1 AR7      0.326950
     27 HN22       -6.0480   -0.4730   -0.4560 hn        1 AR7      0.326950
     28 HXT         4.0950    1.4030   -1.5350 ho        1 AR7      0.426000
     29 HN12       -5.1030    1.6860   -0.9270 hn        1 AR7      0.326950
@<TRIPOS>BOND
     1    1    2 1   
     2    1   13 1   
     3    1   14 1   
     4    2    3 1   
     5    2    5 1   
     6    2   15 1   
     7    3    4 1   
     8    3   12 1   
     9    3   16 1   
    10    4   17 1   
    11    5    6 1   
    12    5   18 1   
    13    5   19 1   
    14    6    7 1   
    15    6   20 1   
    16    6   21 1   
    17    7    8 1   
    18    7   22 1   
    19    7   23 1   
    20    8    9 2   
    21    8   24 1   
    22    9   10 1   
    23    9   11 1   
    24   10   25 1   
    25   10   29 1   
    26   11   26 1   
    27   11   27 1   
    28   12   28 1   
@<TRIPOS>SUBSTRUCTURE
     1 AR7         1 TEMP              0 ****  ****    0 ROOT
