@<TRIPOS>MOLECULE
AR9
   76    76     1     0     0
SMALL
bcc


@<TRIPOS>ATOM
      1 N1          0.6460    1.1060    1.1160 n         1 AR9     -0.535900
      2 C3          0.6960   -0.0700    0.2740 c3        1 AR9      0.057700
      3 C5          0.7890   -1.3490    1.1300 c3        1 AR9     -0.092400
      4 C8          1.5450   -2.4770    0.4340 c3        1 AR9     -0.068700
      5 C10         3.0380   -2.3660    0.7100 c3        1 AR9     -0.081400
      6 C13         3.8430   -3.4030   -0.0460 c3        1 AR9     -0.075400
      7 C16         5.3370   -3.1850    0.0850 c3        1 AR9     -0.075400
      8 C19         5.8120   -1.9140   -0.5920 c3        1 AR9     -0.084400
      9 C22         6.1480   -0.8260    0.4080 c3        1 AR9     -0.074400
     10 C25         6.3960    0.5070   -0.2750 c3        1 AR9     -0.070400
     11 C28         5.5100    1.6140    0.2540 c3        1 AR9     -0.151400
     12 C31         4.0950    1.5520   -0.3090 c         1 AR9      0.665100
     13 N32         3.2610    2.5840    0.0830 n         1 AR9     -0.573900
     14 C34         1.9140    2.8360   -0.3460 c3        1 AR9      0.067700
     15 C36         0.8780    2.4090    0.7230 c         1 AR9      0.615100
     16 O37         0.3070    3.3230    1.3580 o         1 AR9     -0.617100
     17 C38         1.5380    2.3600   -1.7410 c3        1 AR9     -0.109100
     18 O42         3.7220    0.6590   -1.0940 o         1 AR9     -0.606100
     19 C43         0.9910   -3.8120    0.8910 c3        1 AR9     -0.094100
     20 C47        -0.5260   -0.1250   -0.7000 c3        1 AR9      0.111100
     21 O49        -0.2780   -1.0600   -1.7340 oh        1 AR9     -0.593800
     22 C51        -1.8530   -0.3930    0.0030 c3        1 AR9     -0.102400
     23 C54        -3.0300    0.2540   -0.7150 c3        1 AR9     -0.129700
     24 C56        -3.3060   -0.4110   -2.0470 c3        1 AR9     -0.102100
     25 C60        -4.2720    0.1590    0.1750 c         1 AR9      0.654100
     26 O61        -4.2980   -0.5630    1.1910 o         1 AR9     -0.612100
     27 N62        -5.3510    0.9460   -0.1780 n         1 AR9     -0.564900
     28 C64        -6.6160    0.8780    0.5000 c3        1 AR9      0.083000
     29 C67        -7.7430    0.2450   -0.3180 c3        1 AR9     -0.105400
     30 C70        -9.0340    0.2740    0.4710 c3        1 AR9     -0.078400
     31 C73       -10.1680   -0.3430   -0.3080 c3        1 AR9     -0.093100
     32 HN1        -0.0060    1.0260    1.8730 hn        1 AR9      0.301500
     33 H3          1.6310   -0.0120   -0.3650 h1        1 AR9      0.108700
     34 H5          1.3060   -1.1270    2.1020 hc        1 AR9      0.052700
     35 H5A        -0.2460   -1.6940    1.3900 hc        1 AR9      0.052700
     36 H8          1.4070   -2.3960   -0.6810 hc        1 AR9      0.057700
     37 H10         3.3760   -1.3390    0.3980 hc        1 AR9      0.048700
     38 H10A        3.2310   -2.4710    1.8090 hc        1 AR9      0.048700
     39 H13         3.5960   -4.4260    0.3450 hc        1 AR9      0.038700
     40 H13A        3.5560   -3.3810   -1.1310 hc        1 AR9      0.038700
     41 H16         5.6160   -3.1730    1.1720 hc        1 AR9      0.036700
     42 H16A        5.8600   -4.0640   -0.3770 hc        1 AR9      0.036700
     43 H19         6.7210   -2.1340   -1.2100 hc        1 AR9      0.051200
     44 H19A        5.0190   -1.5320   -1.2920 hc        1 AR9      0.051200
     45 H22         5.3040   -0.7320    1.1430 hc        1 AR9      0.038200
     46 H22A        7.0560   -1.1250    0.9950 hc        1 AR9      0.038200
     47 H25         7.4650    0.8120   -0.1190 hc        1 AR9      0.053200
     48 H25A        6.2360    0.4100   -1.3830 hc        1 AR9      0.053200
     49 H28         5.4600    1.5650    1.3740 hc        1 AR9      0.063700
     50 H28A        5.9580    2.6050   -0.0270 hc        1 AR9      0.063700
     51 HN32        3.5770    3.1750    0.8180 hn        1 AR9      0.315500
     52 H34         1.8100    3.9730   -0.3620 h1        1 AR9      0.075700
     53 H38         1.6090    1.2520   -1.8580 hc        1 AR9      0.060367
     54 H38A        0.4920    2.6870   -1.9570 hc        1 AR9      0.060367
     55 H38B        2.2210    2.8250   -2.4940 hc        1 AR9      0.060367
     56 H43        -0.1080   -3.8650    0.6980 hc        1 AR9      0.035033
     57 H43A        1.4830   -4.6490    0.3380 hc        1 AR9      0.035033
     58 H43B        1.1670   -3.9560    1.9840 hc        1 AR9      0.035033
     59 H47        -0.5770    0.8610   -1.2540 h1        1 AR9      0.072700
     60 HO49       -0.3960   -1.9440   -1.3630 ho        1 AR9      0.405000
     61 H51        -2.0370   -1.4980    0.0720 hc        1 AR9      0.065700
     62 H51A       -1.8250   -0.0020    1.0540 hc        1 AR9      0.065700
     63 H54        -2.7930    1.3420   -0.8850 hc        1 AR9      0.067700
     64 H56        -4.0590    0.1690   -2.6320 hc        1 AR9      0.048367
     65 H56A       -2.3600   -0.4710   -2.6410 hc        1 AR9      0.048367
     66 H56B       -3.6920   -1.4480   -1.8970 hc        1 AR9      0.048367
     67 HN62       -5.3390    1.3960   -1.0620 hn        1 AR9      0.304500
     68 H64        -6.4830    0.2940    1.4570 h1        1 AR9      0.063200
     69 H64A       -6.9170    1.9320    0.7730 h1        1 AR9      0.063200
     70 H67        -7.8800    0.8000   -1.2830 hc        1 AR9      0.043700
     71 H67A       -7.4830   -0.8140   -0.5750 hc        1 AR9      0.043700
     72 H70        -8.8950   -0.2810    1.4360 hc        1 AR9      0.042700
     73 H70A       -9.2910    1.3350    0.7330 hc        1 AR9      0.042700
     74 H73        -9.9410   -1.4080   -0.5570 hc        1 AR9      0.034033
     75 H73A      -11.1100   -0.3130    0.2910 hc        1 AR9      0.034033
     76 H73B      -10.3390    0.2110   -1.2620 hc        1 AR9      0.034033
@<TRIPOS>BOND
     1    1    2 1   
     2    1   15 1   
     3    1   32 1   
     4    2    3 1   
     5    2   20 1   
     6    2   33 1   
     7    3    4 1   
     8    3   34 1   
     9    3   35 1   
    10    4    5 1   
    11    4   19 1   
    12    4   36 1   
    13    5    6 1   
    14    5   37 1   
    15    5   38 1   
    16    6    7 1   
    17    6   39 1   
    18    6   40 1   
    19    7    8 1   
    20    7   41 1   
    21    7   42 1   
    22    8    9 1   
    23    8   43 1   
    24    8   44 1   
    25    9   10 1   
    26    9   45 1   
    27    9   46 1   
    28   10   11 1   
    29   10   47 1   
    30   10   48 1   
    31   11   12 1   
    32   11   49 1   
    33   11   50 1   
    34   12   13 1   
    35   12   18 2   
    36   13   14 1   
    37   13   51 1   
    38   14   15 1   
    39   14   17 1   
    40   14   52 1   
    41   15   16 2   
    42   17   53 1   
    43   17   54 1   
    44   17   55 1   
    45   19   56 1   
    46   19   57 1   
    47   19   58 1   
    48   20   21 1   
    49   20   22 1   
    50   20   59 1   
    51   21   60 1   
    52   22   23 1   
    53   22   61 1   
    54   22   62 1   
    55   23   24 1   
    56   23   25 1   
    57   23   63 1   
    58   24   64 1   
    59   24   65 1   
    60   24   66 1   
    61   25   26 2   
    62   25   27 1   
    63   27   28 1   
    64   27   67 1   
    65   28   29 1   
    66   28   68 1   
    67   28   69 1   
    68   29   30 1   
    69   29   70 1   
    70   29   71 1   
    71   30   31 1   
    72   30   72 1   
    73   30   73 1   
    74   31   74 1   
    75   31   75 1   
    76   31   76 1   
@<TRIPOS>SUBSTRUCTURE
     1 AR9         1 TEMP              0 ****  ****    0 ROOT
