@<TRIPOS>MOLECULE
AR9
   79    79     1     0     0
SMALL
bcc


@<TRIPOS>ATOM
      1 N1          0.4120    0.5070   -0.4770 n4        1 AR9     -0.656800
      2 C3          1.5300   -0.5240   -0.4880 c3        1 AR9      0.145500
      3 C5          1.9010   -0.8850    0.9590 c3        1 AR9     -0.125400
      4 C8          3.1490   -0.1600    1.4590 c3        1 AR9     -0.074700
      5 C10         2.8590    1.3020    1.7700 c3        1 AR9     -0.070400
      6 C13         4.1030    2.0930    2.1180 c3        1 AR9     -0.084400
      7 C16         3.8080    3.5570    2.3760 c3        1 AR9     -0.089400
      8 C19         3.4680    4.3530    1.1300 c3        1 AR9     -0.081400
      9 C22         1.9860    4.6580    1.0310 c3        1 AR9     -0.094400
     10 C25         1.6580    5.4270   -0.2330 c3        1 AR9     -0.095400
     11 C28         0.1770    5.3830   -0.5760 c3        1 AR9     -0.156400
     12 C31        -0.2350    3.9750   -0.8800 c         1 AR9      0.597100
     13 N32        -0.0600    3.4980   -2.3300 n4        1 AR9     -0.705800
     14 C34         0.7230    2.2190   -2.4690 c3        1 AR9      0.077500
     15 C36        -0.0280    1.0570   -1.7940 c         1 AR9      0.530100
     16 O37        -1.0380    0.5800   -2.2900 o         1 AR9     -0.353100
     17 C38         2.1720    2.3880   -2.0580 c3        1 AR9     -0.162100
     18 O42        -0.6510    3.1060   -0.1290 o         1 AR9     -0.474100
     19 C43         3.6650   -0.8810    2.6910 c3        1 AR9     -0.101100
     20 C47         1.1430   -1.7980   -1.2940 c3        1 AR9      0.129100
     21 O49         0.5940   -1.3160   -2.5140 oh        1 AR9     -0.640800
     22 C51         2.3880   -2.6440   -1.5780 c3        1 AR9     -0.120400
     23 C54         2.0710   -4.1110   -1.8720 c3        1 AR9     -0.126700
     24 C56         3.1560   -4.7150   -2.7420 c3        1 AR9     -0.134100
     25 C60         1.8860   -4.8720   -0.5700 c         1 AR9      0.535100
     26 O61         1.5980   -4.3680    0.5070 o         1 AR9     -0.429100
     27 N62         2.0510   -6.3630   -0.6200 n4        1 AR9     -0.669800
     28 C64         1.6990   -7.0610    0.6650 c3        1 AR9      0.108800
     29 C67         1.8930   -8.5680    0.5650 c3        1 AR9     -0.113400
     30 C70         1.5180   -9.2030    1.8950 c3        1 AR9     -0.074400
     31 C73         1.6980  -10.6990    1.8350 c3        1 AR9     -0.104100
     32 HN1        -0.4150    0.0590   -0.0450 hn        1 AR9      0.480800
     33 H3          2.4080   -0.0350   -1.0040 hx        1 AR9      0.111700
     34 H5          2.0830   -1.9960    1.0060 hc        1 AR9      0.093200
     35 H5A         1.0540   -0.6910    1.6730 hc        1 AR9      0.093200
     36 H8          3.9440   -0.2100    0.6620 hc        1 AR9      0.056700
     37 H10         2.3900    1.7840    0.8690 hc        1 AR9      0.014200
     38 H10A        2.1250    1.3700    2.6170 hc        1 AR9      0.014200
     39 H13         4.8590    1.9940    1.2950 hc        1 AR9      0.066700
     40 H13A        4.5670    1.6610    3.0470 hc        1 AR9      0.066700
     41 H16         2.9810    3.6450    3.1310 hc        1 AR9      0.074200
     42 H16A        4.7230    4.0100    2.8490 hc        1 AR9      0.074200
     43 H19         4.0340    5.3240    1.1470 hc        1 AR9      0.051700
     44 H19A        3.8040    3.7980    0.2130 hc        1 AR9      0.051700
     45 H22         1.4030    3.6970    1.0600 hc        1 AR9      0.046700
     46 H22A        1.6690    5.2570    1.9270 hc        1 AR9      0.046700
     47 H25         1.9400    6.5100   -0.0920 hc        1 AR9      0.083200
     48 H25A        2.2610    5.0420   -1.0980 hc        1 AR9      0.083200
     49 H28        -0.0530    6.0790   -1.4280 hc        1 AR9      0.139200
     50 H28A       -0.4350    5.7190    0.3150 hc        1 AR9      0.139200
     51 HN32        0.4360    4.2300   -2.8630 hn        1 AR9      0.489300
     52 H34         0.7040    1.9500   -3.5830 hx        1 AR9      0.172700
     53 H38         2.7340    1.4480   -2.2940 hc        1 AR9      0.103367
     54 H38A        2.6600    3.2040   -2.6570 hc        1 AR9      0.103367
     55 H38B        2.2920    2.6410   -0.9740 hc        1 AR9      0.103367
     56 H43         4.6400   -0.4400    3.0160 hc        1 AR9      0.062367
     57 H43A        3.8330   -1.9640    2.4720 hc        1 AR9      0.062367
     58 H43B        2.9390   -0.7950    3.5360 hc        1 AR9      0.062367
     59 H47         0.3780   -2.3920   -0.7210 h1        1 AR9      0.077700
     60 HO49        0.2090   -2.0610   -2.9960 ho        1 AR9      0.459000
     61 H51         2.9060   -2.2090   -2.4780 hc        1 AR9      0.099200
     62 H51A        3.1050   -2.5790   -0.7170 hc        1 AR9      0.099200
     63 H54         1.0840   -4.1780   -2.4190 hc        1 AR9      0.104700
     64 H56         2.8630   -5.7240   -3.1250 hc        1 AR9      0.081700
     65 H56A        4.1260   -4.7900   -2.1920 hc        1 AR9      0.081700
     66 H56B        3.3240   -4.0680   -3.6420 hc        1 AR9      0.081700
     67 HN62        3.0330   -6.5740   -0.8550 hn        1 AR9      0.471300
     68 H64         2.3530   -6.6320    1.4780 hx        1 AR9      0.114700
     69 H64A        0.6250   -6.8160    0.9030 hx        1 AR9      0.114700
     70 H67         2.9620   -8.8170    0.3270 hc        1 AR9      0.073200
     71 H67A        1.2470   -9.0000   -0.2450 hc        1 AR9      0.073200
     72 H70         2.1610   -8.7780    2.7110 hc        1 AR9      0.057700
     73 H70A        0.4510   -8.9600    2.1410 hc        1 AR9      0.057700
     74 H73         2.7600  -10.9660    1.6160 hc        1 AR9      0.060367
     75 H73A        1.0480  -11.1490    1.0460 hc        1 AR9      0.060367
     76 H73B        1.4180  -11.1510    2.8190 hc        1 AR9      0.060367
     77 H12         0.7080    1.2850    0.1370 hn        1 AR9      0.480800
     78 H322       -0.9940    3.3680   -2.7500 hn        1 AR9      0.489300
     79 H622        1.4640   -6.7400   -1.3760 hn        1 AR9      0.471300
@<TRIPOS>BOND
     1    1    2 1   
     2    1   15 1   
     3    1   32 1   
     4    1   77 1   
     5    2    3 1   
     6    2   20 1   
     7    2   33 1   
     8    3    4 1   
     9    3   34 1   
    10    3   35 1   
    11    4    5 1   
    12    4   19 1   
    13    4   36 1   
    14    5    6 1   
    15    5   37 1   
    16    5   38 1   
    17    6    7 1   
    18    6   39 1   
    19    6   40 1   
    20    7    8 1   
    21    7   41 1   
    22    7   42 1   
    23    8    9 1   
    24    8   43 1   
    25    8   44 1   
    26    9   10 1   
    27    9   45 1   
    28    9   46 1   
    29   10   11 1   
    30   10   47 1   
    31   10   48 1   
    32   11   12 1   
    33   11   49 1   
    34   11   50 1   
    35   12   13 1   
    36   12   18 2   
    37   13   14 1   
    38   13   51 1   
    39   13   78 1   
    40   14   15 1   
    41   14   17 1   
    42   14   52 1   
    43   15   16 2   
    44   17   53 1   
    45   17   54 1   
    46   17   55 1   
    47   19   56 1   
    48   19   57 1   
    49   19   58 1   
    50   20   21 1   
    51   20   22 1   
    52   20   59 1   
    53   21   60 1   
    54   22   23 1   
    55   22   61 1   
    56   22   62 1   
    57   23   24 1   
    58   23   25 1   
    59   23   63 1   
    60   24   64 1   
    61   24   65 1   
    62   24   66 1   
    63   25   26 2   
    64   25   27 1   
    65   27   28 1   
    66   27   67 1   
    67   27   79 1   
    68   28   29 1   
    69   28   68 1   
    70   28   69 1   
    71   29   30 1   
    72   29   70 1   
    73   29   71 1   
    74   30   31 1   
    75   30   72 1   
    76   30   73 1   
    77   31   74 1   
    78   31   75 1   
    79   31   76 1   
@<TRIPOS>SUBSTRUCTURE
     1 AR9         1 TEMP              0 ****  ****    0 ROOT
