@<TRIPOS>MOLECULE
AR9
   76    76     1     0     0
SMALL
bcc


@<TRIPOS>ATOM
      1 N1         -1.7860   -0.1700    0.4100 n         1 AR9     -0.553900
      2 C3         -0.3570   -0.1990    0.4160 c3        1 AR9      0.068700
      3 C5          0.1430   -0.2020    1.8450 c3        1 AR9     -0.093400
      4 C8          0.8200    1.1460    2.1560 c3        1 AR9     -0.072700
      5 C10         0.3570    1.6480    3.5130 c3        1 AR9     -0.073400
      6 C13         0.3960    3.2080    3.5310 c3        1 AR9     -0.086400
      7 C16        -0.4710    3.7420    4.7110 c3        1 AR9     -0.086400
      8 C19        -1.3110    4.9920    4.2300 c3        1 AR9     -0.083400
      9 C22        -2.8250    4.8360    4.7100 c3        1 AR9     -0.082400
     10 C25        -3.7470    4.6770    3.4810 c3        1 AR9     -0.079400
     11 C28        -4.4920    3.3190    3.5610 c3        1 AR9     -0.153400
     12 C31        -4.7970    2.7850    2.0680 c         1 AR9      0.656100
     13 N32        -3.5040    2.3730    1.3860 n         1 AR9     -0.569900
     14 C34        -3.7490    1.2510    0.5050 c3        1 AR9      0.039700
     15 C36        -2.4900    0.9230   -0.2530 c         1 AR9      0.648100
     16 O37        -1.8640    1.8050   -0.7980 o         1 AR9     -0.618100
     17 C38        -4.8480    1.6050   -0.4710 c3        1 AR9     -0.113100
     18 O42        -5.8350    2.1810    1.8320 o         1 AR9     -0.612100
     19 C43         2.2990    0.9670    2.1720 c3        1 AR9     -0.089100
     20 C47         0.1250   -1.4510   -0.2930 c3        1 AR9      0.120100
     21 O49        -0.9300   -2.3440   -0.4230 oh        1 AR9     -0.609800
     22 C51         0.6580   -1.0780   -1.6920 c3        1 AR9     -0.062400
     23 C54         0.8120   -2.3490   -2.5420 c3        1 AR9     -0.136700
     24 C56        -0.0910   -2.2640   -3.7300 c3        1 AR9     -0.092100
     25 C60         2.2570   -2.4750   -3.0110 c         1 AR9      0.654100
     26 O61         2.9860   -1.4930   -3.0110 o         1 AR9     -0.616100
     27 N62         2.7330   -3.7360   -3.5770 n         1 AR9     -0.564900
     28 C64         4.0920   -3.8300   -4.1150 c3        1 AR9      0.083000
     29 C67         4.1950   -5.0710   -5.0520 c3        1 AR9     -0.105400
     30 C70         5.7000   -5.3430   -5.4010 c3        1 AR9     -0.078400
     31 C73         5.7840   -6.3750   -6.5420 c3        1 AR9     -0.093100
     32 HN1        -2.2580   -0.8590    0.7800 hn        1 AR9      0.324500
     33 H3         -0.0140    0.5870   -0.0460 h1        1 AR9      0.095700
     34 H5         -0.6130   -0.3380    2.4560 hc        1 AR9      0.043200
     35 H5A         0.7920   -0.9280    1.9620 hc        1 AR9      0.043200
     36 H8          0.5790    1.7970    1.4680 hc        1 AR9      0.078700
     37 H10         0.9520    1.2970    4.2150 hc        1 AR9      0.038700
     38 H10A       -0.5490    1.3460    3.6770 hc        1 AR9      0.038700
     39 H13         0.0470    3.5490    2.6940 hc        1 AR9      0.048700
     40 H13A        1.3340    3.5140    3.6460 hc        1 AR9      0.048700
     41 H16        -1.0820    3.0350    5.0140 hc        1 AR9      0.040200
     42 H16A        0.1200    4.0100    5.4580 hc        1 AR9      0.040200
     43 H19        -1.2820    5.0490    3.2580 hc        1 AR9      0.042200
     44 H19A       -0.9280    5.8100    4.6170 hc        1 AR9      0.042200
     45 H22        -2.9050    4.0500    5.2790 hc        1 AR9      0.044200
     46 H22A       -3.0920    5.6360    5.2180 hc        1 AR9      0.044200
     47 H25        -4.3980    5.4030    3.4680 hc        1 AR9      0.048200
     48 H25A       -3.2130    4.7060    2.6680 hc        1 AR9      0.048200
     49 H28        -3.9360    2.6700    4.0320 hc        1 AR9      0.076200
     50 H28A       -5.3450    3.4380    4.0490 hc        1 AR9      0.076200
     51 HN32       -2.8900    3.0010    1.1620 hn        1 AR9      0.323500
     52 H34        -4.0210    0.4730    1.0340 h1        1 AR9      0.090700
     53 H38        -4.9590    2.5800   -0.5000 hc        1 AR9      0.053367
     54 H38A       -4.6090    1.2750   -1.3690 hc        1 AR9      0.053367
     55 H38B       -5.6930    1.1860   -0.1810 hc        1 AR9      0.053367
     56 H43         2.7210    1.7710    2.5360 hc        1 AR9      0.033367
     57 H43A        2.5300    0.1900    2.7340 hc        1 AR9      0.033367
     58 H43B        2.6190    0.8150    1.2570 hc        1 AR9      0.033367
     59 H47         0.8410   -1.8660    0.2290 h1        1 AR9      0.065700
     60 HO49       -0.7080   -3.1250   -0.0440 ho        1 AR9      0.404000
     61 H51         1.5250   -0.6410   -1.6030 hc        1 AR9      0.067200
     62 H51A        0.0320   -0.4710   -2.1270 hc        1 AR9      0.067200
     63 H54         0.5730   -3.1310   -2.0060 hc        1 AR9      0.084700
     64 H56        -0.0780   -3.1170   -4.2120 hc        1 AR9      0.043033
     65 H56A        0.2190   -1.5500   -4.3240 hc        1 AR9      0.043033
     66 H56B       -1.0020   -2.0700   -3.4350 hc        1 AR9      0.043033
     67 HN62        2.1930   -4.4720   -3.5710 hn        1 AR9      0.303500
     68 H64         4.2970   -3.0250   -4.6200 h1        1 AR9      0.061700
     69 H64A        4.7350   -3.9240   -3.3720 h1        1 AR9      0.061700
     70 H67         3.6940   -4.8980   -5.8790 hc        1 AR9      0.043700
     71 H67A        3.8170   -5.8550   -4.5980 hc        1 AR9      0.043700
     72 H70         6.1250   -4.5100   -5.6840 hc        1 AR9      0.042200
     73 H70A        6.1590   -5.6900   -4.6140 hc        1 AR9      0.042200
     74 H73         5.2250   -7.1540   -6.3210 hc        1 AR9      0.034367
     75 H73A        5.4680   -5.9720   -7.3690 hc        1 AR9      0.034367
     76 H73B        6.7160   -6.6640   -6.6540 hc        1 AR9      0.034367
@<TRIPOS>BOND
     1    1    2 1   
     2    1   15 1   
     3    1   32 1   
     4    2    3 1   
     5    2   20 1   
     6    2   33 1   
     7    3    4 1   
     8    3   34 1   
     9    3   35 1   
    10    4    5 1   
    11    4   19 1   
    12    4   36 1   
    13    5    6 1   
    14    5   37 1   
    15    5   38 1   
    16    6    7 1   
    17    6   39 1   
    18    6   40 1   
    19    7    8 1   
    20    7   41 1   
    21    7   42 1   
    22    8    9 1   
    23    8   43 1   
    24    8   44 1   
    25    9   10 1   
    26    9   45 1   
    27    9   46 1   
    28   10   11 1   
    29   10   47 1   
    30   10   48 1   
    31   11   12 1   
    32   11   49 1   
    33   11   50 1   
    34   12   13 1   
    35   12   18 2   
    36   13   14 1   
    37   13   51 1   
    38   14   15 1   
    39   14   17 1   
    40   14   52 1   
    41   15   16 2   
    42   17   53 1   
    43   17   54 1   
    44   17   55 1   
    45   19   56 1   
    46   19   57 1   
    47   19   58 1   
    48   20   21 1   
    49   20   22 1   
    50   20   59 1   
    51   21   60 1   
    52   22   23 1   
    53   22   61 1   
    54   22   62 1   
    55   23   24 1   
    56   23   25 1   
    57   23   63 1   
    58   24   64 1   
    59   24   65 1   
    60   24   66 1   
    61   25   26 2   
    62   25   27 1   
    63   27   28 1   
    64   27   67 1   
    65   28   29 1   
    66   28   68 1   
    67   28   69 1   
    68   29   30 1   
    69   29   70 1   
    70   29   71 1   
    71   30   31 1   
    72   30   72 1   
    73   30   73 1   
    74   31   74 1   
    75   31   75 1   
    76   31   76 1   
@<TRIPOS>SUBSTRUCTURE
     1 AR9         1 TEMP              0 ****  ****    0 ROOT
