@<TRIPOS>MOLECULE
AR9
   79    79     1     0     0
SMALL
bcc


@<TRIPOS>ATOM
      1 N1          1.7860    0.2750   -0.8270 n4        1 AR9     -0.663800
      2 C3          3.0780   -0.4550   -1.1420 c3        1 AR9      0.098500
      3 C5          4.0550   -0.3360    0.0320 c3        1 AR9     -0.120400
      4 C8          4.5820    1.0800    0.2510 c3        1 AR9     -0.078700
      5 C10         3.8910    1.7650    1.4260 c3        1 AR9     -0.089400
      6 C13         4.0240    3.2740    1.3570 c3        1 AR9     -0.083400
      7 C16         3.2030    3.9840    2.4180 c3        1 AR9     -0.090400
      8 C19         2.0970    4.8450    1.8390 c3        1 AR9     -0.087400
      9 C22         0.8840    4.0250    1.4520 c3        1 AR9     -0.081400
     10 C25        -0.0270    4.7840    0.5100 c3        1 AR9     -0.099400
     11 C28        -1.2160    3.9550    0.0520 c3        1 AR9     -0.157400
     12 C31        -0.7450    2.6940   -0.6060 c         1 AR9      0.600100
     13 N32        -0.3670    2.7920   -2.0920 n4        1 AR9     -0.704800
     14 C34         0.9380    2.1450   -2.4640 c3        1 AR9      0.071500
     15 C36         0.9820    0.6710   -2.0170 c         1 AR9      0.517100
     16 O37         0.3800   -0.2050   -2.6220 o         1 AR9     -0.371100
     17 C38         2.1380    2.9650   -2.0240 c3        1 AR9     -0.171100
     18 O42        -0.5730    1.5820   -0.1290 o         1 AR9     -0.480100
     19 C43         6.0830    1.0320    0.4810 c3        1 AR9     -0.102100
     20 C47         2.8610   -1.9450   -1.5650 c3        1 AR9      0.137100
     21 O49         4.0960   -2.3870   -2.0850 oh        1 AR9     -0.566800
     22 C51         2.4990   -2.8710   -0.4010 c3        1 AR9     -0.090400
     23 C54         2.5460   -4.3470   -0.8140 c3        1 AR9     -0.115700
     24 C56         3.9160   -4.9400   -0.5510 c3        1 AR9     -0.135100
     25 C60         1.4460   -5.1150   -0.1010 c         1 AR9      0.532100
     26 O61         0.4420   -4.6330    0.4040 o         1 AR9     -0.415100
     27 N62         1.6010   -6.6090   -0.0420 n4        1 AR9     -0.670800
     28 C64         0.4080   -7.3230    0.5280 c3        1 AR9      0.107800
     29 C67         0.6160   -8.8310    0.5780 c3        1 AR9     -0.112400
     30 C70        -0.6260   -9.4820    1.1640 c3        1 AR9     -0.074400
     31 C73        -0.4580  -10.9790    1.2300 c3        1 AR9     -0.103100
     32 HN1         2.0270    1.1150   -0.2730 hn        1 AR9      0.482300
     33 H3          3.5290    0.0760   -2.0370 hx        1 AR9      0.106700
     34 H5          3.5970   -0.7240    0.9800 hc        1 AR9      0.105700
     35 H5A         4.9130   -1.0240   -0.2290 hc        1 AR9      0.105700
     36 H8          4.3990    1.6880   -0.6820 hc        1 AR9      0.022700
     37 H10         2.8030    1.4870    1.4640 hc        1 AR9      0.039700
     38 H10A        4.3430    1.3990    2.3880 hc        1 AR9      0.039700
     39 H13         3.7300    3.6300    0.3330 hc        1 AR9      0.048200
     40 H13A        5.1080    3.5460    1.4870 hc        1 AR9      0.048200
     41 H16         3.8850    4.6520    3.0140 hc        1 AR9      0.073700
     42 H16A        2.7680    3.2450    3.1410 hc        1 AR9      0.073700
     43 H19         1.7890    5.6080    2.6060 hc        1 AR9      0.070200
     44 H19A        2.4820    5.4140    0.9520 hc        1 AR9      0.070200
     45 H22         0.3190    3.7350    2.3780 hc        1 AR9      0.028200
     46 H22A        1.2170    3.0670    0.9610 hc        1 AR9      0.028200
     47 H25        -0.4330    5.6940    1.0390 hc        1 AR9      0.090200
     48 H25A        0.5490    5.1540   -0.3790 hc        1 AR9      0.090200
     49 H28        -1.8370    3.6440    0.9460 hc        1 AR9      0.140700
     50 H28A       -1.8770    4.5570   -0.6290 hc        1 AR9      0.140700
     51 HN32       -1.1240    2.3600   -2.6460 hn        1 AR9      0.490800
     52 H34         0.9540    2.0920   -3.6090 hx        1 AR9      0.172700
     53 H38         3.0810    2.4170   -2.2810 hc        1 AR9      0.109033
     54 H38A        2.1320    3.2020   -0.9290 hc        1 AR9      0.109033
     55 H38B        2.1700    3.9400   -2.5840 hc        1 AR9      0.109033
     56 H43         6.4780    2.0630    0.6610 hc        1 AR9      0.066367
     57 H43A        6.6050    0.6070   -0.4100 hc        1 AR9      0.066367
     58 H43B        6.3260    0.4040    1.3720 hc        1 AR9      0.066367
     59 H47         2.0510   -1.9880   -2.3490 h1        1 AR9      0.064700
     60 HO49        4.1600   -2.1140   -3.0120 ho        1 AR9      0.442000
     61 H51         3.2220   -2.7210    0.4450 hc        1 AR9      0.081200
     62 H51A        1.4720   -2.5990   -0.0410 hc        1 AR9      0.081200
     63 H54         2.3190   -4.4260   -1.9200 hc        1 AR9      0.112700
     64 H56         4.1110   -5.0530    0.5430 hc        1 AR9      0.081033
     65 H56A        4.0400   -5.9280   -1.0580 hc        1 AR9      0.081033
     66 H56B        4.7010   -4.2570   -0.9720 hc        1 AR9      0.081033
     67 HN62        1.7830   -6.9640   -0.9900 hn        1 AR9      0.468300
     68 H64         0.2280   -6.9160    1.5650 hx        1 AR9      0.115200
     69 H64A       -0.4820   -7.0680   -0.1150 hx        1 AR9      0.115200
     70 H67         1.5030   -9.0890    1.2160 hc        1 AR9      0.072200
     71 H67A        0.7980   -9.2420   -0.4510 hc        1 AR9      0.072200
     72 H70        -0.8140   -9.0780    2.1940 hc        1 AR9      0.057200
     73 H70A       -1.5180   -9.2290    0.5320 hc        1 AR9      0.057200
     74 H73        -1.3790  -11.4430    1.6620 hc        1 AR9      0.059033
     75 H73A        0.4100  -11.2560    1.8760 hc        1 AR9      0.059033
     76 H73B       -0.2950  -11.4080    0.2120 hc        1 AR9      0.059033
     77 H12         1.2000   -0.3360   -0.2340 hn        1 AR9      0.482300
     78 H322       -0.3070    3.7900   -2.3510 hn        1 AR9      0.490800
     79 H622        2.4270   -6.8270    0.5340 hn        1 AR9      0.468300
@<TRIPOS>BOND
     1    1    2 1   
     2    1   15 1   
     3    1   32 1   
     4    1   77 1   
     5    2    3 1   
     6    2   20 1   
     7    2   33 1   
     8    3    4 1   
     9    3   34 1   
    10    3   35 1   
    11    4    5 1   
    12    4   19 1   
    13    4   36 1   
    14    5    6 1   
    15    5   37 1   
    16    5   38 1   
    17    6    7 1   
    18    6   39 1   
    19    6   40 1   
    20    7    8 1   
    21    7   41 1   
    22    7   42 1   
    23    8    9 1   
    24    8   43 1   
    25    8   44 1   
    26    9   10 1   
    27    9   45 1   
    28    9   46 1   
    29   10   11 1   
    30   10   47 1   
    31   10   48 1   
    32   11   12 1   
    33   11   49 1   
    34   11   50 1   
    35   12   13 1   
    36   12   18 2   
    37   13   14 1   
    38   13   51 1   
    39   13   78 1   
    40   14   15 1   
    41   14   17 1   
    42   14   52 1   
    43   15   16 2   
    44   17   53 1   
    45   17   54 1   
    46   17   55 1   
    47   19   56 1   
    48   19   57 1   
    49   19   58 1   
    50   20   21 1   
    51   20   22 1   
    52   20   59 1   
    53   21   60 1   
    54   22   23 1   
    55   22   61 1   
    56   22   62 1   
    57   23   24 1   
    58   23   25 1   
    59   23   63 1   
    60   24   64 1   
    61   24   65 1   
    62   24   66 1   
    63   25   26 2   
    64   25   27 1   
    65   27   28 1   
    66   27   67 1   
    67   27   79 1   
    68   28   29 1   
    69   28   68 1   
    70   28   69 1   
    71   29   30 1   
    72   29   70 1   
    73   29   71 1   
    74   30   31 1   
    75   30   72 1   
    76   30   73 1   
    77   31   74 1   
    78   31   75 1   
    79   31   76 1   
@<TRIPOS>SUBSTRUCTURE
     1 AR9         1 TEMP              0 ****  ****    0 ROOT
