@<TRIPOS>MOLECULE
AR9
   79    79     1     0     0
SMALL
bcc


@<TRIPOS>ATOM
      1 N1          0.4050    0.5080   -0.4540 ny        1 AR9     -0.656800
      2 C3          1.5230   -0.5220   -0.4810 c3        1 AR9      0.145500
      3 C5          1.9100   -0.8900    0.9600 c3        1 AR9     -0.125400
      4 C8          3.1620   -0.1650    1.4510 c3        1 AR9     -0.074700
      5 C10         2.8730    1.2940    1.7720 c3        1 AR9     -0.070400
      6 C13         4.1200    2.0850    2.1120 c3        1 AR9     -0.084400
      7 C16         3.8240    3.5470    2.3810 c3        1 AR9     -0.089400
      8 C19         3.4710    4.3490    1.1420 c3        1 AR9     -0.081400
      9 C22         1.9890    4.6530    1.0590 c3        1 AR9     -0.094400
     10 C25         1.6470    5.4280   -0.1970 c3        1 AR9     -0.095400
     11 C28         0.1620    5.3840   -0.5250 c3        1 AR9     -0.156400
     12 C31        -0.2510    3.9770   -0.8330 c         1 AR9      0.597100
     13 N32        -0.0900    3.5080   -2.2870 ny        1 AR9     -0.705800
     14 C34         0.6930    2.2300   -2.4400 c3        1 AR9      0.077500
     15 C36        -0.0500    1.0640   -1.7630 c         1 AR9      0.530100
     16 O37        -1.0640    0.5880   -2.2510 o         1 AR9     -0.353100
     17 C38         2.1460    2.3980   -2.0430 c3        1 AR9     -0.162100
     18 O42        -0.6580    3.1030   -0.0810 o         1 AR9     -0.474100
     19 C43         3.6920   -0.8930    2.6740 c3        1 AR9     -0.101100
     20 C47         1.1300   -1.7920   -1.2900 c3        1 AR9      0.129100
     21 O49         0.5670   -1.3050   -2.5010 oh        1 AR9     -0.640800
     22 C51         2.3730   -2.6350   -1.5910 c3        1 AR9     -0.120400
     23 C54         2.0540   -4.1010   -1.8890 c3        1 AR9     -0.126700
     24 C56         3.1300   -4.6990   -2.7750 c3        1 AR9     -0.134100
     25 C60         1.8850   -4.8690   -0.5890 c         1 AR9      0.535100
     26 O61         1.6080   -4.3710    0.4940 o         1 AR9     -0.429100
     27 N62         2.0520   -6.3600   -0.6480 ny        1 AR9     -0.669800
     28 C64         1.7180   -7.0640    0.6380 c3        1 AR9      0.108800
     29 C67         1.9130   -8.5710    0.5280 c3        1 AR9     -0.113400
     30 C70         1.5560   -9.2130    1.8590 c3        1 AR9     -0.074400
     31 C73         1.7380  -10.7080    1.7900 c3        1 AR9     -0.104100
     32 HN1         0.7060    1.2830    0.1610 hn        1 AR9      0.480800
     33 H3          2.3960   -0.0290   -1.0040 hx        1 AR9      0.111700
     34 H5          1.0700   -0.7010    1.6830 hc        1 AR9      0.093200
     35 H5A         2.0940   -2.0010    0.9990 hc        1 AR9      0.093200
     36 H8          3.9490   -0.2100    0.6450 hc        1 AR9      0.056700
     37 H10         2.1470    1.3570    2.6260 hc        1 AR9      0.014200
     38 H10A        2.3940    1.7800    0.8790 hc        1 AR9      0.014200
     39 H13         4.5930    1.6490    3.0340 hc        1 AR9      0.066700
     40 H13A        4.8670    1.9920    1.2810 hc        1 AR9      0.066700
     41 H16         4.7440    3.9990    2.8460 hc        1 AR9      0.074200
     42 H16A        3.0060    3.6310    3.1440 hc        1 AR9      0.074200
     43 H19         3.7990    3.8000    0.2190 hc        1 AR9      0.051700
     44 H19A        4.0360    5.3210    1.1580 hc        1 AR9      0.051700
     45 H22         1.6790    5.2470    1.9620 hc        1 AR9      0.046700
     46 H22A        1.4070    3.6910    1.0890 hc        1 AR9      0.046700
     47 H25         2.2410    5.0480   -1.0710 hc        1 AR9      0.083200
     48 H25A        1.9290    6.5100   -0.0540 hc        1 AR9      0.083200
     49 H28        -0.0770    6.0840   -1.3720 hc        1 AR9      0.139200
     50 H28A       -0.4410    5.7150    0.3730 hc        1 AR9      0.139200
     51 HN32       -1.0280    3.3780   -2.6980 hn        1 AR9      0.489300
     52 H34         0.6630    1.9660   -3.5550 hx        1 AR9      0.172700
     53 H38         2.2760    2.6470   -0.9590 hc        1 AR9      0.103367
     54 H38A        2.6260    3.2190   -2.6430 hc        1 AR9      0.103367
     55 H38B        2.7060    1.4600   -2.2900 hc        1 AR9      0.103367
     56 H43         4.6690   -0.4520    2.9910 hc        1 AR9      0.062367
     57 H43A        3.8580   -1.9740    2.4470 hc        1 AR9      0.062367
     58 H43B        2.9750   -0.8120    3.5260 hc        1 AR9      0.062367
     59 H47         0.3710   -2.3910   -0.7120 h1        1 AR9      0.077700
     60 HO49        0.1780   -2.0480   -2.9830 ho        1 AR9      0.459000
     61 H51         2.8810   -2.1950   -2.4950 hc        1 AR9      0.099200
     62 H51A        3.0990   -2.5740   -0.7380 hc        1 AR9      0.099200
     63 H54         1.0610   -4.1670   -2.4250 hc        1 AR9      0.104700
     64 H56         4.1060   -4.7750   -2.2360 hc        1 AR9      0.081700
     65 H56A        3.2870   -4.0470   -3.6730 hc        1 AR9      0.081700
     66 H56B        2.8340   -5.7070   -3.1590 hc        1 AR9      0.081700
     67 HN62        3.0310   -6.5670   -0.8960 hn        1 AR9      0.471300
     68 H64         2.3810   -6.6380    1.4450 hx        1 AR9      0.114700
     69 H64A        0.6450   -6.8230    0.8900 hx        1 AR9      0.114700
     70 H67         2.9790   -8.8160    0.2760 hc        1 AR9      0.073200
     71 H67A        1.2580   -9.0000   -0.2750 hc        1 AR9      0.073200
     72 H70         0.4910   -8.9730    2.1200 hc        1 AR9      0.057700
     73 H70A        2.2070   -8.7900    2.6690 hc        1 AR9      0.057700
     74 H73         1.4710  -11.1650    2.7760 hc        1 AR9      0.060367
     75 H73A        2.7980  -10.9720    1.5570 hc        1 AR9      0.060367
     76 H73B        1.0790  -11.1550    1.0070 hc        1 AR9      0.060367
     77 H12        -0.4180    0.0560   -0.0160 hn        1 AR9      0.480800
     78 H322        0.3990    4.2420   -2.8210 hn        1 AR9      0.489300
     79 H622        1.4570   -6.7340   -1.3990 hn        1 AR9      0.471300
@<TRIPOS>BOND
     1    1    2 1   
     2    1   15 1   
     3    1   32 1   
     4    1   77 1   
     5    2    3 1   
     6    2   20 1   
     7    2   33 1   
     8    3    4 1   
     9    3   34 1   
    10    3   35 1   
    11    4    5 1   
    12    4   19 1   
    13    4   36 1   
    14    5    6 1   
    15    5   37 1   
    16    5   38 1   
    17    6    7 1   
    18    6   39 1   
    19    6   40 1   
    20    7    8 1   
    21    7   41 1   
    22    7   42 1   
    23    8    9 1   
    24    8   43 1   
    25    8   44 1   
    26    9   10 1   
    27    9   45 1   
    28    9   46 1   
    29   10   11 1   
    30   10   47 1   
    31   10   48 1   
    32   11   12 1   
    33   11   49 1   
    34   11   50 1   
    35   12   13 1   
    36   12   18 2   
    37   13   14 1   
    38   13   51 1   
    39   13   78 1   
    40   14   15 1   
    41   14   17 1   
    42   14   52 1   
    43   15   16 2   
    44   17   53 1   
    45   17   54 1   
    46   17   55 1   
    47   19   56 1   
    48   19   57 1   
    49   19   58 1   
    50   20   21 1   
    51   20   22 1   
    52   20   59 1   
    53   21   60 1   
    54   22   23 1   
    55   22   61 1   
    56   22   62 1   
    57   23   24 1   
    58   23   25 1   
    59   23   63 1   
    60   24   64 1   
    61   24   65 1   
    62   24   66 1   
    63   25   26 2   
    64   25   27 1   
    65   27   28 1   
    66   27   67 1   
    67   27   79 1   
    68   28   29 1   
    69   28   68 1   
    70   28   69 1   
    71   29   30 1   
    72   29   70 1   
    73   29   71 1   
    74   30   31 1   
    75   30   72 1   
    76   30   73 1   
    77   31   74 1   
    78   31   75 1   
    79   31   76 1   
@<TRIPOS>SUBSTRUCTURE
     1 AR9         1 TEMP              0 ****  ****    0 ROOT
