@<TRIPOS>MOLECULE
ARA
   20    20     1     0     0
SMALL
bcc


@<TRIPOS>ATOM
      1 C1         -1.1690   -0.4190   -0.9620 c3        1 ARA      0.311900
      2 C2          0.3490   -0.4190   -0.9620 c3        1 ARA      0.050100
      3 C3          0.9150   -0.4190    0.4150 c3        1 ARA      0.113100
      4 C4          0.3390    0.6670    1.2630 c3        1 ARA      0.115100
      5 C5         -1.1860    0.6640    1.2530 c3        1 ARA      0.140400
      6 O1         -1.6160   -0.2480   -2.2580 oh        1 ARA     -0.599800
      7 O2          0.8140   -1.5900   -1.6570 oh        1 ARA     -0.604800
      8 O3          2.3530   -0.2360    0.3310 oh        1 ARA     -0.608800
      9 O4          0.8030    1.9310    0.7750 oh        1 ARA     -0.592800
     10 O5         -1.7390    0.6590   -0.1100 os        1 ARA     -0.436600
     11 H1         -1.4840   -1.2820   -0.6310 h2        1 ARA      0.080700
     12 H2          0.6650    0.3750   -1.4340 h1        1 ARA      0.070700
     13 H3          0.7290   -1.2810    0.8340 h1        1 ARA      0.057700
     14 H4          0.6490    0.5490    2.1810 h1        1 ARA      0.056700
     15 H51        -1.5060    1.4580    1.7210 h1        1 ARA      0.067200
     16 H52        -1.5020   -0.1300    1.7250 h1        1 ARA      0.067200
     17 HO1        -2.4740   -0.4730   -2.3070 ho        1 ARA      0.432000
     18 HO2         1.2290   -1.3470   -2.4030 ho        1 ARA      0.425000
     19 HO3         2.7600   -0.8920    0.7690 ho        1 ARA      0.431000
     20 HO4         1.0710    2.4320    1.4580 ho        1 ARA      0.424000
@<TRIPOS>BOND
     1    1    2 1   
     2    1    6 1   
     3    1   10 1   
     4    1   11 1   
     5    2    3 1   
     6    2    7 1   
     7    2   12 1   
     8    3    4 1   
     9    3    8 1   
    10    3   13 1   
    11    4    5 1   
    12    4    9 1   
    13    4   14 1   
    14    5   10 1   
    15    5   15 1   
    16    5   16 1   
    17    6   17 1   
    18    7   18 1   
    19    8   19 1   
    20    9   20 1   
@<TRIPOS>SUBSTRUCTURE
     1 ARA         1 TEMP              0 ****  ****    0 ROOT
