@<TRIPOS>MOLECULE
ARA
   20    20     1     0     0
SMALL
bcc


@<TRIPOS>ATOM
      1 C1          0.3110   -0.2670    1.3350 c3        1 ARA      0.299900
      2 C2         -0.8330    0.1370    0.3790 c3        1 ARA      0.088100
      3 C3         -0.7210   -0.6190   -0.9570 c3        1 ARA      0.118100
      4 C4          0.7190   -0.5370   -1.4990 c3        1 ARA      0.070100
      5 C5          1.7210   -0.9820   -0.4370 c3        1 ARA      0.104400
      6 O1          0.3820    0.7060    2.3470 oh        1 ARA     -0.604800
      7 O2         -2.0680   -0.2280    0.9640 oh        1 ARA     -0.576800
      8 O3         -1.6300   -0.1050   -1.9050 oh        1 ARA     -0.570800
      9 O4          0.9900    0.7780   -1.9520 oh        1 ARA     -0.593800
     10 O5          1.5970   -0.1820    0.7320 os        1 ARA     -0.458600
     11 H1          0.1430   -1.2940    1.7640 h2        1 ARA      0.054700
     12 H2         -0.7940    1.2460    0.1980 h1        1 ARA      0.059700
     13 H3         -1.0340   -1.6910   -0.8140 h1        1 ARA      0.098700
     14 H4          0.8070   -1.1750   -2.4220 h1        1 ARA      0.099700
     15 H51         1.5690   -2.0630   -0.1840 h1        1 ARA      0.068700
     16 H52         2.7750   -0.8020   -0.7800 h1        1 ARA      0.068700
     17 HO1         1.2680    0.6690    2.7340 ho        1 ARA      0.433000
     18 HO2        -2.1660    0.3190    1.7550 ho        1 ARA      0.416000
     19 HO3        -1.3030    0.7650   -2.1760 ho        1 ARA      0.412000
     20 HO4         1.1500    1.3230   -1.1690 ho        1 ARA      0.413000
@<TRIPOS>BOND
     1    1    2 1   
     2    1    6 1   
     3    1   10 1   
     4    1   11 1   
     5    2    3 1   
     6    2    7 1   
     7    2   12 1   
     8    3    4 1   
     9    3    8 1   
    10    3   13 1   
    11    4    5 1   
    12    4    9 1   
    13    4   14 1   
    14    5   10 1   
    15    5   15 1   
    16    5   16 1   
    17    6   17 1   
    18    7   18 1   
    19    8   19 1   
    20    9   20 1   
@<TRIPOS>SUBSTRUCTURE
     1 ARA         1 TEMP              0 ****  ****    0 ROOT
