@<TRIPOS>MOLECULE
ARB
   20    20     1     0     0
SMALL
bcc


@<TRIPOS>ATOM
      1 C1          0.4370    0.6550    1.2560 c3        1 ARB      0.291900
      2 C2         -0.7790    0.6110    0.3080 c3        1 ARB      0.100100
      3 C3         -0.7190   -0.6420   -0.5820 c3        1 ARB      0.085100
      4 C4          0.6620   -0.7460   -1.2530 c3        1 ARB      0.075100
      5 C5          1.7580   -0.7170   -0.1910 c3        1 ARB      0.096400
      6 O1          0.3080   -0.4040    2.1750 oh        1 ARB     -0.628800
      7 O2         -1.9710    0.6850    1.0530 oh        1 ARB     -0.571800
      8 O3         -1.7480   -0.6340   -1.5460 oh        1 ARB     -0.575800
      9 O4          0.8200    0.2870   -2.2100 oh        1 ARB     -0.594800
     10 O5          1.6760    0.4670    0.5980 os        1 ARB     -0.450600
     11 H1          0.5270    1.6550    1.7670 h2        1 ARB      0.086700
     12 H2         -0.7800    1.5400   -0.3290 h1        1 ARB      0.086700
     13 H3         -0.9130   -1.5590    0.0430 h1        1 ARB      0.093700
     14 H4          0.7180   -1.6960   -1.8560 h1        1 ARB      0.097700
     15 H51         1.6770   -1.6180    0.4700 h1        1 ARB      0.071700
     16 H52         2.7750   -0.6570   -0.6610 h1        1 ARB      0.071700
     17 HO1         1.0430   -0.3410    2.7980 ho        1 ARB      0.424000
     18 HO2        -2.0370   -0.1290    1.5720 ho        1 ARB      0.418000
     19 HO3        -1.5280    0.0490   -2.1950 ho        1 ARB      0.414000
     20 HO4         1.0430    1.0940   -1.7260 ho        1 ARB      0.410000
@<TRIPOS>BOND
     1    1    2 1   
     2    1    6 1   
     3    1   10 1   
     4    1   11 1   
     5    2    3 1   
     6    2    7 1   
     7    2   12 1   
     8    3    4 1   
     9    3    8 1   
    10    3   13 1   
    11    4    5 1   
    12    4    9 1   
    13    4   14 1   
    14    5   10 1   
    15    5   15 1   
    16    5   16 1   
    17    6   17 1   
    18    7   18 1   
    19    8   19 1   
    20    9   20 1   
@<TRIPOS>SUBSTRUCTURE
     1 ARB         1 TEMP              0 ****  ****    0 ROOT
