@<TRIPOS>MOLECULE
ARC
   63    62     1     0     0
SMALL
bcc


@<TRIPOS>ATOM
      1 O1         -2.2930   -1.7410   -8.9630 oh        1 ARC     -0.602800
      2 C1         -1.0550   -1.5910   -8.2830 c3        1 ARC      0.131400
      3 C2         -1.2850   -0.5890   -7.1650 c3        1 ARC     -0.081400
      4 C3         -0.0870   -0.5010   -6.2310 c3        1 ARC     -0.064700
      5 C4          1.1090    0.1040   -6.9370 c3        1 ARC     -0.091100
      6 C5         -0.4610    0.3140   -4.9980 c3        1 ARC     -0.076400
      7 C6          0.4860    0.0720   -3.8420 c3        1 ARC     -0.079400
      8 C7          0.0740    0.8790   -2.6280 c3        1 ARC     -0.076400
      9 C8          0.9660    0.6100   -1.4220 c3        1 ARC     -0.064700
     10 C9          2.3290    1.2440   -1.6060 c3        1 ARC     -0.089100
     11 C10         0.2920    1.1270   -0.1580 c3        1 ARC     -0.076400
     12 C11         0.9120    0.5570    1.1010 c3        1 ARC     -0.079400
     13 C12         0.1820    1.0480    2.3340 c3        1 ARC     -0.076400
     14 C13         0.7510    0.4570    3.6180 c3        1 ARC     -0.064700
     15 C14         2.0810    1.0940    3.9630 c3        1 ARC     -0.089100
     16 C15        -0.2490    0.6350    4.7530 c3        1 ARC     -0.076400
     17 C16         0.0810   -0.2270    5.9540 c3        1 ARC     -0.079400
     18 C17        -0.9780   -0.0880    7.0280 c3        1 ARC     -0.076400
     19 C18        -0.6550   -0.9080    8.2690 c3        1 ARC     -0.067700
     20 C19        -1.4830   -0.4250    9.4420 c3        1 ARC     -0.089600
     21 C20        -0.8970   -2.3850    8.0340 c3        1 ARC     -0.089600
     22 HO1        -2.1370   -2.3650   -9.6810 ho        1 ARC      0.398000
     23 H11        -0.2710   -1.2220   -8.9980 h1        1 ARC      0.020200
     24 H12        -0.7270   -2.5820   -7.8670 h1        1 ARC      0.020200
     25 H21        -2.1960   -0.9010   -6.5890 hc        1 ARC      0.055700
     26 H22        -1.5010    0.4180   -7.6080 hc        1 ARC      0.055700
     27 H3          0.1820   -1.5440   -5.8990 hc        1 ARC      0.046700
     28 H41         0.8610    1.1180   -7.3330 hc        1 ARC      0.034033
     29 H42         1.9700    0.2010   -6.2330 hc        1 ARC      0.034033
     30 H43         1.4260   -0.5420   -7.7910 hc        1 ARC      0.034033
     31 H51        -1.5020    0.0440   -4.6770 hc        1 ARC      0.042200
     32 H52        -0.4670    1.4040   -5.2610 hc        1 ARC      0.042200
     33 H61         1.5310    0.3470   -4.1430 hc        1 ARC      0.040700
     34 H62         0.4930   -1.0200   -3.5830 hc        1 ARC      0.040700
     35 H71        -0.9880    0.6250   -2.3680 hc        1 ARC      0.040200
     36 H72         0.1020    1.9730   -2.8750 hc        1 ARC      0.040200
     37 H8          1.1000   -0.5040   -1.3220 hc        1 ARC      0.047700
     38 H91         2.2370    2.3520   -1.7140 hc        1 ARC      0.033367
     39 H92         2.9820    1.0290   -0.7260 hc        1 ARC      0.033367
     40 H93         2.8290    0.8410   -2.5190 hc        1 ARC      0.033367
     41 H101       -0.7970    0.8550   -0.1800 hc        1 ARC      0.040200
     42 H102        0.3530    2.2470   -0.1350 hc        1 ARC      0.040200
     43 H111        1.9920    0.8510    1.1580 hc        1 ARC      0.040700
     44 H112        0.8750   -0.5640    1.0630 hc        1 ARC      0.040700
     45 H121       -0.9030    0.7710    2.2460 hc        1 ARC      0.039700
     46 H122        0.2350    2.1670    2.3840 hc        1 ARC      0.039700
     47 H13         0.9130   -0.6470    3.4590 hc        1 ARC      0.047700
     48 H141        1.9580    2.1880    4.1450 hc        1 ARC      0.033367
     49 H142        2.5100    0.6290    4.8830 hc        1 ARC      0.033367
     50 H143        2.8090    0.9540    3.1280 hc        1 ARC      0.033367
     51 H151       -1.2760    0.3670    4.3880 hc        1 ARC      0.039200
     52 H152       -0.2760    1.7140    5.0590 hc        1 ARC      0.039200
     53 H161        1.0790    0.0680    6.3720 hc        1 ARC      0.040700
     54 H162        0.1600   -1.3000    5.6360 hc        1 ARC      0.040700
     55 H171       -1.9730   -0.4040    6.6200 hc        1 ARC      0.039700
     56 H172       -1.0650    0.9940    7.3160 hc        1 ARC      0.039700
     57 H18         0.4340   -0.7620    8.5200 hc        1 ARC      0.045700
     58 H191       -1.2580   -1.0320   10.3510 hc        1 ARC      0.033033
     59 H192       -1.2580    0.6450    9.6660 hc        1 ARC      0.033033
     60 H193       -2.5730   -0.5170    9.2160 hc        1 ARC      0.033033
     61 H201       -1.9680   -2.5720    7.7790 hc        1 ARC      0.033033
     62 H202       -0.2630   -2.7580    7.1940 hc        1 ARC      0.033033
     63 H203       -0.6460   -2.9680    8.9530 hc        1 ARC      0.033033
@<TRIPOS>BOND
     1    1    2 1   
     2    1   22 1   
     3    2    3 1   
     4    2   23 1   
     5    2   24 1   
     6    3    4 1   
     7    3   25 1   
     8    3   26 1   
     9    4    5 1   
    10    4    6 1   
    11    4   27 1   
    12    5   28 1   
    13    5   29 1   
    14    5   30 1   
    15    6    7 1   
    16    6   31 1   
    17    6   32 1   
    18    7    8 1   
    19    7   33 1   
    20    7   34 1   
    21    8    9 1   
    22    8   35 1   
    23    8   36 1   
    24    9   10 1   
    25    9   11 1   
    26    9   37 1   
    27   10   38 1   
    28   10   39 1   
    29   10   40 1   
    30   11   12 1   
    31   11   41 1   
    32   11   42 1   
    33   12   13 1   
    34   12   43 1   
    35   12   44 1   
    36   13   14 1   
    37   13   45 1   
    38   13   46 1   
    39   14   15 1   
    40   14   16 1   
    41   14   47 1   
    42   15   48 1   
    43   15   49 1   
    44   15   50 1   
    45   16   17 1   
    46   16   51 1   
    47   16   52 1   
    48   17   18 1   
    49   17   53 1   
    50   17   54 1   
    51   18   19 1   
    52   18   55 1   
    53   18   56 1   
    54   19   20 1   
    55   19   21 1   
    56   19   57 1   
    57   20   58 1   
    58   20   59 1   
    59   20   60 1   
    60   21   61 1   
    61   21   62 1   
    62   21   63 1   
@<TRIPOS>SUBSTRUCTURE
     1 ARC         1 TEMP              0 ****  ****    0 ROOT
