@<TRIPOS>MOLECULE
ARC
   63    62     1     0     0
SMALL
bcc


@<TRIPOS>ATOM
      1 O1          0.5710   -2.3420    1.0440 oh        1 ARC     -0.602800
      2 C1          1.7150   -1.6090    0.6310 c3        1 ARC      0.131400
      3 C2          2.2360   -0.8770    1.8560 c3        1 ARC     -0.081400
      4 C3          3.5830   -0.2220    1.5900 c3        1 ARC     -0.064700
      5 C4          3.4490    0.9140    0.5980 c3        1 ARC     -0.091100
      6 C5          4.1780    0.2710    2.9040 c3        1 ARC     -0.076400
      7 C6          5.6690    0.5140    2.8040 c3        1 ARC     -0.079400
      8 C7          6.2310    0.9790    4.1320 c3        1 ARC     -0.076400
      9 C8          7.7410    1.1740    4.0860 c3        1 ARC     -0.064700
     10 C9          8.1020    2.4190    3.3020 c3        1 ARC     -0.089100
     11 C10         8.2950    1.2450    5.5040 c3        1 ARC     -0.076400
     12 C11         9.7960    1.0510    5.5470 c3        1 ARC     -0.079400
     13 C12        10.3020    1.0660    6.9750 c3        1 ARC     -0.076400
     14 C13        11.8060    0.8320    7.0590 c3        1 ARC     -0.064700
     15 C14        12.5690    2.0640    6.6190 c3        1 ARC     -0.089100
     16 C15        12.1860    0.4340    8.4790 c3        1 ARC     -0.076400
     17 C16        13.5820   -0.1470    8.5620 c3        1 ARC     -0.079400
     18 C17        13.8930   -0.6110    9.9700 c3        1 ARC     -0.076400
     19 C18        15.3060   -1.1600   10.1000 c3        1 ARC     -0.067700
     20 C19        15.7110   -1.2130   11.5600 c3        1 ARC     -0.089600
     21 C20        15.4250   -2.5350    9.4770 c3        1 ARC     -0.089600
     22 HO1         0.2350   -2.7920    0.2610 ho        1 ARC      0.398000
     23 H11         1.4290   -0.8840   -0.1780 h1        1 ARC      0.020200
     24 H12         2.4920   -2.3130    0.2280 h1        1 ARC      0.020200
     25 H21         2.3300   -1.6140    2.6970 hc        1 ARC      0.055700
     26 H22         1.4890   -0.1050    2.1720 hc        1 ARC      0.055700
     27 H3          4.2770   -0.9970    1.1560 hc        1 ARC      0.046700
     28 H41         4.4340    1.4140    0.4390 hc        1 ARC      0.034033
     29 H42         3.0870    0.5310   -0.3870 hc        1 ARC      0.034033
     30 H43         2.7220    1.6770    0.9690 hc        1 ARC      0.034033
     31 H51         3.9870   -0.4900    3.7070 hc        1 ARC      0.042200
     32 H52         3.6610    1.2170    3.2150 hc        1 ARC      0.042200
     33 H61         5.8760    1.2830    2.0150 hc        1 ARC      0.040700
     34 H62         6.1840   -0.4320    2.4890 hc        1 ARC      0.040700
     35 H71         5.9790    0.2170    4.9180 hc        1 ARC      0.040200
     36 H72         5.7400    1.9410    4.4340 hc        1 ARC      0.040200
     37 H8          8.1990    0.2820    3.5710 hc        1 ARC      0.047700
     38 H91         7.6660    3.3270    3.7830 hc        1 ARC      0.033367
     39 H92         9.2100    2.5430    3.2530 hc        1 ARC      0.033367
     40 H93         7.7110    2.3500    2.2580 hc        1 ARC      0.033367
     41 H101        7.8090    0.4510    6.1320 hc        1 ARC      0.039700
     42 H102        8.0290    2.2360    5.9580 hc        1 ARC      0.039700
     43 H111       10.3000    1.8610    4.9580 hc        1 ARC      0.040700
     44 H112       10.0630    0.0740    5.0640 hc        1 ARC      0.040700
     45 H121        9.7690    0.2670    7.5560 hc        1 ARC      0.039700
     46 H122       10.0510    2.0480    7.4540 hc        1 ARC      0.039700
     47 H13        12.0720   -0.0190    6.3690 hc        1 ARC      0.047700
     48 H141       12.2850    2.3480    5.5770 hc        1 ARC      0.033367
     49 H142       12.3480    2.9260    7.2930 hc        1 ARC      0.033367
     50 H143       13.6690    1.8710    6.6410 hc        1 ARC      0.033367
     51 H151       12.1090    1.3300    9.1500 hc        1 ARC      0.039200
     52 H152       11.4540   -0.3280    8.8590 hc        1 ARC      0.039200
     53 H161       13.6730   -1.0090    7.8500 hc        1 ARC      0.040700
     54 H162       14.3350    0.6230    8.2480 hc        1 ARC      0.040700
     55 H171       13.1570   -1.3990   10.2790 hc        1 ARC      0.039700
     56 H172       13.7680    0.2540   10.6750 hc        1 ARC      0.039700
     57 H18        16.0100   -0.4630    9.5620 hc        1 ARC      0.045700
     58 H191       15.6940   -0.1910   12.0080 hc        1 ARC      0.033033
     59 H192       15.0120   -1.8650   12.1360 hc        1 ARC      0.033033
     60 H193       16.7440   -1.6270   11.6600 hc        1 ARC      0.033033
     61 H201       14.7390   -3.2560    9.9820 hc        1 ARC      0.033033
     62 H202       15.1640   -2.4980    8.3920 hc        1 ARC      0.033033
     63 H203       16.4710   -2.9150    9.5760 hc        1 ARC      0.033033
@<TRIPOS>BOND
     1    1    2 1   
     2    1   22 1   
     3    2    3 1   
     4    2   23 1   
     5    2   24 1   
     6    3    4 1   
     7    3   25 1   
     8    3   26 1   
     9    4    5 1   
    10    4    6 1   
    11    4   27 1   
    12    5   28 1   
    13    5   29 1   
    14    5   30 1   
    15    6    7 1   
    16    6   31 1   
    17    6   32 1   
    18    7    8 1   
    19    7   33 1   
    20    7   34 1   
    21    8    9 1   
    22    8   35 1   
    23    8   36 1   
    24    9   10 1   
    25    9   11 1   
    26    9   37 1   
    27   10   38 1   
    28   10   39 1   
    29   10   40 1   
    30   11   12 1   
    31   11   41 1   
    32   11   42 1   
    33   12   13 1   
    34   12   43 1   
    35   12   44 1   
    36   13   14 1   
    37   13   45 1   
    38   13   46 1   
    39   14   15 1   
    40   14   16 1   
    41   14   47 1   
    42   15   48 1   
    43   15   49 1   
    44   15   50 1   
    45   16   17 1   
    46   16   51 1   
    47   16   52 1   
    48   17   18 1   
    49   17   53 1   
    50   17   54 1   
    51   18   19 1   
    52   18   55 1   
    53   18   56 1   
    54   19   20 1   
    55   19   21 1   
    56   19   57 1   
    57   20   58 1   
    58   20   59 1   
    59   20   60 1   
    60   21   61 1   
    61   21   62 1   
    62   21   63 1   
@<TRIPOS>SUBSTRUCTURE
     1 ARC         1 TEMP              0 ****  ****    0 ROOT
