@<TRIPOS>MOLECULE
ARC
   63    62     1     0     0
SMALL
bcc


@<TRIPOS>ATOM
      1 O1         -7.3940    1.6060   -4.0970 oh        1 ARC     -0.602800
      2 C1         -6.1960    2.3450   -4.1770 c3        1 ARC      0.131400
      3 C2         -5.7790    2.7840   -2.7900 c3        1 ARC     -0.081400
      4 C3         -4.4060    3.4150   -2.8520 c3        1 ARC     -0.064700
      5 C4         -4.5290    4.8450   -3.3280 c3        1 ARC     -0.091100
      6 C5         -3.7790    3.3940   -1.4750 c3        1 ARC     -0.076400
      7 C6         -2.3540    2.8950   -1.5770 c3        1 ARC     -0.079400
      8 C7         -1.7280    2.8730   -0.2000 c3        1 ARC     -0.076400
      9 C8         -0.2950    2.3990   -0.3060 c3        1 ARC     -0.064700
     10 C9          0.6190    3.5910   -0.4870 c3        1 ARC     -0.089100
     11 C10         0.0860    1.6590    0.9580 c3        1 ARC     -0.076400
     12 C11         1.2310    0.7150    0.6640 c3        1 ARC     -0.079400
     13 C12         1.5310   -0.1130    1.8940 c3        1 ARC     -0.076400
     14 C13         2.7230   -1.0050    1.6240 c3        1 ARC     -0.064700
     15 C14         3.9820   -0.3280    2.1190 c3        1 ARC     -0.089100
     16 C15         2.5410   -2.3220    2.3460 c3        1 ARC     -0.076400
     17 C16         3.4480   -3.3640    1.7300 c3        1 ARC     -0.079400
     18 C17         3.2030   -4.7010    2.3930 c3        1 ARC     -0.076400
     19 C18         4.1270   -5.7380    1.7940 c3        1 ARC     -0.067700
     20 C19         4.9670   -6.3580    2.8900 c3        1 ARC     -0.089600
     21 C20         3.3070   -6.8150    1.1170 c3        1 ARC     -0.089600
     22 HO1        -7.7330    1.5010   -4.9120 ho        1 ARC      0.398000
     23 H11        -5.4930    1.7860   -4.5680 h1        1 ARC      0.020200
     24 H12        -6.3360    3.1340   -4.7400 h1        1 ARC      0.020200
     25 H21        -6.4230    3.4360   -2.4470 hc        1 ARC      0.055700
     26 H22        -5.7550    2.0070   -2.1960 hc        1 ARC      0.055700
     27 H3         -3.8440    2.9120   -3.4730 hc        1 ARC      0.046700
     28 H41        -3.6550    5.2850   -3.2700 hc        1 ARC      0.034033
     29 H42        -4.8380    4.8550   -4.2580 hc        1 ARC      0.034033
     30 H43        -5.1730    5.3230   -2.7640 hc        1 ARC      0.034033
     31 H51        -4.2910    2.7980   -0.8920 hc        1 ARC      0.042200
     32 H52        -3.7820    4.2980   -1.1010 hc        1 ARC      0.042200
     33 H61        -1.8410    3.4910   -2.1590 hc        1 ARC      0.040700
     34 H62        -2.3510    1.9920   -1.9520 hc        1 ARC      0.040700
     35 H71        -2.2310    2.2640    0.3770 hc        1 ARC      0.040200
     36 H72        -1.7460    3.7730    0.1810 hc        1 ARC      0.040200
     37 H8         -0.2050    1.8010   -1.0720 hc        1 ARC      0.047700
     38 H91         1.4840    3.2900   -0.8360 hc        1 ARC      0.033367
     39 H92         0.7520    4.0350    0.3770 hc        1 ARC      0.033367
     40 H93         0.2130    4.2210   -1.1190 hc        1 ARC      0.033367
     41 H101        0.3610    2.3020    1.6420 hc        1 ARC      0.040200
     42 H102       -0.6830    1.1480    1.2810 hc        1 ARC      0.040200
     43 H111        0.9840    0.1230   -0.0750 hc        1 ARC      0.040700
     44 H112        2.0240    1.2310    0.4170 hc        1 ARC      0.040700
     45 H121        1.7320    0.4810    2.6450 hc        1 ARC      0.039700
     46 H122        0.7540   -0.6650    2.1130 hc        1 ARC      0.039700
     47 H13         2.7960   -1.1670    0.6640 hc        1 ARC      0.047700
     48 H141        4.7660   -0.8080    1.7790 hc        1 ARC      0.033367
     49 H142        4.0020    0.5990    1.8000 hc        1 ARC      0.033367
     50 H143        3.9940   -0.3360    3.0990 hc        1 ARC      0.033367
     51 H151        2.7680   -2.2100    3.2910 hc        1 ARC      0.039200
     52 H152        1.6100   -2.6120    2.2660 hc        1 ARC      0.039200
     53 H161        3.2600   -3.4350    0.7730 hc        1 ARC      0.040700
     54 H162        4.3810   -3.1020    1.8600 hc        1 ARC      0.040700
     55 H171        3.3750   -4.6260    3.3530 hc        1 ARC      0.039700
     56 H172        2.2730   -4.9710    2.2490 hc        1 ARC      0.039700
     57 H18         4.7110   -5.3130    1.1380 hc        1 ARC      0.045700
     58 H191        5.5790   -7.0160    2.4990 hc        1 ARC      0.033033
     59 H192        5.4830   -5.6580    3.3410 hc        1 ARC      0.033033
     60 H193        4.3810   -6.8020    3.5390 hc        1 ARC      0.033033
     61 H201        2.7410   -7.2600    1.7820 hc        1 ARC      0.033033
     62 H202        2.7430   -6.4090    0.4260 hc        1 ARC      0.033033
     63 H203        3.9070   -7.4720    0.7050 hc        1 ARC      0.033033
@<TRIPOS>BOND
     1    1    2 1   
     2    1   22 1   
     3    2    3 1   
     4    2   23 1   
     5    2   24 1   
     6    3    4 1   
     7    3   25 1   
     8    3   26 1   
     9    4    5 1   
    10    4    6 1   
    11    4   27 1   
    12    5   28 1   
    13    5   29 1   
    14    5   30 1   
    15    6    7 1   
    16    6   31 1   
    17    6   32 1   
    18    7    8 1   
    19    7   33 1   
    20    7   34 1   
    21    8    9 1   
    22    8   35 1   
    23    8   36 1   
    24    9   10 1   
    25    9   11 1   
    26    9   37 1   
    27   10   38 1   
    28   10   39 1   
    29   10   40 1   
    30   11   12 1   
    31   11   41 1   
    32   11   42 1   
    33   12   13 1   
    34   12   43 1   
    35   12   44 1   
    36   13   14 1   
    37   13   45 1   
    38   13   46 1   
    39   14   15 1   
    40   14   16 1   
    41   14   47 1   
    42   15   48 1   
    43   15   49 1   
    44   15   50 1   
    45   16   17 1   
    46   16   51 1   
    47   16   52 1   
    48   17   18 1   
    49   17   53 1   
    50   17   54 1   
    51   18   19 1   
    52   18   55 1   
    53   18   56 1   
    54   19   20 1   
    55   19   21 1   
    56   19   57 1   
    57   20   58 1   
    58   20   59 1   
    59   20   60 1   
    60   21   61 1   
    61   21   62 1   
    62   21   63 1   
@<TRIPOS>SUBSTRUCTURE
     1 ARC         1 TEMP              0 ****  ****    0 ROOT
