@<TRIPOS>MOLECULE
ARC
   63    62     1     0     0
SMALL
bcc


@<TRIPOS>ATOM
      1 O1          0.6040   -2.3440    0.9900 oh        1 ARC     -0.602800
      2 C1          1.7350   -1.5850    0.5900 c3        1 ARC      0.131400
      3 C2          2.2530   -0.8780    1.8310 c3        1 ARC     -0.081400
      4 C3          3.5900   -0.1990    1.5770 c3        1 ARC     -0.064700
      5 C4          3.4370    0.9590    0.6130 c3        1 ARC     -0.091100
      6 C5          4.1830    0.2700    2.9010 c3        1 ARC     -0.076400
      7 C6          5.6710    0.5320    2.8020 c3        1 ARC     -0.079400
      8 C7          6.2320    0.9760    4.1380 c3        1 ARC     -0.076400
      9 C8          7.7400    1.1840    4.0940 c3        1 ARC     -0.064700
     10 C9          8.0910    2.4410    3.3250 c3        1 ARC     -0.089100
     11 C10         8.2930    1.2420    5.5120 c3        1 ARC     -0.076400
     12 C11         9.7950    1.0500    5.5540 c3        1 ARC     -0.079400
     13 C12        10.3020    1.0590    6.9810 c3        1 ARC     -0.076400
     14 C13        11.8050    0.8210    7.0640 c3        1 ARC     -0.064700
     15 C14        12.5710    2.0500    6.6210 c3        1 ARC     -0.089100
     16 C15        12.1860    0.4240    8.4840 c3        1 ARC     -0.076400
     17 C16        13.5780   -0.1660    8.5650 c3        1 ARC     -0.079400
     18 C17        13.8900   -0.6250    9.9740 c3        1 ARC     -0.076400
     19 C18        15.3000   -1.1850   10.1020 c3        1 ARC     -0.067700
     20 C19        15.7110   -1.2330   11.5600 c3        1 ARC     -0.089600
     21 C20        15.4050   -2.5650    9.4860 c3        1 ARC     -0.089600
     22 HO1         0.2700   -2.7770    0.1970 ho        1 ARC      0.398000
     23 H11         1.4360   -0.8430   -0.1980 h1        1 ARC      0.020200
     24 H12         2.5200   -2.2670    0.1650 h1        1 ARC      0.020200
     25 H21         2.3590   -1.6350    2.6530 hc        1 ARC      0.055700
     26 H22         1.4970   -0.1230    2.1710 hc        1 ARC      0.055700
     27 H3          4.2920   -0.9540    1.1210 hc        1 ARC      0.046700
     28 H41         4.4160    1.4760    0.4640 hc        1 ARC      0.034033
     29 H42         3.0780    0.5950   -0.3800 hc        1 ARC      0.034033
     30 H43         2.7010    1.7020    1.0040 hc        1 ARC      0.034033
     31 H51         4.0030   -0.5120    3.6860 hc        1 ARC      0.042200
     32 H52         3.6560    1.2020    3.2350 hc        1 ARC      0.042200
     33 H61         5.8670    1.3200    2.0290 hc        1 ARC      0.040700
     34 H62         6.1960   -0.4010    2.4650 hc        1 ARC      0.040700
     35 H71         5.9870    0.1970    4.9090 hc        1 ARC      0.040200
     36 H72         5.7340    1.9280    4.4590 hc        1 ARC      0.040200
     37 H8          8.2050    0.3020    3.5680 hc        1 ARC      0.047700
     38 H91         7.6420    3.3390    3.8140 hc        1 ARC      0.033367
     39 H92         9.1980    2.5780    3.2830 hc        1 ARC      0.033367
     40 H93         7.7060    2.3790    2.2790 hc        1 ARC      0.033367
     41 H101        7.8090    0.4420    6.1330 hc        1 ARC      0.040200
     42 H102        8.0260    2.2280    5.9760 hc        1 ARC      0.040200
     43 H111       10.2980    1.8640    4.9680 hc        1 ARC      0.040700
     44 H112       10.0630    0.0760    5.0650 hc        1 ARC      0.040700
     45 H121        9.7680    0.2590    7.5600 hc        1 ARC      0.039700
     46 H122       10.0530    2.0390    7.4640 hc        1 ARC      0.039700
     47 H13        12.0680   -0.0320    6.3750 hc        1 ARC      0.047700
     48 H141       12.2900    2.3320    5.5770 hc        1 ARC      0.033367
     49 H142       12.3490    2.9150    7.2920 hc        1 ARC      0.033367
     50 H143       13.6700    1.8560    6.6470 hc        1 ARC      0.033367
     51 H151       12.1170    1.3230    9.1520 hc        1 ARC      0.039200
     52 H152       11.4500   -0.3310    8.8680 hc        1 ARC      0.039200
     53 H161       13.6600   -1.0330    7.8570 hc        1 ARC      0.040700
     54 H162       14.3350    0.5970    8.2440 hc        1 ARC      0.040700
     55 H171       13.1490   -1.4050   10.2910 hc        1 ARC      0.039700
     56 H172       13.7760    0.2440   10.6750 hc        1 ARC      0.039700
     57 H18        16.0070   -0.4980    9.5570 hc        1 ARC      0.045700
     58 H191       15.7040   -0.2080   12.0020 hc        1 ARC      0.033033
     59 H192       15.0080   -1.8750   12.1430 hc        1 ARC      0.033033
     60 H193       16.7400   -1.6550   11.6580 hc        1 ARC      0.033033
     61 H201       14.7150   -3.2770    9.9980 hc        1 ARC      0.033033
     62 H202       15.1390   -2.5320    8.4020 hc        1 ARC      0.033033
     63 H203       16.4480   -2.9530    9.5830 hc        1 ARC      0.033033
@<TRIPOS>BOND
     1    1    2 1   
     2    1   22 1   
     3    2    3 1   
     4    2   23 1   
     5    2   24 1   
     6    3    4 1   
     7    3   25 1   
     8    3   26 1   
     9    4    5 1   
    10    4    6 1   
    11    4   27 1   
    12    5   28 1   
    13    5   29 1   
    14    5   30 1   
    15    6    7 1   
    16    6   31 1   
    17    6   32 1   
    18    7    8 1   
    19    7   33 1   
    20    7   34 1   
    21    8    9 1   
    22    8   35 1   
    23    8   36 1   
    24    9   10 1   
    25    9   11 1   
    26    9   37 1   
    27   10   38 1   
    28   10   39 1   
    29   10   40 1   
    30   11   12 1   
    31   11   41 1   
    32   11   42 1   
    33   12   13 1   
    34   12   43 1   
    35   12   44 1   
    36   13   14 1   
    37   13   45 1   
    38   13   46 1   
    39   14   15 1   
    40   14   16 1   
    41   14   47 1   
    42   15   48 1   
    43   15   49 1   
    44   15   50 1   
    45   16   17 1   
    46   16   51 1   
    47   16   52 1   
    48   17   18 1   
    49   17   53 1   
    50   17   54 1   
    51   18   19 1   
    52   18   55 1   
    53   18   56 1   
    54   19   20 1   
    55   19   21 1   
    56   19   57 1   
    57   20   58 1   
    58   20   59 1   
    59   20   60 1   
    60   21   61 1   
    61   21   62 1   
    62   21   63 1   
@<TRIPOS>SUBSTRUCTURE
     1 ARC         1 TEMP              0 ****  ****    0 ROOT
