@<TRIPOS>MOLECULE
ARF
    6     5     1     0     0
SMALL
bcc


@<TRIPOS>ATOM
      1 N           0.9740   -0.2500   -0.0460 n         1 ARF     -0.688000
      2 C           1.5910   -1.0270    0.8940 c         1 ARF      0.656900
      3 O           0.9790   -1.4810    1.8770 o         1 ARF     -0.610100
      4 HN1         0.0130   -0.0270    0.0360 hn        1 ARF      0.307500
      5 HN2         1.4710    0.1040   -0.8210 hn        1 ARF      0.307500
      6 H           2.6730   -1.2180    0.7100 h5        1 ARF      0.026200
@<TRIPOS>BOND
     1    1    2 1   
     2    1    4 1   
     3    1    5 1   
     4    2    3 2   
     5    2    6 1   
@<TRIPOS>SUBSTRUCTURE
     1 ARF         1 TEMP              0 ****  ****    0 ROOT
