@<TRIPOS>MOLECULE
ARF
    6     5     1     0     0
SMALL
bcc


@<TRIPOS>ATOM
      1 N          -0.7400   -0.0000   -0.0350 n         1 ARF     -0.688000
      2 C           0.6790   -0.0000   -0.0350 c         1 ARF      0.656900
      3 O           1.2870   -0.0000    1.0190 o         1 ARF     -0.610100
      4 HN1        -1.1960    0.0000    0.7550 hn        1 ARF      0.307500
      5 HN2        -1.1960   -0.0000   -0.8250 hn        1 ARF      0.307500
      6 H           1.1670    0.0000   -0.8800 h5        1 ARF      0.026200
@<TRIPOS>BOND
     1    1    2 1   
     2    1    4 1   
     3    1    5 1   
     4    2    3 2   
     5    2    6 1   
@<TRIPOS>SUBSTRUCTURE
     1 ARF         1 TEMP              0 ****  ****    0 ROOT
