@<TRIPOS>MOLECULE
ARG
   26    25     1     0     0
SMALL
bcc


@<TRIPOS>ATOM
      1 N          -0.4150    1.7130   -2.4370 n3        1 ARG     -0.881800
      2 CA          0.8480    2.1440   -1.8650 c3        1 ARG      0.061500
      3 C           1.9110    2.5760   -2.8910 c         1 ARG      0.871600
      4 O           1.6960    2.4520   -4.1320 o         1 ARG     -0.857300
      5 CB          1.4700    1.0930   -0.9320 c3        1 ARG     -0.066400
      6 CG          1.7720   -0.2550   -1.5480 c3        1 ARG     -0.101400
      7 CD          2.7380   -0.2410   -2.7360 c3        1 ARG      0.001300
      8 NE          4.0240    0.3620   -2.4500 nh        1 ARG     -0.369100
      9 CZ          4.5400    1.4460   -3.1640 cz        1 ARG      0.528300
     10 NH1         5.6300    2.1450   -2.6020 nh        1 ARG     -0.441700
     11 NH2         4.2910    1.5820   -4.5300 nh        1 ARG     -0.441700
     12 OXT         3.0470    2.9900   -2.4660 o         1 ARG     -0.857300
     13 H          -0.2440    0.9820   -3.1030 hn        1 ARG      0.344300
     14 H2         -0.8180    2.4830   -2.9390 hn        1 ARG      0.344300
     15 HA          0.6310    3.0530   -1.2260 h1        1 ARG      0.073700
     16 HB2         0.7690    0.9240   -0.0710 hc        1 ARG      0.049700
     17 HB3         2.4110    1.5450   -0.5180 hc        1 ARG      0.049700
     18 HG2         0.8210   -0.7280   -1.9130 hc        1 ARG      0.054700
     19 HG3         2.1850   -0.9240   -0.7450 hc        1 ARG      0.054700
     20 HD2         2.9530   -1.3080   -3.0370 h1        1 ARG      0.078200
     21 HD3         2.2140    0.2650   -3.5980 h1        1 ARG      0.078200
     22 HE          4.2620    0.3420   -1.4780 hn        1 ARG      0.281700
     23 HH11        5.8350    3.0160   -3.0470 hn        1 ARG      0.285950
     24 HH12        5.6070    2.2240   -1.6070 hn        1 ARG      0.285950
     25 HH21        3.3620    1.3170   -4.8250 hn        1 ARG      0.285950
     26 HH22        4.5510    2.4700   -4.9120 hn        1 ARG      0.285950
@<TRIPOS>BOND
     1    1    2 1   
     2    1   13 1   
     3    1   14 1   
     4    2    3 1   
     5    2    5 1   
     6    2   15 1   
     7    3    4 1   
     8    3   12 1   
     9    5    6 1   
    10    5   16 1   
    11    5   17 1   
    12    6    7 1   
    13    6   18 1   
    14    6   19 1   
    15    7    8 1   
    16    7   20 1   
    17    7   21 1   
    18    8    9 2   
    19    8   22 1   
    20    9   10 1   
    21    9   11 1   
    22   10   23 1   
    23   10   24 1   
    24   11   25 1   
    25   11   26 1   
@<TRIPOS>SUBSTRUCTURE
     1 ARG         1 TEMP              0 ****  ****    0 ROOT
