@<TRIPOS>MOLECULE
ARH
   42    45     1     0     0
SMALL
bcc


@<TRIPOS>ATOM
      1 C1         -0.0530   -0.1570    0.0560 cc        1 ARH     -0.260200
      2 C2          1.4020    0.0110   -0.0240 c         1 ARH      0.608900
      3 C3          2.0770    0.0110    1.2770 cc        1 ARH     -0.156900
      4 C4          1.3720   -0.0530    2.5060 cd        1 ARH     -0.206600
      5 C5         -0.0760   -0.0950    2.5580 c         1 ARH      0.607900
      6 C6         -0.7580   -0.2580    1.2160 cd        1 ARH      0.068800
      7 N7          3.4370    0.0540    1.5440 na        1 ARH      0.013900
      8 C8          3.6160    0.0110    2.9340 cc        1 ARH     -0.048300
      9 C9          2.3430   -0.0520    3.5550 cd        1 ARH     -0.105300
     10 O10        -0.7260    0.0270    3.6050 o         1 ARH     -0.536100
     11 O11         2.0000    0.1300   -1.1020 o         1 ARH     -0.538100
     12 N12        -2.1060   -0.6450    1.2210 nh        1 ARH     -0.567400
     13 C13        -3.1230   -0.0100    2.0420 cx        1 ARH      0.103800
     14 C14        -3.1790    0.0840    0.5440 cx        1 ARH      0.095500
     15 C17        -2.9780    1.3950   -0.1490 c3        1 ARH     -0.094100
     16 C25         4.4740    0.1440    0.5620 c3        1 ARH      0.000600
     17 C32         4.9230    0.0250    3.5750 ca        1 ARH     -0.033000
     18 C33         2.0870   -0.1200    5.0120 c3        1 ARH      0.198700
     19 O34         1.3700    0.9920    5.5060 oh        1 ARH     -0.596800
     20 C38         5.8550    1.0290    3.2770 ca        1 ARH     -0.111000
     21 C39         7.0930    1.0460    3.9170 ca        1 ARH     -0.130000
     22 C40         7.4110    0.0620    4.8540 ca        1 ARH     -0.117000
     23 C41         6.4880   -0.9400    5.1510 ca        1 ARH     -0.130000
     24 C42         5.2480   -0.9630    4.5160 ca        1 ARH     -0.111000
     25 HC1        -0.5560   -0.2270   -0.9250 ha        1 ARH      0.162000
     26 H131       -2.8700    0.8870    2.6470 h1        1 ARH      0.093200
     27 H132       -3.7790   -0.7140    2.5960 h1        1 ARH      0.093200
     28 HC41       -3.8640   -0.5900   -0.0220 h1        1 ARH      0.102700
     29 H171       -3.9750    1.8630   -0.3390 hc        1 ARH      0.051033
     30 H172       -2.3660    2.1010    0.4650 hc        1 ARH      0.051033
     31 H173       -2.4630    1.2410   -1.1290 hc        1 ARH      0.051033
     32 H251        5.4170   -0.3090    0.9690 h1        1 ARH      0.072367
     33 H252        4.1570   -0.3960   -0.3720 h1        1 ARH      0.072367
     34 H253        4.6630    1.2220    0.3070 h1        1 ARH      0.072367
     35 H331        3.0560   -0.1040    5.5850 h1        1 ARH      0.055700
     36 H332        1.5280   -1.0710    5.2430 h1        1 ARH      0.055700
     37 HO43        0.5010    0.9920    5.0820 ho        1 ARH      0.419000
     38 HC83        5.6030    1.8120    2.5460 ha        1 ARH      0.139500
     39 HC93        7.8170    1.8400    3.6850 ha        1 ARH      0.137500
     40 HC04        8.3880    0.0790    5.3590 ha        1 ARH      0.136000
     41 HC14        6.7370   -1.7170    5.8890 ha        1 ARH      0.137500
     42 HC24        4.5210   -1.7560    4.7480 ha        1 ARH      0.139500
@<TRIPOS>BOND
     1    1    2 1   
     2    1    6 2   
     3    1   25 1   
     4    2    3 1   
     5    2   11 2   
     6    3    4 2   
     7    3    7 1   
     8    4    5 1   
     9    4    9 1   
    10    5    6 1   
    11    5   10 2   
    12    6   12 1   
    13    7    8 1   
    14    7   16 1   
    15    8    9 2   
    16    8   17 1   
    17    9   18 1   
    18   12   13 1   
    19   12   14 1   
    20   13   14 1   
    21   13   26 1   
    22   13   27 1   
    23   14   15 1   
    24   14   28 1   
    25   15   29 1   
    26   15   30 1   
    27   15   31 1   
    28   16   32 1   
    29   16   33 1   
    30   16   34 1   
    31   17   20 ar  
    32   17   24 ar  
    33   18   19 1   
    34   18   35 1   
    35   18   36 1   
    36   19   37 1   
    37   20   21 ar  
    38   20   38 1   
    39   21   22 ar  
    40   21   39 1   
    41   22   23 ar  
    42   22   40 1   
    43   23   24 ar  
    44   23   41 1   
    45   24   42 1   
@<TRIPOS>SUBSTRUCTURE
     1 ARH         1 TEMP              0 ****  ****    0 ROOT
