@<TRIPOS>MOLECULE
ARH
   42    45     1     0     0
SMALL
bcc


@<TRIPOS>ATOM
      1 C1          1.3610    0.3030    2.7920 cc        1 ARH     -0.260200
      2 C2          1.9980    0.0860    1.4880 c         1 ARH      0.608900
      3 C3          1.0660    0.0920    0.3580 cc        1 ARH     -0.156900
      4 C4         -0.3390    0.2050    0.5240 cd        1 ARH     -0.206600
      5 C5         -0.9510    0.2940    1.8350 c         1 ARH      0.607900
      6 C6          0.0220    0.4500    2.9840 cd        1 ARH      0.068800
      7 N7          1.3490    0.0120   -0.9970 na        1 ARH      0.013900
      8 C8          0.1420    0.0790   -1.7060 cc        1 ARH     -0.048300
      9 C9         -0.9250    0.1960   -0.7790 cd        1 ARH     -0.105300
     10 O10        -2.1720    0.2150    2.0260 o         1 ARH     -0.536100
     11 O11         3.2200   -0.0740    1.3620 o         1 ARH     -0.538100
     12 N12        -0.4970    0.8800    4.2140 nh        1 ARH     -0.567400
     13 C13        -1.6690    0.2960    4.8420 cx        1 ARH      0.103800
     14 C14        -0.3160    0.1720    5.4820 cx        1 ARH      0.095500
     15 C17         0.3580   -1.1590    5.5960 c3        1 ARH     -0.094100
     16 C25         2.6550   -0.1320   -1.5650 c3        1 ARH      0.000600
     17 C32         0.0620    0.0360   -3.1590 ca        1 ARH     -0.033000
     18 C33        -2.3630    0.3030   -1.1160 c3        1 ARH      0.198700
     19 O34        -3.1340   -0.7750   -0.6260 oh        1 ARH     -0.596800
     20 C38         0.6680   -1.0030   -3.8790 ca        1 ARH     -0.111000
     21 C39         0.5620   -1.0450   -5.2680 ca        1 ARH     -0.130000
     22 C40        -0.1430   -0.0530   -5.9480 ca        1 ARH     -0.117000
     23 C41        -0.7450    0.9850   -5.2370 ca        1 ARH     -0.130000
     24 C42        -0.6440    1.0330   -3.8470 ca        1 ARH     -0.111000
     25 HC1         2.0700    0.3680    3.6370 ha        1 ARH      0.162000
     26 H131       -2.1550   -0.5960    4.3920 h1        1 ARH      0.093200
     27 H132       -2.4130    1.0320    5.2130 h1        1 ARH      0.093200
     28 HC41       -0.0420    0.8560    6.3200 h1        1 ARH      0.102700
     29 H171        0.1280   -1.5990    6.5970 hc        1 ARH      0.051033
     30 H172        0.0100   -1.8710    4.8080 hc        1 ARH      0.051033
     31 H173        1.4660   -1.0420    5.5020 hc        1 ARH      0.051033
     32 H251        2.9290   -1.2210   -1.6160 h1        1 ARH      0.072367
     33 H252        2.6630    0.3000   -2.6010 h1        1 ARH      0.072367
     34 H253        3.4080    0.3980   -0.9180 h1        1 ARH      0.072367
     35 H331       -2.7630    1.2750   -0.7120 h1        1 ARH      0.055700
     36 H332       -2.5120    0.2680   -2.2320 h1        1 ARH      0.055700
     37 HO43       -3.0820   -0.7560    0.3390 ho        1 ARH      0.419000
     38 HC83        1.2180   -1.7920   -3.3440 ha        1 ARH      0.139500
     39 HC93        1.0340   -1.8670   -5.8270 ha        1 ARH      0.137500
     40 HC04       -0.2270   -0.0900   -7.0450 ha        1 ARH      0.136000
     41 HC14       -1.3020    1.7690   -5.7710 ha        1 ARH      0.137500
     42 HC24       -1.1170    1.8540   -3.2870 ha        1 ARH      0.139500
@<TRIPOS>BOND
     1    1    2 1   
     2    1    6 2   
     3    1   25 1   
     4    2    3 1   
     5    2   11 2   
     6    3    4 2   
     7    3    7 1   
     8    4    5 1   
     9    4    9 1   
    10    5    6 1   
    11    5   10 2   
    12    6   12 1   
    13    7    8 1   
    14    7   16 1   
    15    8    9 2   
    16    8   17 1   
    17    9   18 1   
    18   12   13 1   
    19   12   14 1   
    20   13   14 1   
    21   13   26 1   
    22   13   27 1   
    23   14   15 1   
    24   14   28 1   
    25   15   29 1   
    26   15   30 1   
    27   15   31 1   
    28   16   32 1   
    29   16   33 1   
    30   16   34 1   
    31   17   20 ar  
    32   17   24 ar  
    33   18   19 1   
    34   18   35 1   
    35   18   36 1   
    36   19   37 1   
    37   20   21 ar  
    38   20   38 1   
    39   21   22 ar  
    40   21   39 1   
    41   22   23 ar  
    42   22   40 1   
    43   23   24 ar  
    44   23   41 1   
    45   24   42 1   
@<TRIPOS>SUBSTRUCTURE
     1 ARH         1 TEMP              0 ****  ****    0 ROOT
