@<TRIPOS>MOLECULE
ARH
   42    45     1     0     0
SMALL
bcc


@<TRIPOS>ATOM
      1 C1         -0.0490   -0.1580    0.0530 cc        1 ARH     -0.260200
      2 C2          1.4060    0.0080   -0.0250 c         1 ARH      0.608900
      3 C3          2.0790    0.0090    1.2770 cc        1 ARH     -0.156900
      4 C4          1.3720   -0.0510    2.5050 cd        1 ARH     -0.206600
      5 C5         -0.0760   -0.0910    2.5540 c         1 ARH      0.607900
      6 C6         -0.7560   -0.2560    1.2120 cd        1 ARH      0.068800
      7 N7          3.4380    0.0510    1.5470 na        1 ARH      0.013900
      8 C8          3.6150    0.0100    2.9370 cc        1 ARH     -0.048300
      9 C9          2.3400   -0.0500    3.5570 cd        1 ARH     -0.105300
     10 O10        -0.7280    0.0340    3.6000 o         1 ARH     -0.536100
     11 O11         2.0070    0.1230   -1.1020 o         1 ARH     -0.538100
     12 N12        -2.1040   -0.6410    1.2150 nh        1 ARH     -0.567400
     13 C13        -3.1220   -0.0040    2.0330 cx        1 ARH      0.103800
     14 C14        -3.1750    0.0880    0.5340 cx        1 ARH      0.095500
     15 C17        -2.9720    1.3970   -0.1600 c3        1 ARH     -0.094100
     16 C25         4.4780    0.1370    0.5670 c3        1 ARH      0.000600
     17 C32         4.9200    0.0230    3.5810 ca        1 ARH     -0.033000
     18 C33         2.0820   -0.1150    5.0130 c3        1 ARH      0.198700
     19 O34         1.3660    0.9990    5.5040 oh        1 ARH     -0.596800
     20 C38         5.8550    1.0250    3.2830 ca        1 ARH     -0.111000
     21 C39         7.0910    1.0410    3.9250 ca        1 ARH     -0.130000
     22 C40         7.4070    0.0590    4.8640 ca        1 ARH     -0.117000
     23 C41         6.4810   -0.9420    5.1620 ca        1 ARH     -0.130000
     24 C42         5.2420   -0.9640    4.5240 ca        1 ARH     -0.111000
     25 HC1        -0.5500   -0.2290   -0.9280 ha        1 ARH      0.162000
     26 H131       -2.8700    0.8940    2.6360 h1        1 ARH      0.093200
     27 H132       -3.7800   -0.7060    2.5870 h1        1 ARH      0.093200
     28 HC41       -3.8610   -0.5870   -0.0320 h1        1 ARH      0.102700
     29 H171       -2.3600    2.1030    0.4530 hc        1 ARH      0.051033
     30 H172       -2.4550    1.2400   -1.1390 hc        1 ARH      0.051033
     31 H173       -3.9680    1.8660   -0.3530 hc        1 ARH      0.051033
     32 H251        5.4190   -0.3170    0.9770 h1        1 ARH      0.072367
     33 H252        4.1610   -0.4040   -0.3670 h1        1 ARH      0.072367
     34 H253        4.6690    1.2150    0.3100 h1        1 ARH      0.072367
     35 H331        3.0500   -0.1000    5.5880 h1        1 ARH      0.055700
     36 H332        1.5210   -1.0650    5.2440 h1        1 ARH      0.055700
     37 HO43        0.4980    0.9990    5.0780 ho        1 ARH      0.419000
     38 HC83        5.6050    1.8070    2.5500 ha        1 ARH      0.139500
     39 HC93        7.8180    1.8330    3.6930 ha        1 ARH      0.137500
     40 HC04        8.3830    0.0740    5.3710 ha        1 ARH      0.136000
     41 HC14        6.7280   -1.7180    5.9020 ha        1 ARH      0.137500
     42 HC24        4.5140   -1.7560    4.7560 ha        1 ARH      0.139500
@<TRIPOS>BOND
     1    1    2 1   
     2    1    6 2   
     3    1   25 1   
     4    2    3 1   
     5    2   11 2   
     6    3    4 2   
     7    3    7 1   
     8    4    5 1   
     9    4    9 1   
    10    5    6 1   
    11    5   10 2   
    12    6   12 1   
    13    7    8 1   
    14    7   16 1   
    15    8    9 2   
    16    8   17 1   
    17    9   18 1   
    18   12   13 1   
    19   12   14 1   
    20   13   14 1   
    21   13   26 1   
    22   13   27 1   
    23   14   15 1   
    24   14   28 1   
    25   15   29 1   
    26   15   30 1   
    27   15   31 1   
    28   16   32 1   
    29   16   33 1   
    30   16   34 1   
    31   17   20 ar  
    32   17   24 ar  
    33   18   19 1   
    34   18   35 1   
    35   18   36 1   
    36   19   37 1   
    37   20   21 ar  
    38   20   38 1   
    39   21   22 ar  
    40   21   39 1   
    41   22   23 ar  
    42   22   40 1   
    43   23   24 ar  
    44   23   41 1   
    45   24   42 1   
@<TRIPOS>SUBSTRUCTURE
     1 ARH         1 TEMP              0 ****  ****    0 ROOT
