@<TRIPOS>MOLECULE
ARH
   42    45     1     0     0
SMALL
bcc


@<TRIPOS>ATOM
      1 C1         -0.0580   -0.1570    0.0600 cc        1 ARH     -0.260200
      2 C2          1.3980    0.0040   -0.0230 c         1 ARH      0.608900
      3 C3          2.0750    0.0060    1.2770 cc        1 ARH     -0.156900
      4 C4          1.3710   -0.0490    2.5070 cd        1 ARH     -0.206600
      5 C5         -0.0770   -0.0840    2.5610 c         1 ARH      0.607900
      6 C6         -0.7610   -0.2490    1.2210 cd        1 ARH      0.068800
      7 N7          3.4350    0.0430    1.5430 na        1 ARH      0.013900
      8 C8          3.6160    0.0050    2.9320 cc        1 ARH     -0.048300
      9 C9          2.3430   -0.0490    3.5560 cd        1 ARH     -0.105300
     10 O10        -0.7250    0.0460    3.6080 o         1 ARH     -0.536100
     11 O11         1.9960    0.1150   -1.1020 o         1 ARH     -0.538100
     12 N12        -2.1110   -0.6290    1.2300 nh        1 ARH     -0.567400
     13 C13        -3.1240    0.0140    2.0480 cx        1 ARH      0.103800
     14 C14        -3.1810    0.1020    0.5500 cx        1 ARH      0.095500
     15 C17        -2.9750    1.4090   -0.1480 c3        1 ARH     -0.094100
     16 C25         4.4720    0.1230    0.5590 c3        1 ARH      0.000600
     17 C32         4.9230    0.0150    3.5720 ca        1 ARH     -0.033000
     18 C33         2.0880   -0.1100    5.0130 c3        1 ARH      0.198700
     19 O34         1.3780    1.0090    5.5030 oh        1 ARH     -0.596800
     20 C38         5.8610    1.0120    3.2690 ca        1 ARH     -0.111000
     21 C39         7.0990    1.0260    3.9070 ca        1 ARH     -0.130000
     22 C40         7.4140    0.0450    4.8480 ca        1 ARH     -0.117000
     23 C41         6.4860   -0.9520    5.1500 ca        1 ARH     -0.130000
     24 C42         5.2450   -0.9710    4.5160 ca        1 ARH     -0.111000
     25 HC1        -0.5620   -0.2280   -0.9200 ha        1 ARH      0.162000
     26 H131       -3.7830   -0.6850    2.6060 h1        1 ARH      0.093200
     27 H132       -2.8660    0.9130    2.6490 h1        1 ARH      0.093200
     28 HC41       -3.8710   -0.5720   -0.0120 h1        1 ARH      0.102700
     29 H171       -2.4620    1.2480   -1.1280 hc        1 ARH      0.051033
     30 H172       -2.3590    2.1140    0.4610 hc        1 ARH      0.051033
     31 H173       -3.9700    1.8810   -0.3390 hc        1 ARH      0.051033
     32 H251        5.4130   -0.3340    0.9670 h1        1 ARH      0.072367
     33 H252        4.6660    1.1990    0.2990 h1        1 ARH      0.072367
     34 H253        4.1500   -0.4200   -0.3720 h1        1 ARH      0.072367
     35 H331        1.5250   -1.0560    5.2480 h1        1 ARH      0.055700
     36 H332        3.0580   -0.0960    5.5850 h1        1 ARH      0.055700
     37 HO43        0.5090    1.0120    5.0800 ho        1 ARH      0.419000
     38 HC83        5.6110    1.7930    2.5340 ha        1 ARH      0.139500
     39 HC93        7.8280    1.8150    3.6710 ha        1 ARH      0.137500
     40 HC04        8.3910    0.0580    5.3520 ha        1 ARH      0.136000
     41 HC14        6.7320   -1.7270    5.8920 ha        1 ARH      0.137500
     42 HC24        4.5140   -1.7590    4.7530 ha        1 ARH      0.139500
@<TRIPOS>BOND
     1    1    2 1   
     2    1    6 2   
     3    1   25 1   
     4    2    3 1   
     5    2   11 2   
     6    3    4 2   
     7    3    7 1   
     8    4    5 1   
     9    4    9 1   
    10    5    6 1   
    11    5   10 2   
    12    6   12 1   
    13    7    8 1   
    14    7   16 1   
    15    8    9 2   
    16    8   17 1   
    17    9   18 1   
    18   12   13 1   
    19   12   14 1   
    20   13   14 1   
    21   13   26 1   
    22   13   27 1   
    23   14   15 1   
    24   14   28 1   
    25   15   29 1   
    26   15   30 1   
    27   15   31 1   
    28   16   32 1   
    29   16   33 1   
    30   16   34 1   
    31   17   20 ar  
    32   17   24 ar  
    33   18   19 1   
    34   18   35 1   
    35   18   36 1   
    36   19   37 1   
    37   20   21 ar  
    38   20   38 1   
    39   21   22 ar  
    40   21   39 1   
    41   22   23 ar  
    42   22   40 1   
    43   23   24 ar  
    44   23   41 1   
    45   24   42 1   
@<TRIPOS>SUBSTRUCTURE
     1 ARH         1 TEMP              0 ****  ****    0 ROOT
