@<TRIPOS>MOLECULE
ARI
   26    26     1     0     0
SMALL
bcc


@<TRIPOS>ATOM
      1 OGL        -1.5800    2.2730   -1.2710 oh        1 ARI     -0.629800
      2 C1         -0.1970    2.2980   -1.2580 c3        1 ARI      0.333900
      3 C2          0.2780    2.2890    0.1720 c3        1 ARI     -0.092400
      4 C3          0.0130    1.0010    0.8430 c3        1 ARI     -0.101400
      5 C4          0.5240   -0.1570    0.0630 c3        1 ARI      0.122100
      6 O4          0.0730   -1.3690    0.6850 os        1 ARI     -0.438900
      7 CME         0.8080   -3.3040    2.1590 c3        1 ARI     -0.150100
      8 CO4         1.1140   -2.1830    1.1680 c         1 ARI      0.635100
      9 OC4         2.2570   -1.9470    0.8590 o         1 ARI     -0.542000
     10 C5          0.0480   -0.1380   -1.3700 c3        1 ARI      0.153100
     11 O1          0.3080    1.1410   -2.0290 os        1 ARI     -0.451600
     12 C6         -1.4270   -0.4080   -1.3930 c3        1 ARI     -0.122100
     13 HOG        -1.8880    3.0430   -1.5960 ho        1 ARI      0.419000
     14 H1          0.1080    3.1220   -1.6870 h2        1 ARI      0.066700
     15 H21         1.2500    2.4630    0.1870 hc        1 ARI      0.064700
     16 H22        -0.1800    3.0020    0.6620 hc        1 ARI      0.064700
     17 H31         0.4430    1.0070    1.7190 hc        1 ARI      0.066200
     18 H32        -0.9530    0.9000    0.9640 hc        1 ARI      0.066200
     19 H4          1.5080   -0.1400    0.0720 h1        1 ARI      0.078700
     20 H41         0.3780   -2.9270    2.9570 hc        1 ARI      0.076700
     21 H42         0.2020   -3.9610    1.7370 hc        1 ARI      0.076700
     22 H43         1.6440   -3.7500    2.4180 hc        1 ARI      0.076700
     23 H5          0.5110   -0.8540   -1.8690 h1        1 ARI      0.074700
     24 H61        -1.8380   -0.0490   -0.5780 hc        1 ARI      0.051033
     25 H62        -1.5810   -1.3740   -1.4390 hc        1 ARI      0.051033
     26 H63        -1.8250    0.0230   -2.1750 hc        1 ARI      0.051033
@<TRIPOS>BOND
     1    1    2 1   
     2    1   13 1   
     3    2    3 1   
     4    2   11 1   
     5    2   14 1   
     6    3    4 1   
     7    3   15 1   
     8    3   16 1   
     9    4    5 1   
    10    4   17 1   
    11    4   18 1   
    12    5    6 1   
    13    5   10 1   
    14    5   19 1   
    15    6    8 1   
    16    7    8 1   
    17    7   20 1   
    18    7   21 1   
    19    7   22 1   
    20    8    9 2   
    21   10   11 1   
    22   10   12 1   
    23   10   23 1   
    24   12   24 1   
    25   12   25 1   
    26   12   26 1   
@<TRIPOS>SUBSTRUCTURE
     1 ARI         1 TEMP              0 ****  ****    0 ROOT
