@<TRIPOS>MOLECULE
ARI
   26    26     1     0     0
SMALL
bcc


@<TRIPOS>ATOM
      1 OGL        -0.6090    0.9250    3.2500 oh        1 ARI     -0.590800
      2 C1         -0.3300   -0.1300    2.3700 c3        1 ARI      0.339900
      3 C2         -1.4570   -0.3770    1.3670 c3        1 ARI     -0.134400
      4 C3         -1.0050   -1.3440    0.2970 c3        1 ARI     -0.100400
      5 C4          0.3010   -0.8880   -0.3420 c3        1 ARI      0.114100
      6 O4          0.0880    0.3180   -1.0970 os        1 ARI     -0.429900
      7 CME        -0.5630    1.5080   -3.0520 c3        1 ARI     -0.151100
      8 CO4        -0.3930    0.1930   -2.3720 c         1 ARI      0.632100
      9 OC4        -0.6240   -0.9340   -2.8140 o         1 ARI     -0.547000
     10 C5          1.3540   -0.5720    0.7360 c3        1 ARI      0.159100
     11 O1          0.8580    0.3260    1.7260 os        1 ARI     -0.447600
     12 C6          2.5980    0.0710    0.1570 c3        1 ARI     -0.091100
     13 HOG        -0.5170    1.7530    2.7590 ho        1 ARI      0.421000
     14 H1         -0.1220   -1.0340    3.0070 h2        1 ARI      0.069700
     15 H21        -2.3480   -0.7790    1.9110 hc        1 ARI      0.062700
     16 H22        -1.7460    0.5980    0.8970 hc        1 ARI      0.062700
     17 H31        -0.8460   -2.3620    0.7390 hc        1 ARI      0.061200
     18 H32        -1.7900   -1.4330   -0.4980 hc        1 ARI      0.061200
     19 H4          0.6960   -1.6870   -1.0300 h1        1 ARI      0.078700
     20 H41         0.0420    1.5090   -3.9910 hc        1 ARI      0.077033
     21 H42        -1.6410    1.6420   -3.3120 hc        1 ARI      0.077033
     22 H43        -0.2320    2.3460   -2.3930 hc        1 ARI      0.077033
     23 H5          1.6110   -1.5500    1.2360 h1        1 ARI      0.042700
     24 H61         3.3340    0.2730    0.9710 hc        1 ARI      0.051367
     25 H62         3.0530   -0.6150   -0.5950 hc        1 ARI      0.051367
     26 H63         2.3370    1.0380   -0.3360 hc        1 ARI      0.051367
@<TRIPOS>BOND
     1    1    2 1   
     2    1   13 1   
     3    2    3 1   
     4    2   11 1   
     5    2   14 1   
     6    3    4 1   
     7    3   15 1   
     8    3   16 1   
     9    4    5 1   
    10    4   17 1   
    11    4   18 1   
    12    5    6 1   
    13    5   10 1   
    14    5   19 1   
    15    6    8 1   
    16    7    8 1   
    17    7   20 1   
    18    7   21 1   
    19    7   22 1   
    20    8    9 2   
    21   10   11 1   
    22   10   12 1   
    23   10   23 1   
    24   12   24 1   
    25   12   25 1   
    26   12   26 1   
@<TRIPOS>SUBSTRUCTURE
     1 ARI         1 TEMP              0 ****  ****    0 ROOT
