@<TRIPOS>MOLECULE
ARJ
   33    35     1     0     0
SMALL
bcc


@<TRIPOS>ATOM
      1 C2          0.0420    0.1060   -0.0490 ca        1 ARJ      0.675900
      2 C4          1.9910    0.0600    1.1270 ca        1 ARJ      0.465800
      3 C5          1.2230   -0.0080    2.3930 ca        1 ARJ     -0.140200
      4 C6         -0.1770   -0.0040    2.2540 ca        1 ARJ      0.522200
      5 O2'         4.7850    2.5080    0.1960 oh        1 ARJ     -0.578800
      6 C2'         5.3350    1.4510    0.9470 c3        1 ARJ      0.028100
      7 C3D         6.7480    1.0650    0.5220 c         1 ARJ      0.540100
      8 O3D         7.6580    1.8760    0.3830 o         1 ARJ     -0.482100
      9 C4'         6.8320   -0.4240    0.3090 c3        1 ARJ     -0.215700
     10 C6'         8.0020   -1.0500    1.0670 c3        1 ARJ      0.150400
     11 O6'         9.2300   -0.7570    0.4460 oh        1 ARJ     -0.577800
     12 C5'         5.4870   -0.9970    0.7420 c3        1 ARJ     -0.086400
     13 C1'         4.4830    0.1770    0.6620 c3        1 ARJ      0.034000
     14 N9          3.3360    0.0410    1.5270 na        1 ARJ     -0.229000
     15 C8          3.3280   -0.0240    2.9370 cc        1 ARJ      0.497700
     16 N7          2.0960   -0.0610    3.4830 nd        1 ARJ     -0.581100
     17 N3          1.3980    0.1120   -0.0920 nb        1 ARJ     -0.610000
     18 N1         -0.7790    0.0530    1.0420 nb        1 ARJ     -0.677000
     19 N6         -1.0030   -0.0610    3.4740 n4        1 ARJ     -0.816300
     20 H2         -0.4800    0.1520   -1.0350 h5        1 ARJ      0.103100
     21 HO2'        5.4790    3.1770    0.0880 ho        1 ARJ      0.441000
     22 H2'         5.3420    1.7250    2.0390 h1        1 ARJ      0.069700
     23 H4'         6.9970   -0.6040   -0.7920 hc        1 ARJ      0.119700
     24 H6'         8.0010   -0.7040    2.1350 h1        1 ARJ      0.055200
     25 H6A'        7.9230   -2.1710    1.0340 h1        1 ARJ      0.055200
     26 HO6'        9.3540    0.2030    0.4730 ho        1 ARJ      0.420000
     27 H5'         5.1670   -1.8280    0.0650 hc        1 ARJ      0.071700
     28 H5A'        5.5550   -1.4070    1.7820 hc        1 ARJ      0.071700
     29 H1'         4.0940    0.2600   -0.4000 h1        1 ARJ      0.131700
     30 H8          4.2660   -0.0490    3.5170 h5        1 ARJ      0.104800
     31 HN6        -0.7340   -0.8940    4.0130 hn        1 ARJ      0.478800
     32 HN6A       -0.8130    0.7790    4.0350 hn        1 ARJ      0.478800
     33 H63        -2.0050   -0.1040    3.2450 hn        1 ARJ      0.478800
@<TRIPOS>BOND
     1    1   17 ar  
     2    1   18 ar  
     3    1   20 1   
     4    2    3 ar  
     5    2   14 1   
     6    2   17 ar  
     7    3    4 ar  
     8    3   16 1   
     9    4   18 ar  
    10    4   19 1   
    11    5    6 1   
    12    5   21 1   
    13    6    7 1   
    14    6   13 1   
    15    6   22 1   
    16    7    8 2   
    17    7    9 1   
    18    9   10 1   
    19    9   12 1   
    20    9   23 1   
    21   10   11 1   
    22   10   24 1   
    23   10   25 1   
    24   11   26 1   
    25   12   13 1   
    26   12   27 1   
    27   12   28 1   
    28   13   14 1   
    29   13   29 1   
    30   14   15 1   
    31   15   16 2   
    32   15   30 1   
    33   19   31 1   
    34   19   32 1   
    35   19   33 1   
@<TRIPOS>SUBSTRUCTURE
     1 ARJ         1 TEMP              0 ****  ****    0 ROOT
