@<TRIPOS>MOLECULE
ARJ
   32    28     1     0     0
SMALL
bcc


@<TRIPOS>ATOM
      1 C2         -3.8560   -0.0620   -0.8820 c1        1 ARJ      0.029000
      2 C4         -1.7880   -0.0100    0.2660 c1        1 ARJ      0.081000
      3 C5         -2.4390   -0.1360    1.4400 c1        1 ARJ     -0.247000
      4 C6         -3.8250   -0.2270    1.4590 c1        1 ARJ      0.245000
      5 O2'         1.0800    2.5890   -0.1610 oh        1 ARJ     -0.296000
      6 C2'         1.3910    1.2420   -0.1190 c3        1 ARJ     -0.032000
      7 C3D         2.6270    0.9230   -1.2180 c2        1 ARJ      0.203000
      8 O3D         3.3830    1.7400   -1.6940 o         1 ARJ     -0.279000
      9 C4'         2.5420   -0.3860   -1.5680 c3        1 ARJ     -0.204000
     10 C6'         3.4730   -1.2330   -0.6410 c3        1 ARJ     -0.002000
     11 O6'         4.8230   -1.0150   -1.0020 oh        1 ARJ     -0.321000
     12 C5'         1.0150   -0.6790   -1.3860 c3        1 ARJ     -0.170000
     13 C1'         0.3890    0.5540   -0.5870 c3        1 ARJ      0.040000
     14 N9         -0.4510    0.0580    0.5300 n2        1 ARJ     -0.178000
     15 C8         -0.2840   -0.0260    1.8670 c1        1 ARJ     -0.061000
     16 N7         -1.5090   -0.1460    2.4360 n1        1 ARJ     -0.108000
     17 N3         -2.4930    0.0280   -0.9030 n1        1 ARJ     -0.209000
     18 N1         -4.5160   -0.1900    0.3080 n1        1 ARJ     -0.269000
     19 N6         -4.8440   -0.1800    2.4580 n3        1 ARJ     -0.357000
     20 H2         -4.3600   -0.0350   -1.7200 ha        1 ARJ      0.191000
     21 HO2'        1.7050    3.0510    0.2720 ho        1 ARJ      0.220000
     22 H2'         1.6010    1.1300    0.8320 h1        1 ARJ      0.110000
     23 H4'         2.8550   -0.6500   -2.4520 hc        1 ARJ      0.147000
     24 H6'         3.3370   -0.9640    0.2900 h1        1 ARJ      0.091000
     25 H6A'        3.2580   -2.1790   -0.7420 h1        1 ARJ      0.091000
     26 HO6'        5.3240   -1.6650   -0.6750 ho        1 ARJ      0.218000
     27 H5'         0.8910   -1.5090   -0.8720 hc        1 ARJ      0.107500
     28 H5A'        0.5840   -0.7620   -2.2620 hc        1 ARJ      0.107500
     29 H1'        -0.1460    1.1060   -1.1880 h1        1 ARJ      0.164000
     30 H8          0.5650   -0.0350    2.3370 DU        1 ARJ      0.199000
     31 HN6        -4.9120    0.5550    3.0130 hn        1 ARJ      0.245000
     32 HN6A       -5.4170   -0.8880    2.5630 hn        1 ARJ      0.245000
@<TRIPOS>BOND
     1    1   18 1   
     2    1   20 1   
     3    2   17 1   
     4    3    4 1   
     5    4   19 1   
     6    5    6 1   
     7    5   21 1   
     8    6    7 1   
     9    6   13 1   
    10    6   22 1   
    11    7    8 1   
    12    7    9 1   
    13    9   10 1   
    14    9   12 1   
    15    9   23 1   
    16   10   11 1   
    17   10   24 1   
    18   10   25 1   
    19   11   26 1   
    20   12   13 1   
    21   12   27 1   
    22   12   28 1   
    23   13   14 1   
    24   13   29 1   
    25   14   15 1   
    26   15   16 1   
    27   19   31 1   
    28   19   32 1   
@<TRIPOS>SUBSTRUCTURE
     1 ARJ         1 TEMP              0 ****  ****    0 ROOT
