@<TRIPOS>MOLECULE
ARJ
   32    34     1     0     0
SMALL
bcc


@<TRIPOS>ATOM
      1 C2          3.4390   -1.3420   -1.3310 ca        1 ARJ      0.691900
      2 C4          1.7500   -0.2240   -0.3220 ca        1 ARJ      0.472800
      3 C5          2.7160    0.6350    0.3530 ca        1 ARJ     -0.238200
      4 C6          4.1070    0.3920    0.0900 ca        1 ARJ      0.766200
      5 O2'        -1.4620   -2.0960    1.1660 oh        1 ARJ     -0.568800
      6 C2'        -1.6780   -0.7210    0.9350 c3        1 ARJ      0.029100
      7 C3D        -3.1070   -0.4290    0.4980 c         1 ARJ      0.542100
      8 O3D        -4.1030   -0.7660    1.1360 o         1 ARJ     -0.518100
      9 C4'        -3.1080    0.3200   -0.8100 c3        1 ARJ     -0.214700
     10 C6'        -4.0130    1.5470   -0.7740 c3        1 ARJ      0.148400
     11 O6'        -5.3770    1.1910   -0.7820 oh        1 ARJ     -0.593800
     12 C5'        -1.6560    0.6800   -1.0950 c3        1 ARJ     -0.091400
     13 C1'        -0.7850   -0.3020   -0.2720 c3        1 ARJ      0.060000
     14 N9          0.4910    0.2280    0.1080 na        1 ARJ     -0.261000
     15 C8          0.7470    1.3080    0.9930 cc        1 ARJ      0.394700
     16 N7          2.0490    1.5700    1.1580 nd        1 ARJ     -0.535100
     17 N3          2.0980   -1.2270   -1.1830 nb        1 ARJ     -0.735000
     18 N1          4.4490   -0.6270   -0.7690 nb        1 ARJ     -0.795000
     19 N6          5.0670    1.1750    0.6730 nh        1 ARJ     -0.959500
     20 H2          3.7710   -2.1500   -2.0190 h5        1 ARJ      0.054100
     21 HO2'       -2.1190   -2.3760    1.8200 ho        1 ARJ      0.421000
     22 H2'        -1.4470   -0.1300    1.8650 h1        1 ARJ      0.070700
     23 H4'        -3.4980   -0.3820   -1.6020 hc        1 ARJ      0.107700
     24 H6'        -3.7770    2.1760    0.1260 h1        1 ARJ      0.051700
     25 H6A'       -3.8690    2.1580   -1.7060 h1        1 ARJ      0.051700
     26 HO6'       -5.5380    0.6320   -0.0080 ho        1 ARJ      0.419000
     27 H5'        -1.4210    0.5760   -2.1830 hc        1 ARJ      0.068200
     28 H5A'       -1.4540    1.7420   -0.8020 hc        1 ARJ      0.068200
     29 H1'        -0.5970   -1.2340   -0.8900 h1        1 ARJ      0.124700
     30 H8         -0.0740    1.8520    1.4750 h5        1 ARJ      0.069800
     31 HN6         4.7900    1.8570    1.3330 hn        1 ARJ      0.449800
     32 HN6A        6.0270    0.9820    0.5370 hn        1 ARJ      0.449800
@<TRIPOS>BOND
     1    1   17 ar  
     2    1   18 ar  
     3    1   20 1   
     4    2    3 ar  
     5    2   14 1   
     6    2   17 ar  
     7    3    4 ar  
     8    3   16 1   
     9    4   18 ar  
    10    4   19 1   
    11    5    6 1   
    12    5   21 1   
    13    6    7 1   
    14    6   13 1   
    15    6   22 1   
    16    7    8 2   
    17    7    9 1   
    18    9   10 1   
    19    9   12 1   
    20    9   23 1   
    21   10   11 1   
    22   10   24 1   
    23   10   25 1   
    24   11   26 1   
    25   12   13 1   
    26   12   27 1   
    27   12   28 1   
    28   13   14 1   
    29   13   29 1   
    30   14   15 1   
    31   15   16 2   
    32   15   30 1   
    33   19   31 1   
    34   19   32 1   
@<TRIPOS>SUBSTRUCTURE
     1 ARJ         1 TEMP              0 ****  ****    0 ROOT
