@<TRIPOS>MOLECULE
ARJ
   32    34     1     0     0
SMALL
bcc


@<TRIPOS>ATOM
      1 C2          0.0340   -0.1130    0.0240 ca        1 ARJ      0.691900
      2 C4          1.9830    0.0530    1.1610 ca        1 ARJ      0.472800
      3 C5          1.2570   -0.0220    2.4250 ca        1 ARJ     -0.238200
      4 C6         -0.1720   -0.1480    2.3540 ca        1 ARJ      0.766200
      5 O2'         4.8990    2.5640    0.0510 oh        1 ARJ     -0.568800
      6 C2'         5.3500    1.5280    0.8950 c3        1 ARJ      0.029100
      7 C3D         6.7660    1.0840    0.5550 c         1 ARJ      0.542100
      8 O3D         7.7310    1.8440    0.5040 o         1 ARJ     -0.518100
      9 C4'         6.7970   -0.4010    0.2940 c3        1 ARJ     -0.214700
     10 C6'         7.9170   -1.0990    1.0580 c3        1 ARJ      0.148400
     11 O6'         9.1840   -0.8060    0.5140 oh        1 ARJ     -0.593800
     12 C5'         5.4200   -0.9280    0.6750 c3        1 ARJ     -0.091400
     13 C1'         4.4520    0.2810    0.6290 c3        1 ARJ      0.060000
     14 N9          3.3360    0.1690    1.5200 na        1 ARJ     -0.261000
     15 C8          3.3650    0.1570    2.9390 cc        1 ARJ      0.394700
     16 N7          2.1540    0.0470    3.5010 nd        1 ARJ     -0.535100
     17 N3          1.3800    0.0020   -0.0640 nb        1 ARJ     -0.735000
     18 N1         -0.7720   -0.1870    1.1160 nb        1 ARJ     -0.795000
     19 N6         -0.9130   -0.2460    3.5000 nh        1 ARJ     -0.959500
     20 H2         -0.5020   -0.1530   -0.9500 h5        1 ARJ      0.054100
     21 HO2'        5.5450    3.2820    0.1200 ho        1 ARJ      0.421000
     22 H2'         5.3150    1.8600    1.9700 h1        1 ARJ      0.070700
     23 H4'         6.9790   -0.5470   -0.8090 hc        1 ARJ      0.107700
     24 H6'         7.8820   -0.8150    2.1440 h1        1 ARJ      0.051700
     25 H6A'        7.8120   -2.2140    0.9590 h1        1 ARJ      0.051700
     26 HO6'        9.3010    0.1540    0.5470 ho        1 ARJ      0.419000
     27 H5'         5.0780   -1.7160   -0.0400 hc        1 ARJ      0.068200
     28 H5A'        5.4480   -1.3840    1.6980 hc        1 ARJ      0.068200
     29 H1'         4.0400    0.3830   -0.4220 h1        1 ARJ      0.124700
     30 H8          4.3110    0.2310    3.4880 h5        1 ARJ      0.069800
     31 HN6        -1.9010   -0.2820    3.4610 hn        1 ARJ      0.449800
     32 HN6A       -0.4580   -0.1510    4.3730 hn        1 ARJ      0.449800
@<TRIPOS>BOND
     1    1   17 ar  
     2    1   18 ar  
     3    1   20 1   
     4    2    3 ar  
     5    2   14 1   
     6    2   17 ar  
     7    3    4 ar  
     8    3   16 1   
     9    4   18 ar  
    10    4   19 1   
    11    5    6 1   
    12    5   21 1   
    13    6    7 1   
    14    6   13 1   
    15    6   22 1   
    16    7    8 2   
    17    7    9 1   
    18    9   10 1   
    19    9   12 1   
    20    9   23 1   
    21   10   11 1   
    22   10   24 1   
    23   10   25 1   
    24   11   26 1   
    25   12   13 1   
    26   12   27 1   
    27   12   28 1   
    28   13   14 1   
    29   13   29 1   
    30   14   15 1   
    31   15   16 2   
    32   15   30 1   
    33   19   31 1   
    34   19   32 1   
@<TRIPOS>SUBSTRUCTURE
     1 ARJ         1 TEMP              0 ****  ****    0 ROOT
