@<TRIPOS>MOLECULE
ARJ
   32    34     1     0     0
SMALL
bcc


@<TRIPOS>ATOM
      1 C2          0.0350   -0.1030    0.0310 ca        1 ARJ      0.691900
      2 C4          1.9870    0.0570    1.1650 ca        1 ARJ      0.472800
      3 C5          1.2640   -0.0200    2.4290 ca        1 ARJ     -0.238200
      4 C6         -0.1660   -0.1450    2.3610 ca        1 ARJ      0.766200
      5 O2'         4.9040    2.5680    0.0560 oh        1 ARJ     -0.568800
      6 C2'         5.3560    1.5280    0.8960 c3        1 ARJ      0.029100
      7 C3D         6.7700    1.0830    0.5520 c         1 ARJ      0.542100
      8 O3D         7.7360    1.8430    0.5010 o         1 ARJ     -0.518100
      9 C4'         6.7980   -0.4000    0.2860 c3        1 ARJ     -0.214700
     10 C6'         7.9190   -1.1030    1.0460 c3        1 ARJ      0.148400
     11 O6'         9.1850   -0.8090    0.4990 oh        1 ARJ     -0.593800
     12 C5'         5.4210   -0.9270    0.6690 c3        1 ARJ     -0.091400
     13 C1'         4.4550    0.2840    0.6280 c3        1 ARJ      0.060000
     14 N9          3.3410    0.1710    1.5210 na        1 ARJ     -0.261000
     15 C8          3.3730    0.1540    2.9400 cc        1 ARJ      0.394700
     16 N7          2.1630    0.0440    3.5040 nd        1 ARJ     -0.535100
     17 N3          1.3820    0.0110   -0.0590 nb        1 ARJ     -0.735000
     18 N1         -0.7680   -0.1790    1.1240 nb        1 ARJ     -0.795000
     19 N6         -0.9050   -0.2440    3.5090 nv        1 ARJ     -0.959500
     20 H2         -0.5030   -0.1400   -0.9420 h5        1 ARJ      0.054100
     21 HO2'        5.5510    3.2850    0.1260 ho        1 ARJ      0.421000
     22 H2'         5.3230    1.8570    1.9720 h1        1 ARJ      0.070700
     23 H4'         6.9780   -0.5430   -0.8180 hc        1 ARJ      0.107700
     24 H6'         7.8860   -0.8220    2.1320 h1        1 ARJ      0.051700
     25 H6A'        7.8130   -2.2170    0.9440 h1        1 ARJ      0.051700
     26 HO6'        9.3040    0.1510    0.5360 ho        1 ARJ      0.419000
     27 H5'         5.4510   -1.3860    1.6900 hc        1 ARJ      0.068200
     28 H5A'        5.0770   -1.7120   -0.0490 hc        1 ARJ      0.068200
     29 H1'         4.0410    0.3890   -0.4220 h1        1 ARJ      0.124700
     30 H8          4.3200    0.2260    3.4870 h5        1 ARJ      0.069800
     31 HN6        -1.8930   -0.2800    3.4710 hn        1 ARJ      0.449800
     32 HN6A       -0.4480   -0.1540    4.3810 hn        1 ARJ      0.449800
@<TRIPOS>BOND
     1    1   17 ar  
     2    1   18 ar  
     3    1   20 1   
     4    2    3 ar  
     5    2   14 1   
     6    2   17 ar  
     7    3    4 ar  
     8    3   16 1   
     9    4   18 ar  
    10    4   19 1   
    11    5    6 1   
    12    5   21 1   
    13    6    7 1   
    14    6   13 1   
    15    6   22 1   
    16    7    8 2   
    17    7    9 1   
    18    9   10 1   
    19    9   12 1   
    20    9   23 1   
    21   10   11 1   
    22   10   24 1   
    23   10   25 1   
    24   11   26 1   
    25   12   13 1   
    26   12   27 1   
    27   12   28 1   
    28   13   14 1   
    29   13   29 1   
    30   14   15 1   
    31   15   16 2   
    32   15   30 1   
    33   19   31 1   
    34   19   32 1   
@<TRIPOS>SUBSTRUCTURE
     1 ARJ         1 TEMP              0 ****  ****    0 ROOT
