@<TRIPOS>MOLECULE
ARK
   79    79     1     0     0
SMALL
bcc


@<TRIPOS>ATOM
      1 OAA         9.3940    1.4850    1.6410 o         1 ARK     -0.810800
      2 CBH         8.1750    1.2650    1.4550 c         1 ARK      0.903600
      3 OAG         7.7310    0.5830    0.4680 o         1 ARK     -0.810800
      4 CAV         7.1600    1.8150    2.4690 c3        1 ARK     -0.219400
      5 CAX         6.4600    3.0630    1.9830 c3        1 ARK     -0.168700
      6 CBQ         5.3670    2.8350    0.9940 c2        1 ARK      0.358500
      7 CBJ         1.9050    4.3590    2.0690 c1        1 ARK      0.945000
      8 OAI         3.0400    4.4770    2.4220 o         1 ARK     -0.485000
      9 OAC         0.7510    4.3870    1.7820 o         1 ARK     -0.485000
     10 NBE         5.3480    1.8600    0.1300 n         1 ARK     -0.358500
     11 CBK         4.2140    1.6970   -0.8030 c         1 ARK      0.766100
     12 OAD         4.0160    2.6040   -1.6210 o         1 ARK     -0.532100
     13 N           3.5230    0.4620   -0.7910 n         1 ARK     -0.453900
     14 CA          2.0770    0.6280   -0.6270 c3        1 ARK     -0.060300
     15 C           1.7190    1.5410    0.5860 c         1 ARK      0.906600
     16 OXT         0.6240    1.3850    1.1780 o         1 ARK     -0.840300
     17 O           2.5690    2.4360    0.9050 o         1 ARK     -0.840300
     18 CB          1.3470   -0.7080   -0.5120 c3        1 ARK     -0.070400
     19 CAP         1.3830   -1.5010   -1.8000 c3        1 ARK     -0.080400
     20 CAQ         0.3200   -2.5810   -1.7870 c3        1 ARK     -0.100400
     21 CAY         0.4090   -3.4150   -3.0620 c3        1 ARK      0.049300
     22 NBR        -0.7180   -4.3120   -3.2560 na        1 ARK      0.050400
     23 CAO        -1.7140   -4.6000   -2.3170 cc        1 ARK     -0.199600
     24 NBB        -0.9920   -4.9570   -4.4190 nc        1 ARK     -0.179800
     25 NBA        -2.0660   -5.6260   -4.3040 nd        1 ARK     -0.359000
     26 CBL        -2.5990   -5.4560   -3.0030 cd        1 ARK      0.198600
     27 CAZ        -3.8500   -6.0880   -2.5260 c3        1 ARK      0.123100
     28 OBG        -4.2050   -5.6760   -1.2130 os        1 ARK     -0.422600
     29 CAU        -4.6680   -4.3290   -1.1320 c3        1 ARK      0.120400
     30 CAT        -4.4650   -3.8620    0.3040 c3        1 ARK      0.110400
     31 OBF        -3.0700   -3.5710    0.4410 os        1 ARK     -0.437600
     32 CAS        -2.6670   -3.2550    1.7630 c3        1 ARK      0.119400
     33 CAR        -2.3530   -1.7540    1.8710 c3        1 ARK     -0.025700
     34 NBC        -3.5350   -0.9330    1.7880 nh        1 ARK     -0.293100
     35 CBN        -3.5220    0.3910    1.6040 cc        1 ARK      0.379300
     36 CAM        -2.2750    1.1290    1.5860 cc        1 ARK     -0.331600
     37 CAL        -2.2340    2.4730    1.4140 cd        1 ARK      0.018000
     38 CBM        -3.4660    3.2090    1.2310 cd        1 ARK     -0.065000
     39 NBS        -3.4640    4.5690    1.0610 nh        1 ARK      0.314300
     40 OAJ        -2.2760    5.1680    1.0600 oh        1 ARK     -0.382300
     41 OAE        -4.3960    5.3150    0.8930 o         1 ARK     -0.378000
     42 CAN        -4.7210    2.4850    1.2170 cc        1 ARK     -0.181600
     43 CBO        -4.7760    1.1350    1.4120 cc        1 ARK     -0.019700
     44 NBT        -6.1050    0.4360    1.6710 nh        1 ARK      0.077500
     45 OAK        -7.0850    1.1910    1.1020 oh        1 ARK     -0.590200
     46 OAF        -6.1630   -0.7150    1.1900 o         1 ARK     -0.531000
     47 HAV1        6.4130    1.0160    2.7070 hc        1 ARK      0.053700
     48 HAV2        7.7130    2.0650    3.4110 hc        1 ARK      0.053700
     49 HAX1        6.0020    3.6100    2.8530 hc        1 ARK      0.088700
     50 HAX2        7.2130    3.7520    1.5030 hc        1 ARK      0.088700
     51 HBQ         4.4990    3.5470    1.0200 h4        1 ARK      0.088800
     52 HBE         6.1400    1.1670    0.0880 hn        1 ARK      0.420500
     53 H           3.8920   -0.2060   -0.1390 hn        1 ARK      0.279500
     54 HA          1.7110    1.1750   -1.5470 h1        1 ARK      0.086700
     55 HB1C        1.7740   -1.3180    0.3260 hc        1 ARK      0.058200
     56 HB2C        0.2840   -0.4660   -0.2330 hc        1 ARK      0.058200
     57 HAP1        1.2100   -0.8160   -2.6730 hc        1 ARK      0.050200
     58 HAP2        2.3970   -1.9610   -1.9380 hc        1 ARK      0.050200
     59 HAQ1        0.4580   -3.2390   -0.8890 hc        1 ARK      0.054200
     60 HAQ2       -0.6910   -2.1010   -1.6990 hc        1 ARK      0.054200
     61 HAY1        0.4710   -2.7260   -3.9540 h1        1 ARK      0.068200
     62 HAY2        1.3510   -4.0360   -3.0370 h1        1 ARK      0.068200
     63 HAO        -1.7400   -4.2100   -1.2970 h4        1 ARK      0.218000
     64 HAZ1       -4.6920   -5.8730   -3.2410 h1        1 ARK      0.060700
     65 HAZ2       -3.7140   -7.2010   -2.4250 h1        1 ARK      0.060700
     66 HAU1       -4.1070   -3.6670   -1.8430 h1        1 ARK      0.051700
     67 HAU2       -5.7630   -4.3140   -1.3790 h1        1 ARK      0.051700
     68 HAT1       -5.0740   -2.9360    0.4870 h1        1 ARK      0.065200
     69 HAT2       -4.7540   -4.6700    1.0260 h1        1 ARK      0.065200
     70 HAS1       -3.4240   -3.5740    2.5240 h1        1 ARK      0.059700
     71 HAS2       -1.7080   -3.8200    1.9260 h1        1 ARK      0.059700
     72 HAR1       -1.8370   -1.5650    2.8560 h1        1 ARK      0.074700
     73 HAR2       -1.6390   -1.4780    1.0410 h1        1 ARK      0.074700
     74 HBC        -4.4340   -1.4130    1.7590 hn        1 ARK      0.354700
     75 HAM        -1.3140    0.5920    1.7080 ha        1 ARK      0.198000
     76 HAL        -1.2510    2.9930    1.4070 ha        1 ARK      0.210000
     77 HAN        -5.6560    3.0480    1.0390 ha        1 ARK      0.183000
     78 HAJ        -2.4040    6.1330    0.9090 ho        1 ARK      0.465000
     79 HAK        -7.5100    0.6940    0.3800 ho        1 ARK      0.397000
@<TRIPOS>BOND
     1    1    2 1   
     2    2    3 1   
     3    2    4 1   
     4    4    5 1   
     5    4   47 1   
     6    4   48 1   
     7    5    6 1   
     8    5   49 1   
     9    5   50 1   
    10    6   10 2   
    11    6   51 1   
    12    7    8 2   
    13    7    9 2   
    14   10   11 1   
    15   10   52 1   
    16   11   12 2   
    17   11   13 1   
    18   13   14 1   
    19   13   53 1   
    20   14   15 1   
    21   14   18 1   
    22   14   54 1   
    23   15   16 1   
    24   15   17 1   
    25   18   19 1   
    26   18   55 1   
    27   18   56 1   
    28   19   20 1   
    29   19   57 1   
    30   19   58 1   
    31   20   21 1   
    32   20   59 1   
    33   20   60 1   
    34   21   22 1   
    35   21   61 1   
    36   21   62 1   
    37   22   23 1   
    38   22   24 1   
    39   23   26 2   
    40   23   63 1   
    41   24   25 2   
    42   25   26 1   
    43   26   27 1   
    44   27   28 1   
    45   27   64 1   
    46   27   65 1   
    47   28   29 1   
    48   29   30 1   
    49   29   66 1   
    50   29   67 1   
    51   30   31 1   
    52   30   68 1   
    53   30   69 1   
    54   31   32 1   
    55   32   33 1   
    56   32   70 1   
    57   32   71 1   
    58   33   34 1   
    59   33   72 1   
    60   33   73 1   
    61   34   35 2   
    62   34   74 1   
    63   35   36 1   
    64   35   43 1   
    65   36   37 2   
    66   36   75 1   
    67   37   38 1   
    68   37   76 1   
    69   38   39 1   
    70   38   42 2   
    71   39   40 1   
    72   39   41 1   
    73   40   78 1   
    74   42   43 1   
    75   42   77 1   
    76   43   44 2   
    77   44   45 1   
    78   44   46 1   
    79   45   79 1   
@<TRIPOS>SUBSTRUCTURE
     1 ARK         1 TEMP              0 ****  ****    0 ROOT
