@<TRIPOS>MOLECULE
ARK
   81    82     1     0     0
SMALL
bcc


@<TRIPOS>ATOM
      1 OAA         0.0000    0.0000    0.0000 o         1 ARK     -0.590300
      2 CBH         1.3420    0.0000    0.0000 c         1 ARK      0.929600
      3 OAG         1.9470    0.0000    1.0460 o         1 ARK     -0.590300
      4 CAV         2.0960    0.0010   -1.3060 c3        1 ARK     -0.139400
      5 CAX         3.6010    0.0020   -1.0260 c3        1 ARK     -0.011400
      6 CBQ         4.3660    0.0020   -2.3510 c3        1 ARK     -0.164500
      7 CBJ         5.8420    0.1270   -2.0780 c         1 ARK      0.965600
      8 OAI         6.3170    1.2020   -1.4300 o         1 ARK     -0.812300
      9 OAC         6.5990   -0.7410   -2.4440 o         1 ARK     -0.812300
     10 NBE         4.1040   -1.2490   -3.0660 ny        1 ARK      0.123200
     11 CBK         4.2250   -1.2960   -4.4070 c         1 ARK      0.163100
     12 OAD         4.5500   -0.3010   -5.0240 o         1 ARK     -0.304100
     13 N           3.9850   -2.4480   -5.0660 ny        1 ARK      0.127200
     14 CA          4.1150   -2.4990   -6.5240 c3        1 ARK     -0.164500
     15 C           2.8300   -2.0370   -7.1600 c         1 ARK      0.956600
     16 OXT         2.7180   -2.0000   -8.4970 o         1 ARK     -0.794800
     17 O           1.9000   -1.6990   -6.4660 o         1 ARK     -0.794800
     18 CB          4.4120   -3.9370   -6.9590 c3        1 ARK     -0.018400
     19 CAP         5.7770   -4.3630   -6.4150 c3        1 ARK     -0.042400
     20 CAQ         6.0730   -5.8000   -6.8500 c3        1 ARK     -0.036400
     21 CAY         7.4380   -6.2260   -6.3050 c3        1 ARK     -0.028700
     22 NBR         7.7220   -7.6020   -6.7220 na        1 ARK      0.585400
     23 CAO         8.8210   -8.0160   -7.3940 cc        1 ARK     -0.432600
     24 NBB         6.9700   -8.6240   -6.5080 nc        1 ARK     -0.366800
     25 NBA         7.5090   -9.6830   -7.0030 nd        1 ARK     -0.298000
     26 CBL         8.6740   -9.3500   -7.5710 cd        1 ARK      0.252600
     27 CAZ         9.6350  -10.2790   -8.2670 c3        1 ARK      0.219100
     28 OBG        10.7630   -9.5350   -8.7330 os        1 ARK     -0.423600
     29 CAU        11.7400  -10.3250   -9.4130 c3        1 ARK      0.215400
     30 CAT        12.8960   -9.4300   -9.8640 c3        1 ARK      0.216400
     31 OBF        13.5660   -8.9030   -8.7180 os        1 ARK     -0.422600
     32 CAS        14.6690   -8.0490   -9.0300 c3        1 ARK      0.203400
     33 CAR        15.3070   -7.5450   -7.7340 c3        1 ARK     -0.070700
     34 NBC        15.8880   -8.6750   -7.0050 nu        1 ARK      0.178900
     35 CBN        16.5200   -8.4660   -5.8030 cc        1 ARK      0.242300
     36 CAM        16.7230   -7.1660   -5.3390 cc        1 ARK     -0.291600
     37 CAL        17.3470   -6.9450   -4.1510 cd        1 ARK      0.108000
     38 CBM        17.8010   -8.0280   -3.3670 cd        1 ARK     -0.411000
     39 NBS        18.4160   -7.7990   -2.1970 nh        1 ARK      1.093300
     40 OAJ        18.5830   -6.6560   -1.8120 oh        1 ARK     -0.470300
     41 OAE        18.8070   -8.7330   -1.5210 o         1 ARK     -0.536000
     42 CAN        17.6090   -9.3440   -3.8100 cc        1 ARK     -0.019600
     43 CBO        16.9610   -9.5710   -5.0320 cc        1 ARK     -0.344700
     44 NBT        16.7650  -10.8230   -5.4690 nh        1 ARK      0.980500
     45 OAK        17.5730  -11.6940   -5.2030 oh        1 ARK     -0.531200
     46 OAF        15.7790  -11.0880   -6.1330 o         1 ARK     -0.415000
     47 HAV1        1.8350   -0.8840   -1.8740 hc        1 ARK      0.020200
     48 HAV2        1.8340    0.8850   -1.8740 hc        1 ARK      0.020200
     49 HAX1        3.8620    0.8860   -0.4570 hc        1 ARK      0.071200
     50 HAX2        3.8630   -0.8830   -0.4580 hc        1 ARK      0.071200
     51 HBQ         4.0380    0.8390   -2.9560 hx        1 ARK      0.107700
     52 HBE         4.7320   -1.9340   -2.6930 hn        1 ARK      0.266800
     53 H           3.0470   -2.7190   -4.8480 hn        1 ARK      0.262300
     54 HA          4.9260   -1.8530   -6.8370 hx        1 ARK      0.103700
     55 HB1C        3.6460   -4.5970   -6.5690 hc        1 ARK      0.064700
     56 HB2C        4.4210   -3.9920   -8.0400 hc        1 ARK      0.064700
     57 HAP1        5.7680   -4.3080   -5.3330 hc        1 ARK      0.008200
     58 HAP2        6.5430   -3.7030   -6.8050 hc        1 ARK      0.008200
     59 HAQ1        6.0820   -5.8550   -7.9310 hc        1 ARK      0.045700
     60 HAQ2        5.3070   -6.4600   -6.4600 hc        1 ARK      0.045700
     61 HAY1        7.4290   -6.1710   -5.2230 h1        1 ARK      0.037200
     62 HAY2        8.2040   -5.5660   -6.6940 h1        1 ARK      0.037200
     63 HAO         9.6500   -7.4030   -7.7260 h4        1 ARK      0.166000
     64 HAZ1        9.9670  -11.0410   -7.5730 h1        1 ARK      0.007200
     65 HAZ2        9.1390  -10.7470   -9.1080 h1        1 ARK      0.007200
     66 HAU1       11.2880  -10.7940  -10.2780 h1        1 ARK      0.005700
     67 HAU2       12.1160  -11.0900   -8.7430 h1        1 ARK      0.005700
     68 HAT1       12.5090   -8.6150  -10.4630 h1        1 ARK      0.006700
     69 HAT2       13.5940  -10.0120  -10.4550 h1        1 ARK      0.006700
     70 HAS1       14.3180   -7.2050   -9.6120 h1        1 ARK      0.016200
     71 HAS2       15.4030   -8.6020   -9.6030 h1        1 ARK      0.016200
     72 HAR1       16.0850   -6.8290   -7.9700 h1        1 ARK      0.056700
     73 HAR2       14.5520   -7.0690   -7.1210 h1        1 ARK      0.056700
     74 HBC        15.8660   -9.5920   -7.4050 hn        1 ARK      0.181700
     75 HAM        16.3810   -6.3250   -5.9310 ha        1 ARK      0.157000
     76 HAL        17.4980   -5.9300   -3.8040 ha        1 ARK      0.138000
     77 HAN        17.8330  -10.1750   -3.1530 ha        1 ARK      0.159000
     78 HAJ        19.0560   -6.6650   -0.9960 ho        1 ARK      0.516000
     79 HAK        17.2900  -12.5100   -5.5810 ho        1 ARK      0.511000
     80 HBE2        3.1650   -1.5180   -2.8480 hn        1 ARK      0.266800
     81 H2          4.6150   -3.1320   -4.6940 hn        1 ARK      0.262300
@<TRIPOS>BOND
     1    1    2 1   
     2    2    3 1   
     3    2    4 1   
     4    4    5 1   
     5    4   47 1   
     6    4   48 1   
     7    5    6 1   
     8    5   49 1   
     9    5   50 1   
    10    6    7 1   
    11    6   10 1   
    12    6   51 1   
    13    7    8 1   
    14    7    9 1   
    15   10   11 1   
    16   10   52 1   
    17   10   80 1   
    18   11   12 2   
    19   11   13 1   
    20   13   14 1   
    21   13   53 1   
    22   13   81 1   
    23   14   15 1   
    24   14   18 1   
    25   14   54 1   
    26   15   16 1   
    27   15   17 1   
    28   18   19 1   
    29   18   55 1   
    30   18   56 1   
    31   19   20 1   
    32   19   57 1   
    33   19   58 1   
    34   20   21 1   
    35   20   59 1   
    36   20   60 1   
    37   21   22 1   
    38   21   61 1   
    39   21   62 1   
    40   22   23 1   
    41   22   24 1   
    42   23   26 2   
    43   23   63 1   
    44   24   25 2   
    45   25   26 1   
    46   26   27 1   
    47   27   28 1   
    48   27   64 1   
    49   27   65 1   
    50   28   29 1   
    51   29   30 1   
    52   29   66 1   
    53   29   67 1   
    54   30   31 1   
    55   30   68 1   
    56   30   69 1   
    57   31   32 1   
    58   32   33 1   
    59   32   70 1   
    60   32   71 1   
    61   33   34 1   
    62   33   72 1   
    63   33   73 1   
    64   34   35 2   
    65   34   74 1   
    66   35   36 1   
    67   35   43 1   
    68   36   37 2   
    69   36   75 1   
    70   37   38 1   
    71   37   76 1   
    72   38   39 1   
    73   38   42 2   
    74   39   40 1   
    75   39   41 1   
    76   40   78 1   
    77   42   43 1   
    78   42   77 1   
    79   43   44 2   
    80   44   45 1   
    81   44   46 1   
    82   45   79 1   
@<TRIPOS>SUBSTRUCTURE
     1 ARK         1 TEMP              0 ****  ****    0 ROOT
