@<TRIPOS>MOLECULE
ARL
   56    56     1     0     0
SMALL
bcc


@<TRIPOS>ATOM
      1 C16         0.0250    0.4010   -0.2050 c3        1 ARL     -0.048900
      2 C9          1.4350   -0.0560   -0.1340 ce        1 ARL     -0.162200
      3 C13         2.0320   -0.2010    1.1800 ce        1 ARL     -0.034000
      4 C8          1.3980    0.0060    2.3530 cf        1 ARL     -0.229000
      5 C44         2.0530   -0.1600    3.6250 cf        1 ARL     -0.067000
      6 C42         1.4680    0.0240    4.8300 ce        1 ARL     -0.131400
      7 C7          0.0460    0.4250    4.9740 c3        1 ARL     -0.042900
      8 C3          2.2300   -0.1550    6.0660 ca        1 ARL     -0.019800
      9 C4          2.0670    0.7420    7.1310 ca        1 ARL     -0.128500
     10 C5          2.7940    0.5850    8.3130 ca        1 ARL     -0.069800
     11 C6          3.6880   -0.4880    8.4200 ca        1 ARL     -0.141000
     12 C1          3.8660   -1.3970    7.3700 ca        1 ARL     -0.069800
     13 C2          3.1310   -1.2220    6.1940 ca        1 ARL     -0.128500
     14 C10         4.8420   -2.5320    7.5430 c3        1 ARL     -0.006200
     15 C11         4.9170   -3.4280    6.3130 c3        1 ARL     -0.084267
     16 C15         6.2360   -1.9670    7.8040 c3        1 ARL     -0.084267
     17 C19         4.4160   -3.3910    8.7310 c3        1 ARL     -0.084267
     18 C23         2.6490    1.5330    9.4760 c3        1 ARL     -0.006200
     19 C24         1.6420    2.6430    9.2000 c3        1 ARL     -0.084267
     20 C28         2.1800    0.7600   10.7060 c3        1 ARL     -0.084267
     21 C32         3.9990    2.1800    9.7730 c3        1 ARL     -0.084267
     22 C14         2.1610   -0.3360   -1.2360 cf        1 ARL     -0.126200
     23 C12         1.6820   -0.3020   -2.6710 c         1 ARL      0.892800
     24 O2          1.9840   -1.3010   -3.3840 o         1 ARL     -0.827800
     25 O3          1.0450    0.7040   -3.0930 o         1 ARL     -0.827800
     26 H161       -0.6530   -0.3520    0.2670 hc        1 ARL      0.038700
     27 H162       -0.0970    1.3710    0.3400 hc        1 ARL      0.038700
     28 H163       -0.2820    0.5530   -1.2720 hc        1 ARL      0.038700
     29 H13         3.0950   -0.5110    1.1850 ha        1 ARL      0.103000
     30 H8          0.3400    0.3170    2.3700 ha        1 ARL      0.128000
     31 H44         3.1190   -0.4500    3.5830 ha        1 ARL      0.112000
     32 H71        -0.0820    1.5030    4.7020 hc        1 ARL      0.036033
     33 H72        -0.6030   -0.1840    4.2970 hc        1 ARL      0.036033
     34 H73        -0.3130    0.2810    6.0220 hc        1 ARL      0.036033
     35 H4          1.3590    1.5760    7.0060 ha        1 ARL      0.138000
     36 H6          4.2640   -0.6190    9.3490 ha        1 ARL      0.123000
     37 H2          3.2390   -1.9180    5.3490 ha        1 ARL      0.138000
     38 H111        3.9220   -3.8850    6.0980 hc        1 ARL      0.034533
     39 H112        5.2510   -2.8460    5.4220 hc        1 ARL      0.034533
     40 H113        5.6510   -4.2510    6.4910 hc        1 ARL      0.034533
     41 H151        6.9680   -2.8000    7.9280 hc        1 ARL      0.034533
     42 H152        6.5590   -1.3290    6.9470 hc        1 ARL      0.034533
     43 H153        6.2420   -1.3470    8.7320 hc        1 ARL      0.034533
     44 H191        3.3950   -3.8060    8.5590 hc        1 ARL      0.034533
     45 H192        4.4020   -2.7870    9.6700 hc        1 ARL      0.034533
     46 H193        5.1300   -4.2380    8.8640 hc        1 ARL      0.034533
     47 H241        1.9600    3.2520    8.3210 hc        1 ARL      0.034533
     48 H242        0.6310    2.2150    9.0020 hc        1 ARL      0.034533
     49 H243        1.5720    3.3160   10.0890 hc        1 ARL      0.034533
     50 H281        1.1960    0.2740   10.5030 hc        1 ARL      0.034533
     51 H282        2.9180   -0.0300   10.9800 hc        1 ARL      0.034533
     52 H283        2.0650    1.4550   11.5720 hc        1 ARL      0.034533
     53 H321        4.7580    1.4060   10.0380 hc        1 ARL      0.034533
     54 H322        3.9020    2.8900   10.6290 hc        1 ARL      0.034533
     55 H323        4.3610    2.7430    8.8800 hc        1 ARL      0.034533
     56 H14         3.2090   -0.6690   -1.1370 ha        1 ARL      0.098000
@<TRIPOS>BOND
     1    1    2 1   
     2    1   26 1   
     3    1   27 1   
     4    1   28 1   
     5    2    3 1   
     6    2   22 2   
     7    3    4 2   
     8    3   29 1   
     9    4    5 1   
    10    4   30 1   
    11    5    6 2   
    12    5   31 1   
    13    6    7 1   
    14    6    8 1   
    15    7   32 1   
    16    7   33 1   
    17    7   34 1   
    18    8    9 ar  
    19    8   13 ar  
    20    9   10 ar  
    21    9   35 1   
    22   10   11 ar  
    23   10   18 1   
    24   11   12 ar  
    25   11   36 1   
    26   12   13 ar  
    27   12   14 1   
    28   13   37 1   
    29   14   15 1   
    30   14   16 1   
    31   14   17 1   
    32   15   38 1   
    33   15   39 1   
    34   15   40 1   
    35   16   41 1   
    36   16   42 1   
    37   16   43 1   
    38   17   44 1   
    39   17   45 1   
    40   17   46 1   
    41   18   19 1   
    42   18   20 1   
    43   18   21 1   
    44   19   47 1   
    45   19   48 1   
    46   19   49 1   
    47   20   50 1   
    48   20   51 1   
    49   20   52 1   
    50   21   53 1   
    51   21   54 1   
    52   21   55 1   
    53   22   23 1   
    54   22   56 1   
    55   23   24 1   
    56   23   25 1   
@<TRIPOS>SUBSTRUCTURE
     1 ARL         1 TEMP              0 ****  ****    0 ROOT
