@<TRIPOS>MOLECULE
ARL
   56    56     1     0     0
SMALL
bcc


@<TRIPOS>ATOM
      1 C16         0.0180    0.3930   -0.2020 c3        1 ARL     -0.048900
      2 C9          1.4290   -0.0590   -0.1330 ce        1 ARL     -0.162200
      3 C13         2.0280   -0.2030    1.1800 ce        1 ARL     -0.034000
      4 C8          1.3940    0.0030    2.3540 cf        1 ARL     -0.229000
      5 C44         2.0500   -0.1620    3.6250 cf        1 ARL     -0.067000
      6 C42         1.4660    0.0210    4.8310 ce        1 ARL     -0.131400
      7 C7          0.0440    0.4200    4.9760 c3        1 ARL     -0.042900
      8 C3          2.2300   -0.1560    6.0660 ca        1 ARL     -0.019800
      9 C4          2.0670    0.7420    7.1310 ca        1 ARL     -0.128500
     10 C5          2.7950    0.5860    8.3130 ca        1 ARL     -0.069800
     11 C6          3.6910   -0.4860    8.4190 ca        1 ARL     -0.141000
     12 C1          3.8680   -1.3950    7.3690 ca        1 ARL     -0.069800
     13 C2          3.1320   -1.2210    6.1940 ca        1 ARL     -0.128500
     14 C10         4.8460   -2.5290    7.5430 c3        1 ARL     -0.006200
     15 C11         4.9210   -3.4260    6.3130 c3        1 ARL     -0.084267
     16 C15         6.2400   -1.9620    7.8020 c3        1 ARL     -0.084267
     17 C19         4.4230   -3.3870    8.7320 c3        1 ARL     -0.084267
     18 C23         2.6510    1.5350    9.4750 c3        1 ARL     -0.006200
     19 C24         1.6430    2.6430    9.2000 c3        1 ARL     -0.084267
     20 C28         2.1840    0.7630   10.7060 c3        1 ARL     -0.084267
     21 C32         4.0010    2.1840    9.7700 c3        1 ARL     -0.084267
     22 C14         2.1550   -0.3370   -1.2350 cf        1 ARL     -0.126200
     23 C12         1.6750   -0.3040   -2.6700 c         1 ARL      0.892800
     24 O2          1.9800   -1.3020   -3.3840 o         1 ARL     -0.827800
     25 O3          1.0340    0.7000   -3.0910 o         1 ARL     -0.827800
     26 H161       -0.6580   -0.3630    0.2710 hc        1 ARL      0.038700
     27 H162       -0.1070    1.3620    0.3420 hc        1 ARL      0.038700
     28 H163       -0.2910    0.5440   -1.2700 hc        1 ARL      0.038700
     29 H13         3.0910   -0.5100    1.1850 ha        1 ARL      0.103000
     30 H8          0.3360    0.3110    2.3720 ha        1 ARL      0.128000
     31 H44         3.1170   -0.4510    3.5830 ha        1 ARL      0.112000
     32 H71        -0.0860    1.4970    4.7030 hc        1 ARL      0.036033
     33 H72        -0.6050   -0.1910    4.3010 hc        1 ARL      0.036033
     34 H73        -0.3140    0.2770    6.0250 hc        1 ARL      0.036033
     35 H4          1.3580    1.5740    7.0060 ha        1 ARL      0.138000
     36 H6          4.2680   -0.6150    9.3480 ha        1 ARL      0.123000
     37 H2          3.2400   -1.9180    5.3490 ha        1 ARL      0.138000
     38 H111        3.9260   -3.8840    6.0990 hc        1 ARL      0.034533
     39 H112        5.2530   -2.8440    5.4210 hc        1 ARL      0.034533
     40 H113        5.6560   -4.2480    6.4910 hc        1 ARL      0.034533
     41 H151        6.9730   -2.7950    7.9250 hc        1 ARL      0.034533
     42 H152        6.5610   -1.3250    6.9440 hc        1 ARL      0.034533
     43 H153        6.2470   -1.3410    8.7290 hc        1 ARL      0.034533
     44 H191        3.4010   -3.8040    8.5610 hc        1 ARL      0.034533
     45 H192        4.4090   -2.7830    9.6700 hc        1 ARL      0.034533
     46 H193        5.1380   -4.2340    8.8650 hc        1 ARL      0.034533
     47 H241        1.9590    3.2530    8.3190 hc        1 ARL      0.034533
     48 H242        0.6310    2.2150    9.0020 hc        1 ARL      0.034533
     49 H243        1.5720    3.3180   10.0880 hc        1 ARL      0.034533
     50 H281        1.2000    0.2760   10.5040 hc        1 ARL      0.034533
     51 H282        2.9230   -0.0270   10.9800 hc        1 ARL      0.034533
     52 H283        2.0690    1.4580   11.5720 hc        1 ARL      0.034533
     53 H321        4.7600    1.4110   10.0350 hc        1 ARL      0.034533
     54 H322        3.9030    2.8950   10.6260 hc        1 ARL      0.034533
     55 H323        4.3610    2.7460    8.8760 hc        1 ARL      0.034533
     56 H14         3.2040   -0.6670   -1.1370 ha        1 ARL      0.098000
@<TRIPOS>BOND
     1    1    2 1   
     2    1   26 1   
     3    1   27 1   
     4    1   28 1   
     5    2    3 1   
     6    2   22 2   
     7    3    4 2   
     8    3   29 1   
     9    4    5 1   
    10    4   30 1   
    11    5    6 2   
    12    5   31 1   
    13    6    7 1   
    14    6    8 1   
    15    7   32 1   
    16    7   33 1   
    17    7   34 1   
    18    8    9 ar  
    19    8   13 ar  
    20    9   10 ar  
    21    9   35 1   
    22   10   11 ar  
    23   10   18 1   
    24   11   12 ar  
    25   11   36 1   
    26   12   13 ar  
    27   12   14 1   
    28   13   37 1   
    29   14   15 1   
    30   14   16 1   
    31   14   17 1   
    32   15   38 1   
    33   15   39 1   
    34   15   40 1   
    35   16   41 1   
    36   16   42 1   
    37   16   43 1   
    38   17   44 1   
    39   17   45 1   
    40   17   46 1   
    41   18   19 1   
    42   18   20 1   
    43   18   21 1   
    44   19   47 1   
    45   19   48 1   
    46   19   49 1   
    47   20   50 1   
    48   20   51 1   
    49   20   52 1   
    50   21   53 1   
    51   21   54 1   
    52   21   55 1   
    53   22   23 1   
    54   22   56 1   
    55   23   24 1   
    56   23   25 1   
@<TRIPOS>SUBSTRUCTURE
     1 ARL         1 TEMP              0 ****  ****    0 ROOT
