@<TRIPOS>MOLECULE
ARL
   56    56     1     0     0
SMALL
bcc


@<TRIPOS>ATOM
      1 C16         1.0970   -0.9420    5.4010 c3        1 ARL     -0.048900
      2 C9         -0.0480   -0.0840    5.0080 ce        1 ARL     -0.162200
      3 C13        -0.2860    0.1150    3.5910 ce        1 ARL     -0.034000
      4 C8          0.4230   -0.4510    2.5930 cf        1 ARL     -0.229000
      5 C44         0.1290   -0.2110    1.2040 cf        1 ARL     -0.067000
      6 C42         0.7970   -0.7560    0.1620 ce        1 ARL     -0.131400
      7 C7          1.9370   -1.6880    0.3460 c3        1 ARL     -0.042900
      8 C3          0.4260   -0.4320   -1.2160 ca        1 ARL     -0.019800
      9 C4          1.4200   -0.2060   -2.1790 ca        1 ARL     -0.128500
     10 C5          1.0780    0.1100   -3.4950 ca        1 ARL     -0.069800
     11 C6         -0.2770    0.1940   -3.8410 ca        1 ARL     -0.141000
     12 C1         -1.2860   -0.0300   -2.8960 ca        1 ARL     -0.069800
     13 C2         -0.9240   -0.3430   -1.5830 ca        1 ARL     -0.128500
     14 C10        -2.7260    0.0730   -3.3270 c3        1 ARL     -0.006200
     15 C11        -3.6970   -0.1990   -2.1840 c3        1 ARL     -0.084267
     16 C15        -2.9980    1.4800   -3.8560 c3        1 ARL     -0.084267
     17 C19        -2.9990   -0.9420   -4.4340 c3        1 ARL     -0.084267
     18 C23         2.1180    0.3660   -4.5550 c3        1 ARL     -0.006200
     19 C24         3.5390    0.2390   -4.0190 c3        1 ARL     -0.084267
     20 C28         1.9470   -0.6410   -5.6890 c3        1 ARL     -0.084267
     21 C32         1.9440    1.7790   -5.1060 c3        1 ARL     -0.084267
     22 C14        -0.8570    0.5030    5.9140 cf        1 ARL     -0.126200
     23 C12        -0.7930    0.3540    7.4180 c         1 ARL      0.892800
     24 O2         -1.8910    0.1270    8.0040 o         1 ARL     -0.827800
     25 O3          0.3130    0.4850    8.0130 o         1 ARL     -0.827800
     26 H161        1.2200   -0.9410    6.5160 hc        1 ARL      0.038700
     27 H162        0.9350   -1.9920    5.0520 hc        1 ARL      0.038700
     28 H163        2.0430   -0.5630    4.9410 hc        1 ARL      0.038700
     29 H13        -1.1290    0.7890    3.3440 ha        1 ARL      0.103000
     30 H8          1.2670   -1.1230    2.8180 ha        1 ARL      0.128000
     31 H44        -0.7080    0.4840    1.0020 ha        1 ARL      0.112000
     32 H71         1.6920   -2.4600    1.1180 hc        1 ARL      0.036033
     33 H72         2.1880   -2.2170   -0.6060 hc        1 ARL      0.036033
     34 H73         2.8440   -1.1290    0.6890 hc        1 ARL      0.036033
     35 H4          2.4730   -0.2750   -1.8660 ha        1 ARL      0.138000
     36 H6         -0.5540    0.4410   -4.8770 ha        1 ARL      0.123000
     37 H2         -1.6880   -0.5310   -0.8140 ha        1 ARL      0.138000
     38 H111       -4.7480   -0.1100   -2.5540 hc        1 ARL      0.034533
     39 H112       -3.5520   -1.2290   -1.7820 hc        1 ARL      0.034533
     40 H113       -3.5510    0.5390   -1.3600 hc        1 ARL      0.034533
     41 H151       -2.7950    2.2350   -3.0600 hc        1 ARL      0.034533
     42 H152       -2.3470    1.7030   -4.7340 hc        1 ARL      0.034533
     43 H153       -4.0650    1.5690   -4.1720 hc        1 ARL      0.034533
     44 H191       -2.7990   -1.9760   -4.0650 hc        1 ARL      0.034533
     45 H192       -4.0660   -0.8770   -4.7560 hc        1 ARL      0.034533
     46 H193       -2.3480   -0.7460   -5.3190 hc        1 ARL      0.034533
     47 H241        4.2700    0.4370   -4.8400 hc        1 ARL      0.034533
     48 H242        3.7180    0.9780   -3.2020 hc        1 ARL      0.034533
     49 H243        3.7200   -0.7900   -3.6270 hc        1 ARL      0.034533
     50 H281        2.0640   -1.6810   -5.3020 hc        1 ARL      0.034533
     51 H282        0.9360   -0.5450   -6.1520 hc        1 ARL      0.034533
     52 H283        2.7170   -0.4620   -6.4780 hc        1 ARL      0.034533
     53 H321        2.0580    2.5280   -4.2860 hc        1 ARL      0.034533
     54 H322        2.7150    1.9820   -5.8880 hc        1 ARL      0.034533
     55 H323        0.9340    1.9020   -5.5630 hc        1 ARL      0.034533
     56 H14        -1.6950    1.1380    5.5770 ha        1 ARL      0.098000
@<TRIPOS>BOND
     1    1    2 1   
     2    1   26 1   
     3    1   27 1   
     4    1   28 1   
     5    2    3 1   
     6    2   22 2   
     7    3    4 2   
     8    3   29 1   
     9    4    5 1   
    10    4   30 1   
    11    5    6 2   
    12    5   31 1   
    13    6    7 1   
    14    6    8 1   
    15    7   32 1   
    16    7   33 1   
    17    7   34 1   
    18    8    9 ar  
    19    8   13 ar  
    20    9   10 ar  
    21    9   35 1   
    22   10   11 ar  
    23   10   18 1   
    24   11   12 ar  
    25   11   36 1   
    26   12   13 ar  
    27   12   14 1   
    28   13   37 1   
    29   14   15 1   
    30   14   16 1   
    31   14   17 1   
    32   15   38 1   
    33   15   39 1   
    34   15   40 1   
    35   16   41 1   
    36   16   42 1   
    37   16   43 1   
    38   17   44 1   
    39   17   45 1   
    40   17   46 1   
    41   18   19 1   
    42   18   20 1   
    43   18   21 1   
    44   19   47 1   
    45   19   48 1   
    46   19   49 1   
    47   20   50 1   
    48   20   51 1   
    49   20   52 1   
    50   21   53 1   
    51   21   54 1   
    52   21   55 1   
    53   22   23 1   
    54   22   56 1   
    55   23   24 1   
    56   23   25 1   
@<TRIPOS>SUBSTRUCTURE
     1 ARL         1 TEMP              0 ****  ****    0 ROOT
