@<TRIPOS>MOLECULE
ARL
   56    51     1     0     0
SMALL
bcc


@<TRIPOS>ATOM
      1 C16        -2.1050   -4.8920    1.9560 c3        1 ARL     -0.172000
      2 C9         -0.9210   -4.2680    2.6850 c2        1 ARL     -0.150000
      3 C13         0.5090   -4.6820    2.3190 c2        1 ARL     -0.066000
      4 C8          1.2620   -3.8910    1.4680 c1        1 ARL     -0.195000
      5 C44         0.6630   -2.5940    0.8900 c1        1 ARL     -0.086000
      6 C42         1.4940   -1.6100    0.4000 c1        1 ARL     -0.120000
      7 C7          2.9940   -1.8030    0.4320 c2        1 ARL     -0.166000
      8 C3          0.9010   -0.3220   -0.1690 c2        1 ARL     -0.026000
      9 C4          0.8000   -0.1490   -1.5600 c2        1 ARL     -0.136000
     10 C5          0.3490    1.0670   -2.0810 c1        1 ARL     -0.076000
     11 C6         -0.0050    2.1160   -1.2150 c1        1 ARL     -0.138000
     12 C1          0.0940    1.9450    0.1640 c1        1 ARL     -0.051000
     13 C2          0.5490    0.7210    0.6920 c1        1 ARL     -0.111000
     14 C10        -0.3120    3.1030    1.1160 c3        1 ARL     -0.016000
     15 C11        -0.6170    2.5600    2.4540 c3        1 ARL     -0.208000
     16 C15        -1.5610    3.8150    0.5520 c3        1 ARL     -0.208000
     17 C19         0.8290    4.0950    1.2230 c3        1 ARL     -0.208000
     18 C23         0.2570    1.2670   -3.6290 c3        1 ARL     -0.010000
     19 C24         1.3930    0.5340   -4.2990 c3        1 ARL     -0.201000
     20 C28         0.3520    2.7660   -3.9570 c3        1 ARL     -0.201000
     21 C32        -1.0900    0.7100   -4.1440 c3        1 ARL     -0.201000
     22 C14        -1.1330   -3.3470    3.6560 c1        1 ARL     -0.132000
     23 C12        -2.5560   -2.9350    4.0190 c1        1 ARL      0.348000
     24 O2         -3.0300   -3.2320    5.1500 o         1 ARL     -0.570000
     25 O3         -3.2390   -2.2520    3.2100 o         1 ARL     -0.570000
     26 H161       -1.7880   -5.6000    1.3690 hc        1 ARL      0.077000
     27 H162       -2.7320   -5.2680    2.6130 hc        1 ARL      0.077000
     28 H163       -2.5620   -4.2060    1.4250 hc        1 ARL      0.077000
     29 H13         0.8920   -5.5090    2.6890 ha        1 ARL      0.102000
     30 H8          2.1670   -4.1520    1.2350 ha        1 ARL      0.103000
     31 H44        -0.3100   -2.4700    0.8690 ha        1 ARL      0.154000
     32 H71         3.2850   -1.9400    1.3580 ha        1 ARL      0.070667
     33 H72         3.4350   -1.0070    0.0650 ha        1 ARL      0.070667
     34 H73         3.2340   -2.5820   -0.1030 ha        1 ARL      0.070667
     35 H4          1.1310   -0.8430   -2.1630 ha        1 ARL      0.122000
     36 H6         -0.3990    2.9250   -1.5740 ha        1 ARL      0.124000
     37 H2          0.5390    0.5710    1.6680 ha        1 ARL      0.172000
     38 H111        0.1900    2.1570    2.8350 hc        1 ARL      0.078222
     39 H112       -1.3090    1.8880    2.3790 hc        1 ARL      0.078222
     40 H113       -0.9230    3.2770    3.0310 hc        1 ARL      0.078222
     41 H151       -1.2980    4.3940   -0.2050 hc        1 ARL      0.078222
     42 H152       -1.9730    4.3630    1.2570 hc        1 ARL      0.078222
     43 H153       -2.2060    3.1440    0.2410 hc        1 ARL      0.078222
     44 H191        0.5950    4.7930    1.8710 hc        1 ARL      0.078222
     45 H192        1.6350    3.6310    1.5210 hc        1 ARL      0.078222
     46 H193        0.9890    4.4990    0.3530 hc        1 ARL      0.078222
     47 H241        2.2470    0.8640   -3.9490 hc        1 ARL      0.071444
     48 H242        1.3540    0.6880   -5.2720 hc        1 ARL      0.071444
     49 H243        1.3140   -0.4270   -4.1170 hc        1 ARL      0.071444
     50 H281        0.3630    2.8890   -4.9360 hc        1 ARL      0.071444
     51 H282        1.1770    3.1330   -3.5720 hc        1 ARL      0.071444
     52 H283       -0.4230    3.2350   -3.5770 hc        1 ARL      0.071444
     53 H321       -1.0700    0.6600   -5.1300 hc        1 ARL      0.071444
     54 H322       -1.8210    1.3040   -3.8610 hc        1 ARL      0.071444
     55 H323       -1.2360   -0.1860   -3.7740 hc        1 ARL      0.071444
     56 H14        -0.3790   -2.9480    4.1210 ha        1 ARL      0.105000
@<TRIPOS>BOND
     1    1    2 1   
     2    1   26 1   
     3    1   27 1   
     4    1   28 1   
     5    2    3 1   
     6    2   22 1   
     7    3    4 1   
     8    3   29 1   
     9    4   30 1   
    10    5    6 1   
    11    5   31 1   
    12    6    8 1   
    13    7   32 1   
    14    7   33 1   
    15    7   34 1   
    16    8    9 1   
    17    8   13 1   
    18    9   10 1   
    19    9   35 1   
    20   10   18 1   
    21   11   12 1   
    22   11   36 1   
    23   12   14 1   
    24   13   37 1   
    25   14   15 1   
    26   14   16 1   
    27   14   17 1   
    28   15   38 1   
    29   15   39 1   
    30   15   40 1   
    31   16   41 1   
    32   16   42 1   
    33   16   43 1   
    34   17   44 1   
    35   17   45 1   
    36   17   46 1   
    37   18   19 1   
    38   18   20 1   
    39   18   21 1   
    40   19   47 1   
    41   19   48 1   
    42   19   49 1   
    43   20   50 1   
    44   20   51 1   
    45   20   52 1   
    46   21   53 1   
    47   21   54 1   
    48   21   55 1   
    49   22   56 1   
    50   23   24 1   
    51   23   25 1   
@<TRIPOS>SUBSTRUCTURE
     1 ARL         1 TEMP              0 ****  ****    0 ROOT
