@<TRIPOS>MOLECULE
ARM
   28    26     1     0     0
SMALL
bcc


@<TRIPOS>ATOM
      1 N          -2.1310   -0.9270   -1.8470 n3        1 ARM     -0.889800
      2 CA         -0.7180   -0.9340   -1.8300 c3        1 ARM      0.071500
      3 CB         -0.2260   -0.9230   -0.3850 c3        1 ARM     -0.068400
      4 CG         -0.0780    0.5380    0.0970 c3        1 ARM     -0.084400
      5 CD          0.2690    0.5510    1.5870 c3        1 ARM      0.176800
      6 NE          0.5310    1.9080    2.0100 nh        1 ARM     -0.771000
      7 CZ          0.6650    2.2130    3.4180 c2        1 ARM      0.315000
      8 NH1        -0.3790    2.5560    4.1100 n1        1 ARM     -0.344000
      9 NH2         1.9390    2.1380    4.0450 nh        1 ARM     -0.811600
     10 C          -0.2110   -2.1800   -2.5270 c         1 ARM      0.523100
     11 O          -0.2740   -3.2530   -1.9690 o         1 ARM     -0.532100
     12 CM          0.3260   -2.0920   -3.9470 c3        1 ARM     -0.202100
     13 H          -2.4420   -1.7540   -2.1240 hn        1 ARM      0.357300
     14 H2         -2.4260   -0.2800   -2.4250 hn        1 ARM      0.357300
     15 HA         -0.3850   -0.1460   -2.2920 h1        1 ARM      0.073700
     16 HB2         0.6430   -1.3730   -0.3320 hc        1 ARM      0.050700
     17 HB3        -0.8730   -1.3930    0.1860 hc        1 ARM      0.050700
     18 HG2         0.6290    0.9740   -0.4040 hc        1 ARM      0.060200
     19 HG3        -0.9200    1.0150   -0.0450 hc        1 ARM      0.060200
     20 HD2        -0.4840    0.1870    2.1010 h1        1 ARM      0.038700
     21 HD3         1.0620    0.0050    1.7410 h1        1 ARM      0.038700
     22 HE          0.6480    2.5670    1.3860 hn        1 ARM      0.400800
     23 HH1        -1.1900    2.6040    3.7120 DU        1 ARM      0.149000
     24 HH21        2.0070    1.8540    4.9170 hn        1 ARM      0.390800
     25 HH22        2.6970    2.3610    3.5730 hn        1 ARM      0.390800
     26 HM1         1.2120   -1.6660   -3.9360 hc        1 ARM      0.066700
     27 HM2         0.4010   -2.9940   -4.3240 hc        1 ARM      0.066700
     28 HM3        -0.2890   -1.5570   -4.4960 hc        1 ARM      0.066700
@<TRIPOS>BOND
     1    1    2 1   
     2    1   13 1   
     3    1   14 1   
     4    2    3 1   
     5    2   10 1   
     6    2   15 1   
     7    3    4 1   
     8    3   16 1   
     9    3   17 1   
    10    4    5 1   
    11    4   18 1   
    12    4   19 1   
    13    5    6 1   
    14    5   20 1   
    15    5   21 1   
    16    6    7 1   
    17    6   22 1   
    18    7    8 2   
    19    7    9 1   
    20    9   24 1   
    21    9   25 1   
    22   10   11 2   
    23   10   12 1   
    24   12   26 1   
    25   12   27 1   
    26   12   28 1   
@<TRIPOS>SUBSTRUCTURE
     1 ARM         1 TEMP              0 ****  ****    0 ROOT
