@<TRIPOS>MOLECULE
ARM
   28    27     1     0     0
SMALL
bcc


@<TRIPOS>ATOM
      1 N          -1.8750    0.0400    2.5830 n3        1 ARM     -0.899800
      2 CA         -0.5000   -0.3360    2.3240 c3        1 ARM      0.068500
      3 CB          0.1340    0.2340    1.0420 c3        1 ARM     -0.115400
      4 CG         -0.5590   -0.2730   -0.2020 c3        1 ARM     -0.088400
      5 CD          0.2530    0.1250   -1.4370 c3        1 ARM      0.182800
      6 NE         -0.3540   -0.3490   -2.6660 nh        1 ARM     -0.795200
      7 CZ          0.2890    0.0280   -3.9000 c2        1 ARM      0.744100
      8 NH1         1.4390    0.6550   -3.8910 n2        1 ARM     -0.871100
      9 NH2        -0.4410   -0.3310   -5.0850 nh        1 ARM     -0.933800
     10 C           0.4170    0.0620    3.4850 c         1 ARM      0.572100
     11 O           0.3600    1.1790    4.0050 o         1 ARM     -0.528100
     12 CM          1.3810   -0.9910    3.9160 c3        1 ARM     -0.200100
     13 H          -2.4140   -0.0200    1.7420 hn        1 ARM      0.358300
     14 H2         -1.9260    0.9740    2.9430 hn        1 ARM      0.358300
     15 HA         -0.4950   -1.4650    2.2400 h1        1 ARM      0.070700
     16 HB2         0.1030    1.3550    1.0720 hc        1 ARM      0.056200
     17 HB3         1.2140   -0.0710    1.0200 hc        1 ARM      0.056200
     18 HG2        -0.6640   -1.3880   -0.1530 hc        1 ARM      0.045700
     19 HG3        -1.5920    0.1600   -0.2710 hc        1 ARM      0.045700
     20 HD2         0.3840    1.2470   -1.4330 h1        1 ARM      0.056200
     21 HD3         1.2810   -0.3340   -1.3650 h1        1 ARM      0.056200
     22 HE         -1.3380   -0.1550   -2.6900 hn        1 ARM      0.387800
     23 HH1         1.8580    0.7970   -4.7840 hn        1 ARM      0.391400
     24 HH21        0.1490   -0.5270   -5.8650 hn        1 ARM      0.389800
     25 HH22       -1.1350   -1.0360   -4.9600 hn        1 ARM      0.389800
     26 HM1         2.1110   -0.5820    4.6570 hc        1 ARM      0.067033
     27 HM2         0.8190   -1.8330    4.3900 hc        1 ARM      0.067033
     28 HM3         1.9380   -1.3850    3.0320 hc        1 ARM      0.067033
@<TRIPOS>BOND
     1    1    2 1   
     2    1   13 1   
     3    1   14 1   
     4    2    3 1   
     5    2   10 1   
     6    2   15 1   
     7    3    4 1   
     8    3   16 1   
     9    3   17 1   
    10    4    5 1   
    11    4   18 1   
    12    4   19 1   
    13    5    6 1   
    14    5   20 1   
    15    5   21 1   
    16    6    7 1   
    17    6   22 1   
    18    7    8 2   
    19    7    9 1   
    20    8   23 1   
    21    9   24 1   
    22    9   25 1   
    23   10   11 2   
    24   10   12 1   
    25   12   26 1   
    26   12   27 1   
    27   12   28 1   
@<TRIPOS>SUBSTRUCTURE
     1 ARM         1 TEMP              0 ****  ****    0 ROOT
