@<TRIPOS>MOLECULE
ARN
   16    15     1     0     0
SMALL
bcc


@<TRIPOS>ATOM
      1 N          -0.1030    0.1130   -0.0520 n2        1 ARN     -0.757100
      2 C1          1.1390   -0.1440    0.0860 c2        1 ARN      0.426200
      3 C2          1.9950   -0.0720    1.3150 c3        1 ARN     -0.185700
      4 C3          2.8930   -1.2870    1.4190 c3        1 ARN     -0.070400
      5 CA          3.7720   -1.2040    2.6470 c3        1 ARN     -0.205400
      6 C           4.6560   -2.4060    2.7770 c         1 ARN      0.564900
      7 O           5.7480   -2.3740    3.3450 o         1 ARN     -0.523100
      8 HN1        -0.5980    0.3920    0.7700 hn        1 ARN      0.378400
      9 H11         1.6860   -0.4560   -0.8300 h4        1 ARN      0.012800
     10 H21         1.3700    0.0130    2.2440 hc        1 ARN      0.057700
     11 H22         2.6230    0.8580    1.2510 hc        1 ARN      0.057700
     12 H31         3.5350   -1.3620    0.5010 hc        1 ARN      0.049200
     13 H32         2.2650   -2.2160    1.4630 hc        1 ARN      0.049200
     14 HCA1        4.3980   -0.2730    2.6150 hc        1 ARN      0.074700
     15 HCA2        3.1360   -1.1430    3.5720 hc        1 ARN      0.074700
     16 HC1         4.2570   -3.3470    2.3350 h4        1 ARN     -0.003800
@<TRIPOS>BOND
     1    1    2 2   
     2    1    8 1   
     3    2    3 1   
     4    2    9 1   
     5    3    4 1   
     6    3   10 1   
     7    3   11 1   
     8    4    5 1   
     9    4   12 1   
    10    4   13 1   
    11    5    6 1   
    12    5   14 1   
    13    5   15 1   
    14    6    7 2   
    15    6   16 1   
@<TRIPOS>SUBSTRUCTURE
     1 ARN         1 TEMP              0 ****  ****    0 ROOT
