@<TRIPOS>MOLECULE
ARN
   16    15     1     0     0
SMALL
bcc


@<TRIPOS>ATOM
      1 N          -0.1030    0.1220   -0.0450 n2        1 ARN     -0.757100
      2 C1          1.1400   -0.1260    0.0940 c2        1 ARN      0.426200
      3 C2          1.9890   -0.0730    1.3290 c3        1 ARN     -0.185700
      4 C3          2.8970   -1.2810    1.4130 c3        1 ARN     -0.070400
      5 CA          3.7690   -1.2160    2.6480 c3        1 ARN     -0.205400
      6 C           4.6630   -2.4130    2.7580 c         1 ARN      0.564900
      7 O           5.7500   -2.3830    3.3360 o         1 ARN     -0.523100
      8 HN1        -0.6050    0.3820    0.7790 hn        1 ARN      0.378400
      9 H11         1.6950   -0.4160   -0.8250 h4        1 ARN      0.012800
     10 H21         2.6090    0.8640    1.2880 hc        1 ARN      0.057700
     11 H22         1.3580   -0.0120    2.2560 hc        1 ARN      0.057700
     12 H31         3.5450   -1.3310    0.4980 hc        1 ARN      0.049200
     13 H32         2.2780   -2.2170    1.4340 hc        1 ARN      0.049200
     14 HCA1        3.1270   -1.1810    3.5700 hc        1 ARN      0.075200
     15 HCA2        4.3860   -0.2790    2.6390 hc        1 ARN      0.075200
     16 HC1         4.2780   -3.3470    2.2900 h4        1 ARN     -0.003800
@<TRIPOS>BOND
     1    1    2 2   
     2    1    8 1   
     3    2    3 1   
     4    2    9 1   
     5    3    4 1   
     6    3   10 1   
     7    3   11 1   
     8    4    5 1   
     9    4   12 1   
    10    4   13 1   
    11    5    6 1   
    12    5   14 1   
    13    5   15 1   
    14    6    7 2   
    15    6   16 1   
@<TRIPOS>SUBSTRUCTURE
     1 ARN         1 TEMP              0 ****  ****    0 ROOT
