@<TRIPOS>MOLECULE
ARN
   16    15     1     0     0
SMALL
bcc


@<TRIPOS>ATOM
      1 N          -0.0830   -0.3350    3.5520 n2        1 ARN     -0.763100
      2 C1         -0.2470    0.3370    2.4770 c2        1 ARN      0.427200
      3 C2          0.6000    0.1380    1.2530 c3        1 ARN     -0.139700
      4 C3         -0.2750   -0.0120    0.0250 c3        1 ARN     -0.074400
      5 CA          0.5720   -0.1640   -1.2190 c3        1 ARN     -0.204400
      6 C          -0.2730   -0.3520   -2.4410 c         1 ARN      0.564900
      7 O           0.0590    0.0540   -3.5550 o         1 ARN     -0.524100
      8 HN1        -0.6990   -0.1000    4.3030 hn        1 ARN      0.385400
      9 H11        -1.0140    1.1340    2.3410 h4        1 ARN     -0.044200
     10 H21         1.2610    1.0400    1.1440 hc        1 ARN      0.065200
     11 H22         1.2700   -0.7570    1.3520 hc        1 ARN      0.065200
     12 H31        -0.9390   -0.9090    0.1450 hc        1 ARN      0.046700
     13 H32        -0.9400    0.8850   -0.0810 hc        1 ARN      0.046700
     14 HCA1        1.2380    0.7300   -1.3470 hc        1 ARN      0.075700
     15 HCA2        1.2400   -1.0640   -1.1220 hc        1 ARN      0.075700
     16 HC1        -1.2290   -0.9010   -2.2830 h4        1 ARN     -0.004800
@<TRIPOS>BOND
     1    1    2 2   
     2    1    8 1   
     3    2    3 1   
     4    2    9 1   
     5    3    4 1   
     6    3   10 1   
     7    3   11 1   
     8    4    5 1   
     9    4   12 1   
    10    4   13 1   
    11    5    6 1   
    12    5   14 1   
    13    5   15 1   
    14    6    7 2   
    15    6   16 1   
@<TRIPOS>SUBSTRUCTURE
     1 ARN         1 TEMP              0 ****  ****    0 ROOT
