@<TRIPOS>MOLECULE
ARN
   16    15     1     0     0
SMALL
bcc


@<TRIPOS>ATOM
      1 N          -0.0610    0.1570   -0.0940 n2        1 ARN     -0.757100
      2 C1          1.1790   -0.0860    0.0760 c2        1 ARN      0.426200
      3 C2          1.9890   -0.0700    1.3390 c3        1 ARN     -0.185700
      4 C3          2.9070   -1.2720    1.4070 c3        1 ARN     -0.070400
      5 CA          3.7370   -1.2450    2.6710 c3        1 ARN     -0.205400
      6 C           4.6410   -2.4360    2.7660 c         1 ARN      0.564900
      7 O           5.7070   -2.4180    3.3810 o         1 ARN     -0.523100
      8 HN1        -0.5910    0.3810    0.7230 hn        1 ARN      0.378400
      9 H11         1.7660   -0.3370   -0.8340 h4        1 ARN      0.012800
     10 H21         2.5990    0.8730    1.3520 hc        1 ARN      0.057700
     11 H22         1.3280   -0.0500    2.2470 hc        1 ARN      0.057700
     12 H31         3.5830   -1.2810    0.5120 hc        1 ARN      0.049200
     13 H32         2.2970   -2.2140    1.3730 hc        1 ARN      0.049200
     14 HCA1        3.0660   -1.2510    3.5730 hc        1 ARN      0.075200
     15 HCA2        4.3440   -0.3020    2.7170 hc        1 ARN      0.075200
     16 HC1         4.2820   -3.3550    2.2490 h4        1 ARN     -0.003800
@<TRIPOS>BOND
     1    1    2 2   
     2    1    8 1   
     3    2    3 1   
     4    2    9 1   
     5    3    4 1   
     6    3   10 1   
     7    3   11 1   
     8    4    5 1   
     9    4   12 1   
    10    4   13 1   
    11    5    6 1   
    12    5   14 1   
    13    5   15 1   
    14    6    7 2   
    15    6   16 1   
@<TRIPOS>SUBSTRUCTURE
     1 ARN         1 TEMP              0 ****  ****    0 ROOT
