@<TRIPOS>MOLECULE
ARN
   16    13     1     0     0
SMALL
bcc


@<TRIPOS>ATOM
      1 N          -3.1970   -0.2010   -1.3100 n1        1 ARN     -0.225000
      2 C1         -1.8880   -0.0390   -1.3250 c1        1 ARN     -0.066000
      3 C2         -1.1120    0.0430   -0.0080 c2        1 ARN     -0.189000
      4 C3          0.4040   -0.0160   -0.2970 c3        1 ARN     -0.149000
      5 CA          1.1830   -0.0190    1.0340 c3        1 ARN     -0.234000
      6 C           2.6940    0.0660    0.7470 c2        1 ARN      0.183000
      7 O           3.3020    1.0920    0.9830 o         1 ARN     -0.284000
      8 HN1        -3.6370   -0.2640   -0.5220 DU        1 ARN      0.134000
      9 H11        -1.4110    0.0300   -2.1810 ha        1 ARN      0.142000
     10 H21        -1.3620   -0.7050    0.5630 ha        1 ARN      0.097000
     11 H22        -1.3260    0.8880    0.4450 ha        1 ARN      0.097000
     12 H31         0.6080   -0.8270   -0.7940 hc        1 ARN      0.088500
     13 H32         0.6670    0.7710   -0.8300 hc        1 ARN      0.088500
     14 HCA1        0.9100    0.7490    1.5720 hc        1 ARN      0.114500
     15 HCA2        0.9910   -0.8420    1.5220 hc        1 ARN      0.114500
     16 HC1         3.1760   -0.7260    0.4000 h4        1 ARN      0.089000
@<TRIPOS>BOND
     1    1    2 1   
     2    2    9 1   
     3    3    4 1   
     4    3   10 1   
     5    3   11 1   
     6    4    5 1   
     7    4   12 1   
     8    4   13 1   
     9    5    6 1   
    10    5   14 1   
    11    5   15 1   
    12    6    7 1   
    13    6   16 1   
@<TRIPOS>SUBSTRUCTURE
     1 ARN         1 TEMP              0 ****  ****    0 ROOT
