@<TRIPOS>MOLECULE
ARO
   27    26     1     0     0
SMALL
bcc


@<TRIPOS>ATOM
      1 N          38.8000   70.0170   46.0360 n3        1 ARO     -0.914800
      2 CA         39.3590   71.3600   46.0770 c3        1 ARO      0.000500
      3 C          39.1610   72.2080   44.7640 c         1 ARO      0.899600
      4 O          39.7390   73.3290   44.7370 o         1 ARO     -0.820300
      5 CB         40.8560   71.3530   46.3820 c3        1 ARO     -0.105400
      6 CG         41.1400   71.0440   47.8440 c3        1 ARO      0.152100
      7 OH         41.1670   69.6550   48.1380 oh        1 ARO     -0.660800
      8 CD         42.5470   71.6040   48.1730 c3        1 ARO     -0.011700
      9 NE         42.9810   71.2440   49.5100 nh        1 ARO     -0.358100
     10 CZ         44.2000   71.6050   50.0190 cz        1 ARO      0.503300
     11 NH1        45.0180   72.4860   49.3420 nh        1 ARO     -0.518700
     12 NH2        44.6100   71.1070   51.2440 nh        1 ARO     -0.518700
     13 OXT        38.4470   71.7150   43.8560 o         1 ARO     -0.820300
     14 H          39.0580   69.5970   45.1590 hn        1 ARO      0.347800
     15 H2         37.7980   70.1000   46.0230 hn        1 ARO      0.347800
     16 HA         38.8290   71.9300   46.8940 h1        1 ARO      0.041700
     17 HB2        41.3910   70.6130   45.7340 hc        1 ARO      0.073200
     18 HB3        41.2380   72.3820   46.1290 hc        1 ARO      0.073200
     19 HG         40.3760   71.5310   48.5140 h1        1 ARO      0.056700
     20 HH         40.4830   69.2340   47.5960 ho        1 ARO      0.467000
     21 HD2        43.2780   71.1990   47.4170 h1        1 ARO      0.074700
     22 HD3        42.4940   72.7270   48.0880 h1        1 ARO      0.074700
     23 HE         42.4590   70.5040   49.9460 hn        1 ARO      0.336700
     24 HH11       45.8550   72.8230   49.7540 hn        1 ARO      0.319950
     25 HH12       44.7370   72.8560   48.4610 hn        1 ARO      0.319950
     26 HH21       44.0400   70.4640   51.7430 hn        1 ARO      0.319950
     27 HH22       45.4500   71.4230   51.6670 hn        1 ARO      0.319950
@<TRIPOS>BOND
     1    1    2 1   
     2    1   14 1   
     3    1   15 1   
     4    2    3 1   
     5    2    5 1   
     6    2   16 1   
     7    3    4 1   
     8    3   13 1   
     9    5    6 1   
    10    5   17 1   
    11    5   18 1   
    12    6    7 1   
    13    6    8 1   
    14    6   19 1   
    15    7   20 1   
    16    8    9 1   
    17    8   21 1   
    18    8   22 1   
    19    9   10 2   
    20    9   23 1   
    21   10   11 1   
    22   10   12 1   
    23   11   24 1   
    24   11   25 1   
    25   12   26 1   
    26   12   27 1   
@<TRIPOS>SUBSTRUCTURE
     1 ARO         1 TEMP              0 ****  ****    0 ROOT
