@<TRIPOS>MOLECULE
ARP
   25    26     1     0     0
SMALL
bcc


@<TRIPOS>ATOM
      1 C7          0.1610   -0.1910   -0.1260 c3        1 ARP      0.049300
      2 C8          1.5950    0.2050    0.2880 c3        1 ARP      0.119100
      3 O1          1.5010    0.7000    1.6190 oh        1 ARP     -0.611800
      4 C9          2.1230    1.2680   -0.6570 c3        1 ARP     -0.133100
      5 C4         -0.7590   -2.5550   -0.0220 ca        1 ARP      0.453800
      6 C3         -1.1760   -3.3870    1.1010 ca        1 ARP     -0.231200
      7 C2         -1.6570   -4.7050    0.7970 ca        1 ARP      0.760200
      8 N2         -1.7110   -5.1040   -0.5180 nb        1 ARP     -0.797000
      9 C1         -1.2870   -4.2200   -1.4610 ca        1 ARP      0.684900
     10 N5         -2.0310   -5.5530    1.8080 nh        1 ARP     -0.959500
     11 N4         -0.3540   -1.3400    0.5500 na        1 ARP     -0.264000
     12 N3         -1.0090   -2.6880    2.3070 nc        1 ARP     -0.553100
     13 C6         -0.5190   -1.4920    1.9510 cd        1 ARP      0.419700
     14 N1         -0.8070   -2.9620   -1.3270 nb        1 ARP     -0.741000
     15 H72        -0.5170    0.6850    0.0950 h1        1 ARP      0.080200
     16 H71         0.1570   -0.3880   -1.2350 h1        1 ARP      0.080200
     17 H8          2.2760   -0.6930    0.2740 h1        1 ARP      0.052700
     18 H1          2.3780    1.0170    1.8650 ho        1 ARP      0.409000
     19 H93         1.4570    2.1640   -0.6470 hc        1 ARP      0.049367
     20 H92         2.1760    0.8670   -1.6970 hc        1 ARP      0.049367
     21 H91         3.1460    1.5850   -0.3420 hc        1 ARP      0.049367
     22 H52        -2.4380   -6.4310    1.6020 hn        1 ARP      0.446800
     23 H51        -2.0670   -5.2010    2.7320 hn        1 ARP      0.446800
     24 H6         -0.2380   -0.6730    2.6290 h5        1 ARP      0.089800
     25 H1C1       -1.3470   -4.5960   -2.5050 h5        1 ARP      0.049100
@<TRIPOS>BOND
     1    1    2 1   
     2    1   11 1   
     3    1   15 1   
     4    1   16 1   
     5    2    3 1   
     6    2    4 1   
     7    2   17 1   
     8    3   18 1   
     9    4   19 1   
    10    4   20 1   
    11    4   21 1   
    12    5    6 ar  
    13    5   11 1   
    14    5   14 ar  
    15    6    7 ar  
    16    6   12 1   
    17    7    8 ar  
    18    7   10 1   
    19    8    9 ar  
    20    9   14 ar  
    21    9   25 1   
    22   10   22 1   
    23   10   23 1   
    24   11   13 1   
    25   12   13 2   
    26   13   24 1   
@<TRIPOS>SUBSTRUCTURE
     1 ARP         1 TEMP              0 ****  ****    0 ROOT
