@<TRIPOS>MOLECULE
ARP
   25    20     1     0     0
SMALL
bcc


@<TRIPOS>ATOM
      1 C7          1.0780    1.2930   -0.0350 c3        1 ARP      0.192800
      2 C8          0.1970    2.4840   -0.3760 c3        1 ARP      0.121100
      3 O1         -0.6960    2.1300   -1.4140 oh        1 ARP     -0.586800
      4 C9          1.0880    3.6760   -0.8330 c3        1 ARP     -0.134100
      5 C4         -0.0010   -0.9710   -0.0810 c1        1 ARP     -0.083000
      6 C3         -0.5250   -1.7700    0.8600 c1        1 ARP     -0.083000
      7 C2         -0.8290   -3.1210    0.5510 c1        1 ARP      0.620600
      8 N2         -0.5970   -3.5890   -0.6530 n1        1 ARP     -0.596800
      9 C1         -0.0570   -2.7680   -1.6290 c1        1 ARP      0.407300
     10 N5         -1.4900   -4.0340    1.3630 n3        1 ARP     -0.821400
     11 N4          0.2730    0.2490    0.5020 n2        1 ARP     -0.518600
     12 N3         -0.5840   -1.0580    2.0420 n1        1 ARP     -0.115000
     13 C6         -0.0910    0.1810    1.8100 c1        1 ARP      0.162400
     14 N1          0.2390   -1.4660   -1.3410 n1        1 ARP     -0.529800
     15 H72         1.5130    0.9840   -0.8230 h1        1 ARP      0.081200
     16 H71         1.7700    1.5670    0.6440 h1        1 ARP      0.081200
     17 H8         -0.3460    2.7630    0.4610 h1        1 ARP      0.035700
     18 H1         -1.5010    2.5740   -1.2940 ho        1 ARP      0.403000
     19 H93         2.1000    3.3350   -0.9870 hc        1 ARP      0.048367
     20 H92         1.0810    4.3690   -0.1410 hc        1 ARP      0.048367
     21 H91         0.7120    4.0680   -1.7230 hc        1 ARP      0.048367
     22 H1C1        0.1220   -3.1370   -2.5590 ha        1 ARP      0.130500
     23 H52        -1.7340   -3.8080    2.1320 hn        1 ARP      0.445300
     24 H51        -1.6340   -4.8840    1.0710 hn        1 ARP      0.445300
     25 H6         -0.0860    0.9330    2.4530 DU        1 ARP      0.198000
@<TRIPOS>BOND
     1    1    2 1   
     2    1   11 1   
     3    1   15 1   
     4    1   16 1   
     5    2    3 1   
     6    2    4 1   
     7    2   17 1   
     8    3   18 1   
     9    4   19 1   
    10    4   20 1   
    11    4   21 1   
    12    5    6 1   
    13    7    8 3   
    14    7   10 1   
    15    9   14 3   
    16    9   22 1   
    17   10   23 1   
    18   10   24 1   
    19   11   13 2   
    20   12   13 2   
@<TRIPOS>SUBSTRUCTURE
     1 ARP         1 TEMP              0 ****  ****    0 ROOT
