@<TRIPOS>MOLECULE
ARP
   25    26     1     0     0
SMALL
bcc


@<TRIPOS>ATOM
      1 C7         -0.4070   -0.5240    2.0180 c3        1 ARP      0.015300
      2 C8          0.0250    0.4230    3.1590 c3        1 ARP      0.121100
      3 O1          1.4030    0.2630    3.4510 oh        1 ARP     -0.600800
      4 C9         -0.8390    0.1600    4.3780 c3        1 ARP     -0.132100
      5 C4         -0.4880   -0.3050   -0.5000 ca        1 ARP      0.453800
      6 C3          0.5200    0.0700   -1.4850 ca        1 ARP     -0.232200
      7 C2          0.1260    0.0560   -2.8650 ca        1 ARP      0.762200
      8 N2         -1.1660   -0.2960   -3.1810 nb        1 ARP     -0.798000
      9 C1         -1.9970   -0.6230   -2.1560 ca        1 ARP      0.685900
     10 N5          1.0300    0.3720   -3.8440 nh        1 ARP     -0.961500
     11 N4          0.1560   -0.2060    0.7420 na        1 ARP     -0.265000
     12 N3          1.7280    0.3820   -0.8420 nc        1 ARP     -0.550100
     13 C6          1.4830    0.2080    0.4640 cd        1 ARP      0.412700
     14 N1         -1.7690   -0.6600   -0.8230 nb        1 ARP     -0.741000
     15 H72        -0.1040   -1.5760    2.2970 h1        1 ARP      0.070200
     16 H71        -1.5310   -0.4920    1.9320 h1        1 ARP      0.070200
     17 H8         -0.0610    1.5010    2.8400 h1        1 ARP      0.093700
     18 H1          1.5170   -0.6010    3.8640 ho        1 ARP      0.403000
     19 H93        -0.4660    0.7670    5.2380 hc        1 ARP      0.051367
     20 H92        -1.8970    0.4430    4.1680 hc        1 ARP      0.051367
     21 H91        -0.8040   -0.9190    4.6630 hc        1 ARP      0.051367
     22 H52         0.7530    0.4160   -4.7930 hn        1 ARP      0.448800
     23 H51         1.9310    0.6800   -3.5790 hn        1 ARP      0.448800
     24 H6          2.1960    0.3720    1.2870 h5        1 ARP      0.092800
     25 H1C1       -3.0270   -0.9020   -2.4680 h5        1 ARP      0.050100
@<TRIPOS>BOND
     1    1    2 1   
     2    1   11 1   
     3    1   15 1   
     4    1   16 1   
     5    2    3 1   
     6    2    4 1   
     7    2   17 1   
     8    3   18 1   
     9    4   19 1   
    10    4   20 1   
    11    4   21 1   
    12    5    6 ar  
    13    5   11 1   
    14    5   14 ar  
    15    6    7 ar  
    16    6   12 1   
    17    7    8 ar  
    18    7   10 1   
    19    8    9 ar  
    20    9   14 ar  
    21    9   25 1   
    22   10   22 1   
    23   10   23 1   
    24   11   13 1   
    25   12   13 2   
    26   13   24 1   
@<TRIPOS>SUBSTRUCTURE
     1 ARP         1 TEMP              0 ****  ****    0 ROOT
