@<TRIPOS>MOLECULE
ARP
   26    27     1     0     0
SMALL
bcc


@<TRIPOS>ATOM
      1 C7          0.2470   -0.2290   -0.1320 c3        1 ARP      0.027300
      2 C8          1.7130    0.1510    0.1770 c3        1 ARP      0.129100
      3 O1          1.7720    0.4240    1.5720 oh        1 ARP     -0.631800
      4 C9          2.1000    1.3540   -0.6600 c3        1 ARP     -0.139100
      5 C4         -0.8360   -2.5270   -0.0290 ca        1 ARP      0.449800
      6 C3         -1.1260   -3.4260    1.1170 ca        1 ARP     -0.132200
      7 C2         -1.7660   -4.6330    0.7900 ca        1 ARP      0.512200
      8 N2         -2.0940   -4.9540   -0.4870 nb        1 ARP     -0.679000
      9 C1         -1.7710   -4.0420   -1.4490 ca        1 ARP      0.669900
     10 N5         -2.0880   -5.5720    1.8800 n4        1 ARP     -0.814300
     11 N4         -0.2150   -1.4110    0.5480 na        1 ARP     -0.237000
     12 N3         -0.6820   -2.8470    2.3060 nc        1 ARP     -0.598100
     13 C6         -0.1490   -1.6630    1.9350 cd        1 ARP      0.524700
     14 N1         -1.1580   -2.8370   -1.3080 nb        1 ARP     -0.620000
     15 H72        -0.4160    0.6310    0.1780 h1        1 ARP      0.096700
     16 H71         0.1500   -0.3900   -1.2440 h1        1 ARP      0.096700
     17 H8          2.3990   -0.7150   -0.0450 h1        1 ARP      0.058700
     18 H1          2.5440    0.9830    1.7310 ho        1 ARP      0.433000
     19 H93         1.4520    2.2300   -0.4140 hc        1 ARP      0.063367
     20 H92         3.1630    1.6320   -0.4560 hc        1 ARP      0.063367
     21 H91         1.9980    1.1210   -1.7460 hc        1 ARP      0.063367
     22 H52        -2.7210   -5.1000    2.5390 hn        1 ARP      0.477467
     23 H51        -1.2170   -5.8150    2.3680 hn        1 ARP      0.477467
     24 H6          0.3230   -0.9280    2.6170 h5        1 ARP      0.131800
     25 H53        -2.5350   -6.4250    1.5200 hn        1 ARP      0.477467
     26 H1C1       -2.0500   -4.3300   -2.4900 h5        1 ARP      0.099100
@<TRIPOS>BOND
     1    1    2 1   
     2    1   11 1   
     3    1   15 1   
     4    1   16 1   
     5    2    3 1   
     6    2    4 1   
     7    2   17 1   
     8    3   18 1   
     9    4   19 1   
    10    4   20 1   
    11    4   21 1   
    12    5    6 ar  
    13    5   11 1   
    14    5   14 ar  
    15    6    7 ar  
    16    6   12 1   
    17    7    8 ar  
    18    7   10 1   
    19    8    9 ar  
    20    9   14 ar  
    21    9   26 1   
    22   10   22 1   
    23   10   23 1   
    24   10   25 1   
    25   11   13 1   
    26   12   13 2   
    27   13   24 1   
@<TRIPOS>SUBSTRUCTURE
     1 ARP         1 TEMP              0 ****  ****    0 ROOT
