@<TRIPOS>MOLECULE
ARP
   25    26     1     0     0
SMALL
bcc


@<TRIPOS>ATOM
      1 C7          0.1630   -0.1910   -0.1270 c3        1 ARP      0.049300
      2 C8          1.6050    0.1980    0.2690 c3        1 ARP      0.119100
      3 O1          1.5290    0.6920    1.6020 oh        1 ARP     -0.611800
      4 C9          2.1250    1.2590   -0.6820 c3        1 ARP     -0.133100
      5 C4         -0.7670   -2.5510   -0.0130 ca        1 ARP      0.453800
      6 C3         -1.1740   -3.3810    1.1160 ca        1 ARP     -0.231200
      7 C2         -1.6660   -4.6970    0.8170 ca        1 ARP      0.760200
      8 N2         -1.7380   -5.0950   -0.4980 nb        1 ARP     -0.797000
      9 C1         -1.3210   -4.2130   -1.4450 ca        1 ARP      0.684900
     10 N5         -2.0310   -5.5430    1.8320 nv        1 ARP     -0.959500
     11 N4         -0.3490   -1.3380    0.5560 na        1 ARP     -0.264000
     12 N3         -0.9880   -2.6830    2.3190 nc        1 ARP     -0.553100
     13 C6         -0.4970   -1.4900    1.9580 cd        1 ARP      0.419700
     14 N1         -0.8340   -2.9570   -1.3170 nb        1 ARP     -0.741000
     15 H72        -0.5070    0.6880    0.1030 h1        1 ARP      0.080200
     16 H71         0.1450   -0.3880   -1.2360 h1        1 ARP      0.080200
     17 H8          2.2800   -0.7040    0.2460 h1        1 ARP      0.052700
     18 H1          2.4110    1.0050    1.8360 ho        1 ARP      0.409000
     19 H93         3.1540    1.5710   -0.3800 hc        1 ARP      0.049367
     20 H92         2.1640    0.8580   -1.7220 hc        1 ARP      0.049367
     21 H91         1.4640    2.1580   -0.6630 hc        1 ARP      0.049367
     22 H52        -2.0530   -5.1920    2.7560 hn        1 ARP      0.446800
     23 H51        -2.4440   -6.4190    1.6310 hn        1 ARP      0.446800
     24 H6         -0.2030   -0.6730    2.6320 h5        1 ARP      0.089800
     25 H1C1       -1.3960   -4.5880   -2.4890 h5        1 ARP      0.049100
@<TRIPOS>BOND
     1    1    2 1   
     2    1   11 1   
     3    1   15 1   
     4    1   16 1   
     5    2    3 1   
     6    2    4 1   
     7    2   17 1   
     8    3   18 1   
     9    4   19 1   
    10    4   20 1   
    11    4   21 1   
    12    5    6 ar  
    13    5   11 1   
    14    5   14 ar  
    15    6    7 ar  
    16    6   12 1   
    17    7    8 ar  
    18    7   10 1   
    19    8    9 ar  
    20    9   14 ar  
    21    9   25 1   
    22   10   22 1   
    23   10   23 1   
    24   11   13 1   
    25   12   13 2   
    26   13   24 1   
@<TRIPOS>SUBSTRUCTURE
     1 ARP         1 TEMP              0 ****  ****    0 ROOT
