@<TRIPOS>MOLECULE
ARQ
   77    78     1     0     0
SMALL
bcc


@<TRIPOS>ATOM
      1 C1        -37.4570  172.6340   35.2170 c3        1 ARQ      0.138000
      2 C2        -36.9330  171.9360   33.9830 c3        1 ARQ     -0.250000
      3 C3        -37.7320  171.6680   36.3560 c3        1 ARQ     -0.250000
      4 C4        -36.6030  173.8040   35.6460 c3        1 ARQ     -0.250000
      5 O4        -38.8530  173.1340   34.9330 os        1 ARQ     -0.253000
      6 C30       -39.0610  174.0190   33.9670 c2        1 ARQ      0.372000
      7 O3        -38.2530  174.5540   33.2150 o         1 ARQ     -0.301000
      8 N1        -40.5310  174.3370   33.8910 n4        1 ARQ     -0.082000
      9 C5        -40.9930  174.7580   32.5230 c3        1 ARQ     -0.080000
     10 C6        -42.4010  174.1960   32.2350 c3        1 ARQ     -0.135000
     11 C7        -42.4830  172.7320   32.4780 ca        1 ARQ     -0.171000
     12 C8        -43.1030  172.2460   33.6370 ca        1 ARQ     -0.130000
     13 C9        -43.2290  170.8720   33.8400 ca        1 ARQ     -0.109000
     14 C10       -42.7390  169.9760   32.8880 ca        1 ARQ     -0.087000
     15 C11       -41.9980  171.8290   31.5230 ca        1 ARQ     -0.130000
     16 C12       -42.1240  170.4560   31.7300 ca        1 ARQ     -0.109000
     17 C13       -41.0230  176.3050   32.3120 c3        1 ARQ      0.025000
     18 O1        -41.0950  176.9580   33.5630 oh        1 ARQ     -0.350000
     19 C14       -39.7480  176.7440   31.5630 c3        1 ARQ     -0.139000
     20 N2        -39.5510  178.2460   31.4070 n4        1 ARQ      0.066000
     21 C22       -38.8990  178.7760   32.6690 c3        1 ARQ     -0.178000
     22 C15       -38.5210  178.4640   30.2700 c3        1 ARQ     -0.084000
     23 C16       -39.0710  178.2270   28.9120 ca        1 ARQ     -0.197000
     24 C17       -39.7340  179.2610   28.2350 ca        1 ARQ     -0.110000
     25 C18       -40.1700  179.0710   26.9250 ca        1 ARQ     -0.112000
     26 C19       -39.9410  177.8530   26.2810 ca        1 ARQ     -0.065000
     27 C20       -38.8370  177.0090   28.2600 ca        1 ARQ     -0.110000
     28 C21       -39.2730  176.8250   26.9490 ca        1 ARQ     -0.112000
     29 N3        -40.7990  178.8770   31.1840 n3        1 ARQ     -0.265000
     30 C23       201.8820 -894.1590 -166.4550 c1        1 ARQ      0.469000
     31 O2        202.1770 -895.2110 -166.8470 o         1 ARQ      0.081000
     32 C27       201.5290 -892.9040 -165.9870 ca        1 ARQ     -0.200000
     33 C26       201.6410 -892.6110 -164.6030 ca        1 ARQ     -0.003000
     34 C25       201.2840 -891.3500 -164.1490 ca        1 ARQ     -0.138000
     35 C24       200.8190 -890.3780 -165.0450 ca        1 ARQ      0.017000
     36 C28       201.0580 -891.9200 -166.8940 ca        1 ARQ     -0.003000
     37 C29       200.7090 -890.6680 -166.4110 ca        1 ARQ     -0.138000
     38 H21A      -37.6440  171.1430   33.6450 hc        1 ARQ      0.115667
     39 H22       -35.9550  171.4520   34.2300 hc        1 ARQ      0.115667
     40 H23       -36.7680  172.6630   33.1510 hc        1 ARQ      0.115667
     41 H31       -38.4220  170.8540   36.0280 hc        1 ARQ      0.115667
     42 H32       -36.7590  171.2160   36.6730 hc        1 ARQ      0.115667
     43 H33       -38.1850  172.2010   37.2270 hc        1 ARQ      0.115667
     44 H41       -35.6060  173.4190   35.9810 hc        1 ARQ      0.115667
     45 H42       -37.0760  174.3480   36.4990 hc        1 ARQ      0.115667
     46 H43       -36.4400  174.5130   34.7990 hc        1 ARQ      0.115667
     47 HN1       -41.0620  173.4920   34.1790 hn        1 ARQ      0.284500
     48 H5        -40.2690  174.3020   31.7800 hx        1 ARQ      0.159000
     49 H61       -43.1610  174.7410   32.8570 hc        1 ARQ      0.129000
     50 H62       -42.6280  174.4110   31.1540 hc        1 ARQ      0.129000
     51 H8        -43.5360  172.9440   34.3700 ha        1 ARQ      0.134500
     52 H9        -43.7320  170.4940   34.7450 ha        1 ARQ      0.163500
     53 H10       -42.8520  168.8900   33.0430 ha        1 ARQ      0.168000
     54 H11       -41.5370  172.2020   30.5960 ha        1 ARQ      0.134500
     55 H12       -41.7540  169.7500   30.9690 ha        1 ARQ      0.163500
     56 H13       -41.9280  176.5360   31.6790 h1        1 ARQ      0.143000
     57 HO1       -41.8620  177.5500   33.5550 ho        1 ARQ      0.264000
     58 H141      -38.8350  176.3530   32.0980 hx        1 ARQ      0.158000
     59 H142      -39.7890  176.3020   30.5230 hx        1 ARQ      0.158000
     60 H221      -37.9060  178.2680   32.7890 hx        1 ARQ      0.148667
     61 H222      -39.5520  178.5570   33.5560 hx        1 ARQ      0.148667
     62 H223      -38.7410  179.8850   32.5800 hx        1 ARQ      0.148667
     63 H151      -38.1650  179.5320   30.3650 hx        1 ARQ      0.150500
     64 H152      -37.6600  177.7710   30.4860 hx        1 ARQ      0.150500
     65 H17       -39.8810  180.2390   28.7180 ha        1 ARQ      0.136000
     66 H18       -40.6820  179.8900   26.3920 ha        1 ARQ      0.169000
     67 H19       -40.2750  177.7090   25.2390 ha        1 ARQ      0.174000
     68 H20       -38.2780  176.2060   28.7640 ha        1 ARQ      0.136000
     69 H21       -39.0720  175.8720   26.4310 ha        1 ARQ      0.169000
     70 HN3       -40.6820  179.8830   31.2560 hn        1 ARQ      0.206500
     71 H26       202.0060 -893.3750 -163.8960 ha        1 ARQ      0.175000
     72 H25       201.3670 -891.1110 -163.0730 ha        1 ARQ      0.190000
     73 H24       200.5380 -889.3760 -164.6710 ha        1 ARQ      0.186000
     74 H28       200.9710 -892.1470 -167.9710 ha        1 ARQ      0.175000
     75 H29       200.3410 -889.8950 -167.1100 ha        1 ARQ      0.190000
     76 H121      -40.7300  175.0900   34.5680 hn        1 ARQ      0.284500
     77 H321      -41.1180  178.6550   30.2440 hn        1 ARQ      0.206500
@<TRIPOS>BOND
     1    1    2 1   
     2    1    3 1   
     3    1    4 1   
     4    1    5 1   
     5    2   38 1   
     6    2   39 1   
     7    2   40 1   
     8    3   41 1   
     9    3   42 1   
    10    3   43 1   
    11    4   44 1   
    12    4   45 1   
    13    4   46 1   
    14    5    6 1   
    15    6    7 1   
    16    6    8 1   
    17    8    9 1   
    18    8   47 1   
    19    8   76 1   
    20    9   10 1   
    21    9   17 1   
    22    9   48 1   
    23   10   11 1   
    24   10   49 1   
    25   10   50 1   
    26   11   12 1   
    27   11   15 1   
    28   12   13 1   
    29   12   51 1   
    30   13   14 1   
    31   13   52 1   
    32   14   16 1   
    33   14   53 1   
    34   15   16 1   
    35   15   54 1   
    36   16   55 1   
    37   17   18 1   
    38   17   19 1   
    39   17   56 1   
    40   18   57 1   
    41   19   20 1   
    42   19   58 1   
    43   19   59 1   
    44   20   21 1   
    45   20   22 1   
    46   20   29 1   
    47   21   60 1   
    48   21   61 1   
    49   21   62 1   
    50   22   23 1   
    51   22   63 1   
    52   22   64 1   
    53   23   24 1   
    54   23   27 1   
    55   24   25 1   
    56   24   65 1   
    57   25   26 1   
    58   25   66 1   
    59   26   28 1   
    60   26   67 1   
    61   27   28 1   
    62   27   68 1   
    63   28   69 1   
    64   29   70 1   
    65   29   77 1   
    66   30   31 1   
    67   30   32 1   
    68   32   33 1   
    69   32   36 1   
    70   33   34 1   
    71   33   71 1   
    72   34   35 1   
    73   34   72 1   
    74   35   37 1   
    75   35   73 1   
    76   36   37 1   
    77   36   74 1   
    78   37   75 1   
@<TRIPOS>SUBSTRUCTURE
     1 ARQ         1 TEMP              0 ****  ****    0 ROOT
