@<TRIPOS>MOLECULE
ARQ
   77    78     1     0     0
SMALL
bcc


@<TRIPOS>ATOM
      1 C1        -59.8890  267.9370   60.7330 c3        1 ARQ      0.141000
      2 C2        -59.4280  269.3440   61.0290 c3        1 ARQ     -0.251000
      3 C3        -59.0830  267.2600   59.6500 c3        1 ARQ     -0.251000
      4 C4        -60.0110  267.0890   61.9860 c3        1 ARQ     -0.251000
      5 O4        -61.3370  267.9880   60.2940 os        1 ARQ     -0.251000
      6 C30       -61.6770  268.6480   59.1970 c2        1 ARQ      0.372000
      7 O3        -60.9800  269.2950   58.4230 o         1 ARQ     -0.296000
      8 N1        -63.1670  268.5290   58.9800 ny        1 ARQ     -0.088000
      9 C5        -63.5700  268.4880   57.5320 c3        1 ARQ     -0.096000
     10 C6        -64.6550  267.4150   57.2960 c3        1 ARQ     -0.133000
     11 C7        -64.2870  266.0980   57.8750 ca        1 ARQ     -0.173000
     12 C8        -64.8620  265.6750   59.0820 ca        1 ARQ     -0.129000
     13 C9        -64.5640  264.4140   59.5950 ca        1 ARQ     -0.108000
     14 C10       -63.6940  263.5660   58.9070 ca        1 ARQ     -0.085000
     15 C11       -63.4190  265.2420   57.1870 ca        1 ARQ     -0.129000
     16 C12       -63.1220  263.9820   57.7030 ca        1 ARQ     -0.108000
     17 C13       -64.1030  269.8520   57.0020 c3        1 ARQ     -0.002000
     18 O1        -64.7720  270.5710   58.0210 oh        1 ARQ     -0.348000
     19 C14       -62.9410  270.7140   56.4770 c3        1 ARQ     -0.186000
     20 N2        -63.2710  272.1610   56.1470 n4        1 ARQ      0.077000
     21 C22       -63.1080  272.9880   57.4100 c3        1 ARQ     -0.168000
     22 C15       -62.1810  272.6700   55.1580 c3        1 ARQ     -0.033000
     23 C16       -62.2660  272.0690   53.8040 ca        1 ARQ     -0.199000
     24 C17       -63.1110  272.6350   52.8380 ca        1 ARQ     -0.106500
     25 C18       -63.1150  272.1350   51.5370 ca        1 ARQ     -0.118500
     26 C19       -62.2730  271.0780   51.1890 ca        1 ARQ     -0.067000
     27 C20       -61.4170  271.0110   53.4490 ca        1 ARQ     -0.106500
     28 C21       -61.4230  270.5180   52.1460 ca        1 ARQ     -0.118500
     29 N3        -64.5540  272.3770   55.6050 n8        1 ARQ     -0.253000
     30 C23       313.0110-1356.9040 -291.0560 c1        1 ARQ      0.469000
     31 O2        313.1190-1357.8220 -291.7560 o         1 ARQ      0.081000
     32 C27       312.8820-1355.8070 -290.2190 ca        1 ARQ     -0.200000
     33 C26       313.1260-1355.9490 -288.8280 ca        1 ARQ     -0.003000
     34 C25       312.9920-1354.8430 -288.0030 ca        1 ARQ     -0.138000
     35 C24       312.6220-1353.6010 -288.5350 ca        1 ARQ      0.017000
     36 C28       312.5070-1354.5490 -290.7580 ca        1 ARQ     -0.003000
     37 C29       312.3810-1353.4610 -289.9080 ca        1 ARQ     -0.138000
     38 H21A      -59.3760  269.9540   60.0950 hc        1 ARQ      0.116889
     39 H22       -60.1120  269.8410   61.7590 hc        1 ARQ      0.116889
     40 H23       -58.4040  269.3010   61.4790 hc        1 ARQ      0.116889
     41 H31       -59.0420  267.8890   58.7280 hc        1 ARQ      0.116889
     42 H32       -58.0380  267.1080   60.0200 hc        1 ARQ      0.116889
     43 H33       -59.5160  266.2620   59.3980 hc        1 ARQ      0.116889
     44 H41       -60.4300  266.0820   61.7460 hc        1 ARQ      0.116889
     45 H42       -60.6670  267.5860   62.7410 hc        1 ARQ      0.116889
     46 H43       -58.9880  266.9620   62.4220 hc        1 ARQ      0.116889
     47 HN1       -63.6210  269.3300   59.4420 hn        1 ARQ      0.281000
     48 H5        -62.6490  268.2030   56.9370 hx        1 ARQ      0.169000
     49 H61       -64.7820  267.3140   56.1830 hc        1 ARQ      0.126000
     50 H62       -65.6320  267.7720   57.7210 hc        1 ARQ      0.126000
     51 H8        -65.5900  266.3140   59.6060 ha        1 ARQ      0.135000
     52 H9        -65.0310  264.0790   60.5360 ha        1 ARQ      0.165000
     53 H10       -63.4710  262.5630   59.3070 ha        1 ARQ      0.169000
     54 H11       -62.9870  265.5520   56.2220 ha        1 ARQ      0.135000
     55 H12       -62.4500  263.3060   57.1500 ha        1 ARQ      0.165000
     56 H13       -64.8090  269.6170   56.1510 h1        1 ARQ      0.133000
     57 HO1       -65.6830  270.2430   58.0800 ho        1 ARQ      0.254000
     58 H141      -62.5650  270.2230   55.5290 hx        1 ARQ      0.165000
     59 H142      -62.1000  270.7280   57.2290 hx        1 ARQ      0.165000
     60 H221      -63.7910  272.5950   58.2090 hx        1 ARQ      0.147667
     61 H222      -63.3640  274.0610   57.1910 hx        1 ARQ      0.147667
     62 H223      -62.0390  272.9160   57.7390 hx        1 ARQ      0.147667
     63 H151      -62.3130  273.7900   55.0990 hx        1 ARQ      0.152500
     64 H152      -61.1980  272.4280   55.6510 hx        1 ARQ      0.152500
     65 H17       -63.7500  273.4970   53.0930 ha        1 ARQ      0.143000
     66 H18       -63.7730  272.5900   50.7760 ha        1 ARQ      0.167000
     67 H19       -62.2670  270.6930   50.1550 ha        1 ARQ      0.171000
     68 H20       -60.7130  270.5920   54.1850 ha        1 ARQ      0.143000
     69 H21       -60.7420  269.6990   51.8640 ha        1 ARQ      0.167000
     70 HN3       -65.2600  272.0440   56.2500 hn        1 ARQ      0.203500
     71 H26       313.4180-1356.9270 -288.4080 ha        1 ARQ      0.175000
     72 H25       313.1800-1354.9430 -286.9180 ha        1 ARQ      0.190000
     73 H24       312.5180-1352.7260 -287.8670 ha        1 ARQ      0.186000
     74 H28       312.3170-1354.4380 -291.8390 ha        1 ARQ      0.175000
     75 H29       312.0890-1352.4770 -290.3180 ha        1 ARQ      0.190000
     76 H121      -63.4890  267.6550   59.4440 hn        1 ARQ      0.281000
     77 H321      -64.6340  271.9080   54.7110 hn        1 ARQ      0.203500
@<TRIPOS>BOND
     1    1    2 1   
     2    1    3 1   
     3    1    4 1   
     4    1    5 1   
     5    2   38 1   
     6    2   39 1   
     7    2   40 1   
     8    3   41 1   
     9    3   42 1   
    10    3   43 1   
    11    4   44 1   
    12    4   45 1   
    13    4   46 1   
    14    5    6 1   
    15    6    7 1   
    16    6    8 1   
    17    8    9 1   
    18    8   47 1   
    19    8   76 1   
    20    9   10 1   
    21    9   17 1   
    22    9   48 1   
    23   10   11 1   
    24   10   49 1   
    25   10   50 1   
    26   11   12 1   
    27   11   15 1   
    28   12   13 1   
    29   12   51 1   
    30   13   14 1   
    31   13   52 1   
    32   14   16 1   
    33   14   53 1   
    34   15   16 1   
    35   15   54 1   
    36   16   55 1   
    37   17   18 1   
    38   17   19 1   
    39   17   56 1   
    40   18   57 1   
    41   19   20 1   
    42   19   58 1   
    43   19   59 1   
    44   20   21 1   
    45   20   22 1   
    46   20   29 1   
    47   21   60 1   
    48   21   61 1   
    49   21   62 1   
    50   22   23 1   
    51   22   63 1   
    52   22   64 1   
    53   23   24 1   
    54   23   27 1   
    55   24   25 1   
    56   24   65 1   
    57   25   26 1   
    58   25   66 1   
    59   26   28 1   
    60   26   67 1   
    61   27   28 1   
    62   27   68 1   
    63   28   69 1   
    64   29   70 1   
    65   29   77 1   
    66   30   31 1   
    67   30   32 1   
    68   32   33 1   
    69   32   36 1   
    70   33   34 1   
    71   33   71 1   
    72   34   35 1   
    73   34   72 1   
    74   35   37 1   
    75   35   73 1   
    76   36   37 1   
    77   36   74 1   
    78   37   75 1   
@<TRIPOS>SUBSTRUCTURE
     1 ARQ         1 TEMP              0 ****  ****    0 ROOT
