@<TRIPOS>MOLECULE
ARQ
   77    78     1     0     0
SMALL
bcc


@<TRIPOS>ATOM
      1 C1       -104.2290  387.8710   91.0470 c3        1 ARQ      0.141000
      2 C2       -105.4690  388.6080   90.6020 c3        1 ARQ     -0.251000
      3 C3       -102.9980  388.7450   91.0900 c3        1 ARQ     -0.251000
      4 C4       -104.4410  387.1000   92.3380 c3        1 ARQ     -0.251000
      5 O4       -103.9760  386.7300   90.0840 os        1 ARQ     -0.251000
      6 C30      -103.7280  386.9810   88.8070 c2        1 ARQ      0.372000
      7 O3       -103.6800  388.0530   88.2130 o         1 ARQ     -0.296000
      8 N1       -103.5060  385.6790   88.0740 n4        1 ARQ     -0.088000
      9 C5       -102.4960  385.7710   86.9630 c3        1 ARQ     -0.096000
     10 C6       -101.5590  384.5450   86.9740 c3        1 ARQ     -0.133000
     11 C7       -100.9860  384.2770   88.3180 ca        1 ARQ     -0.173000
     12 C8       -101.5020  383.2390   89.1070 ca        1 ARQ     -0.129000
     13 C9       -100.9250  382.9480   90.3420 ca        1 ARQ     -0.108000
     14 C10       -99.8300  383.6860   90.7960 ca        1 ARQ     -0.085000
     15 C11       -99.8850  385.0110   88.7740 ca        1 ARQ     -0.129000
     16 C12       -99.3110  384.7170   90.0100 ca        1 ARQ     -0.108000
     17 C13      -103.1420  385.8840   85.5500 c3        1 ARQ     -0.002000
     18 O1       -104.3670  385.1780   85.4890 oh        1 ARQ     -0.348000
     19 C14      -103.4100  387.3580   85.1990 c3        1 ARQ     -0.186000
     20 N2       -104.2480  387.6130   83.9560 n4        1 ARQ      0.077000
     21 C22      -105.7120  387.6060   84.3570 c3        1 ARQ     -0.168000
     22 C15      -103.9410  389.0640   83.4810 c3        1 ARQ     -0.033000
     23 C16      -102.5800  389.2400   82.9170 ca        1 ARQ     -0.199000
     24 C17      -102.3410  388.9680   81.5620 ca        1 ARQ     -0.106500
     25 C18      -101.0890  389.2290   81.0080 ca        1 ARQ     -0.118500
     26 C19      -100.0730  389.7720   81.7970 ca        1 ARQ     -0.067000
     27 C20      -101.5580  389.7910   83.7050 ca        1 ARQ     -0.106500
     28 C21      -100.3100  390.0530   83.1450 ca        1 ARQ     -0.118500
     29 N3       -104.0450  386.7050   82.8970 n3        1 ARQ     -0.253000
     30 C23       510.1350-1935.0860 -433.1380 c1        1 ARQ      0.469000
     31 O2        509.6270-1934.9760 -432.1010 o         1 ARQ      0.081000
     32 C27       510.7420-1935.2190 -434.3760 ca        1 ARQ     -0.200000
     33 C26       510.8570-1934.0910 -435.2300 ca        1 ARQ     -0.003000
     34 C25       511.4670-1934.2380 -436.4660 ca        1 ARQ     -0.138000
     35 C24       511.9640-1935.4850 -436.8680 ca        1 ARQ      0.017000
     36 C28       511.2450-1936.4820 -434.7840 ca        1 ARQ     -0.003000
     37 C29       511.8500-1936.5990 -436.0260 ca        1 ARQ     -0.138000
     38 H21A     -105.7340  389.3700   91.3790 hc        1 ARQ      0.116889
     39 H22      -106.3300  387.9060   90.4910 hc        1 ARQ      0.116889
     40 H23      -105.2950  389.1390   89.6350 hc        1 ARQ      0.116889
     41 H31      -102.0900  388.1400   91.3280 hc        1 ARQ      0.116889
     42 H32      -103.1300  389.5150   91.8920 hc        1 ARQ      0.116889
     43 H33      -102.8460  389.2730   90.1170 hc        1 ARQ      0.116889
     44 H41      -103.5320  386.5070   92.6000 hc        1 ARQ      0.116889
     45 H42      -105.3130  386.4090   92.2490 hc        1 ARQ      0.116889
     46 H43      -104.6430  387.8370   93.1550 hc        1 ARQ      0.116889
     47 HN1      -104.4120  385.3710   87.6910 hn        1 ARQ      0.281000
     48 H5       -101.8760  386.6990   87.1530 hx        1 ARQ      0.169000
     49 H61      -102.1170  383.6440   86.5980 hc        1 ARQ      0.126000
     50 H62      -100.7280  384.7590   86.2460 hc        1 ARQ      0.126000
     51 H8       -102.3310  382.6180   88.7370 ha        1 ARQ      0.135000
     52 H9       -101.3220  382.1200   90.9530 ha        1 ARQ      0.165000
     53 H10       -99.3650  383.4430   91.7660 ha        1 ARQ      0.169000
     54 H11       -99.4530  385.8070   88.1470 ha        1 ARQ      0.135000
     55 H12       -98.4350  385.2880   90.3590 ha        1 ARQ      0.165000
     56 H13      -102.3980  385.4540   84.8170 h1        1 ARQ      0.133000
     57 HO1      -104.1740  384.2420   85.3220 ho        1 ARQ      0.254000
     58 H141     -102.4030  387.8500   85.0420 hx        1 ARQ      0.165000
     59 H142     -103.9270  387.8720   86.0590 hx        1 ARQ      0.165000
     60 H221     -105.8770  388.4350   85.0930 hx        1 ARQ      0.147667
     61 H222     -106.3510  387.7760   83.4470 hx        1 ARQ      0.147667
     62 H223     -105.9720  386.6160   84.8180 hx        1 ARQ      0.147667
     63 H151     -104.0940  389.7110   84.3890 hx        1 ARQ      0.152500
     64 H152     -104.7220  389.3080   82.7020 hx        1 ARQ      0.152500
     65 H17      -103.1490  388.5780   80.9220 ha        1 ARQ      0.143000
     66 H18      -100.9080  389.0250   79.9400 ha        1 ARQ      0.167000
     67 H19       -99.0870  389.9920   81.3530 ha        1 ARQ      0.171000
     68 H20      -101.7480  390.0560   84.7570 ha        1 ARQ      0.143000
     69 H21       -99.5140  390.5040   83.7610 ha        1 ARQ      0.167000
     70 HN3      -103.0930  386.7770   82.5580 hn        1 ARQ      0.203500
     71 H26       510.4660-1933.1080 -434.9140 ha        1 ARQ      0.175000
     72 H25       511.5610-1933.3650 -437.1380 ha        1 ARQ      0.190000
     73 H24       512.4480-1935.5910 -437.8570 ha        1 ARQ      0.186000
     74 H28       511.1570-1937.3600 -434.1210 ha        1 ARQ      0.175000
     75 H29       512.2450-1937.5780 -436.3520 ha        1 ARQ      0.190000
     76 H121     -103.1840  384.9730   88.7650 hn        1 ARQ      0.281000
     77 H321     -104.2450  385.7630   83.2090 hn        1 ARQ      0.203500
@<TRIPOS>BOND
     1    1    2 1   
     2    1    3 1   
     3    1    4 1   
     4    1    5 1   
     5    2   38 1   
     6    2   39 1   
     7    2   40 1   
     8    3   41 1   
     9    3   42 1   
    10    3   43 1   
    11    4   44 1   
    12    4   45 1   
    13    4   46 1   
    14    5    6 1   
    15    6    7 1   
    16    6    8 1   
    17    8    9 1   
    18    8   47 1   
    19    8   76 1   
    20    9   10 1   
    21    9   17 1   
    22    9   48 1   
    23   10   11 1   
    24   10   49 1   
    25   10   50 1   
    26   11   12 1   
    27   11   15 1   
    28   12   13 1   
    29   12   51 1   
    30   13   14 1   
    31   13   52 1   
    32   14   16 1   
    33   14   53 1   
    34   15   16 1   
    35   15   54 1   
    36   16   55 1   
    37   17   18 1   
    38   17   19 1   
    39   17   56 1   
    40   18   57 1   
    41   19   20 1   
    42   19   58 1   
    43   19   59 1   
    44   20   21 1   
    45   20   22 1   
    46   20   29 1   
    47   21   60 1   
    48   21   61 1   
    49   21   62 1   
    50   22   23 1   
    51   22   63 1   
    52   22   64 1   
    53   23   24 1   
    54   23   27 1   
    55   24   25 1   
    56   24   65 1   
    57   25   26 1   
    58   25   66 1   
    59   26   28 1   
    60   26   67 1   
    61   27   28 1   
    62   27   68 1   
    63   28   69 1   
    64   29   70 1   
    65   29   77 1   
    66   30   31 1   
    67   30   32 1   
    68   32   33 1   
    69   32   36 1   
    70   33   34 1   
    71   33   71 1   
    72   34   35 1   
    73   34   72 1   
    74   35   37 1   
    75   35   73 1   
    76   36   37 1   
    77   36   74 1   
    78   37   75 1   
@<TRIPOS>SUBSTRUCTURE
     1 ARQ         1 TEMP              0 ****  ****    0 ROOT
