@<TRIPOS>MOLECULE
ARQ
   75    77     1     0     0
SMALL
bcc


@<TRIPOS>ATOM
      1 C1          4.6310   -2.4320   -0.0330 c3        1 ARQ      0.185800
      2 C2          3.8280   -3.5810   -0.6140 c3        1 ARQ     -0.115433
      3 C3          4.5510   -2.3910    1.4820 c3        1 ARQ     -0.115433
      4 C4          6.0850   -2.5030   -0.4950 c3        1 ARQ     -0.115433
      5 O4          4.1890   -1.1590   -0.5970 os        1 ARQ     -0.427900
      6 C30         2.9060   -0.7450   -0.4180 c         1 ARQ      0.743100
      7 O3          2.0770   -1.4100    0.2350 o         1 ARQ     -0.636000
      8 N1          2.6260    0.4320   -1.1160 n         1 ARQ     -0.532900
      9 C5          1.5400    1.2730   -0.6470 c3        1 ARQ      0.067700
     10 C6          1.8200    2.7730   -0.8680 c3        1 ARQ     -0.045100
     11 C7          3.1100    3.1990   -0.2640 ca        1 ARQ     -0.118300
     12 C8          4.2460    3.3600   -1.0650 ca        1 ARQ     -0.126500
     13 C9          5.4500    3.7780   -0.5000 ca        1 ARQ     -0.119000
     14 C10         5.5280    4.0360    0.8690 ca        1 ARQ     -0.112000
     15 C11         3.1930    3.4640    1.1090 ca        1 ARQ     -0.126500
     16 C12         4.3980    3.8800    1.6710 ca        1 ARQ     -0.119000
     17 C13         0.1890    0.9480   -1.3520 c3        1 ARQ      0.129100
     18 O1          0.2360    1.0900   -2.7530 oh        1 ARQ     -0.594800
     19 C14        -0.2510   -0.4710   -0.9630 c3        1 ARQ      0.085800
     20 N2         -1.7040   -0.8260   -1.2760 n4        1 ARQ     -0.400800
     21 C22        -1.8970   -0.7430   -2.7760 c3        1 ARQ      0.103100
     22 C15        -1.9030   -2.3040   -0.8840 c3        1 ARQ      0.158100
     23 C16        -1.9110   -2.5440    0.5840 ca        1 ARQ     -0.186300
     24 C17        -3.1340   -2.5810    1.2670 ca        1 ARQ     -0.104500
     25 C18        -3.1660   -2.8860    2.6260 ca        1 ARQ     -0.125000
     26 C19        -1.9790   -3.1560    3.3090 ca        1 ARQ     -0.086000
     27 C20        -0.7220   -2.8170    1.2700 ca        1 ARQ     -0.104500
     28 C21        -0.7600   -3.1210    2.6310 ca        1 ARQ     -0.125000
     29 N3         -2.5760    0.0610   -0.5950 n         1 ARQ     -0.424300
     30 C23        -4.0120   -0.0300   -0.7630 c         1 ARQ      0.666700
     31 O2         -4.5130   -0.8680   -1.5240 o         1 ARQ     -0.547100
     32 C27        -4.7940    0.9610    0.0060 ca        1 ARQ     -0.175600
     33 C26        -6.1310    0.6390    0.2860 ca        1 ARQ     -0.072500
     34 C25        -6.9270    1.5380    0.9920 ca        1 ARQ     -0.133500
     35 C24        -6.4000    2.7610    1.4100 ca        1 ARQ     -0.072000
     36 C28        -4.2680    2.1930    0.4170 ca        1 ARQ     -0.072500
     37 C29        -5.0740    3.0870    1.1180 ca        1 ARQ     -0.133500
     38 H21A        2.7810   -3.5640   -0.2270 hc        1 ARQ      0.056589
     39 H22         3.8060   -3.5110   -1.7280 hc        1 ARQ      0.056589
     40 H23         4.3050   -4.5470   -0.3220 hc        1 ARQ      0.056589
     41 H31         5.0330   -3.3060    1.9010 hc        1 ARQ      0.056589
     42 H32         5.0830   -1.4910    1.8720 hc        1 ARQ      0.056589
     43 H33         3.4870   -2.3560    1.8190 hc        1 ARQ      0.056589
     44 H41         6.1380   -2.5090   -1.6090 hc        1 ARQ      0.056589
     45 H42         6.6550   -1.6230   -0.1130 hc        1 ARQ      0.056589
     46 H43         6.5440   -3.4390   -0.0980 hc        1 ARQ      0.056589
     47 HN1         3.4290    0.9260   -1.4550 hn        1 ARQ      0.333500
     48 H5          1.3790    1.1010    0.4610 h1        1 ARQ      0.073700
     49 H61         1.8090    2.9920   -1.9700 hc        1 ARQ      0.071700
     50 H62         0.9760    3.3490   -0.4020 hc        1 ARQ      0.071700
     51 H8          4.1870    3.1750   -2.1490 ha        1 ARQ      0.130500
     52 H9          6.3380    3.9080   -1.1370 ha        1 ARQ      0.144000
     53 H10         6.4780    4.3690    1.3130 ha        1 ARQ      0.146000
     54 H11         2.3010    3.3500    1.7430 ha        1 ARQ      0.130500
     55 H12         4.4550    4.0910    2.7500 ha        1 ARQ      0.144000
     56 H13        -0.5660    1.7180   -1.0190 h1        1 ARQ      0.100700
     57 HO1         1.0600    0.7050   -3.0820 ho        1 ARQ      0.427000
     58 H141        0.3790   -1.2220   -1.5210 hx        1 ARQ      0.118200
     59 H142       -0.0810   -0.6300    0.1430 hx        1 ARQ      0.118200
     60 H221       -1.0790   -1.3400   -3.2550 hx        1 ARQ      0.109033
     61 H222       -2.9010   -1.1610   -3.0550 hx        1 ARQ      0.109033
     62 H223       -1.8210    0.3280   -3.1100 hx        1 ARQ      0.109033
     63 H151       -2.8890   -2.6250   -1.3370 hx        1 ARQ      0.110700
     64 H152       -1.0670   -2.8770   -1.3760 hx        1 ARQ      0.110700
     65 H17        -4.0740   -2.3890    0.7230 ha        1 ARQ      0.152500
     66 H18        -4.1300   -2.9230    3.1580 ha        1 ARQ      0.155000
     67 H19        -2.0060   -3.4040    4.3820 ha        1 ARQ      0.155000
     68 H20         0.2490   -2.7980    0.7440 ha        1 ARQ      0.152500
     69 H21         0.1770   -3.3390    3.1670 ha        1 ARQ      0.155000
     70 HN3        -2.3180    0.1090    0.3840 hn        1 ARQ      0.324500
     71 H26        -6.5470   -0.3200   -0.0640 ha        1 ARQ      0.149500
     72 H25        -7.9760    1.2840    1.2130 ha        1 ARQ      0.155500
     73 H24        -7.0320    3.4730    1.9650 ha        1 ARQ      0.156000
     74 H28        -3.2340    2.4810    0.1750 ha        1 ARQ      0.149500
     75 H29        -4.6650    4.0590    1.4360 ha        1 ARQ      0.155500
@<TRIPOS>BOND
     1    1    2 1   
     2    1    3 1   
     3    1    4 1   
     4    1    5 1   
     5    2   38 1   
     6    2   39 1   
     7    2   40 1   
     8    3   41 1   
     9    3   42 1   
    10    3   43 1   
    11    4   44 1   
    12    4   45 1   
    13    4   46 1   
    14    5    6 1   
    15    6    7 2   
    16    6    8 1   
    17    8    9 1   
    18    8   47 1   
    19    9   10 1   
    20    9   17 1   
    21    9   48 1   
    22   10   11 1   
    23   10   49 1   
    24   10   50 1   
    25   11   12 ar  
    26   11   15 ar  
    27   12   13 ar  
    28   12   51 1   
    29   13   14 ar  
    30   13   52 1   
    31   14   16 ar  
    32   14   53 1   
    33   15   16 ar  
    34   15   54 1   
    35   16   55 1   
    36   17   18 1   
    37   17   19 1   
    38   17   56 1   
    39   18   57 1   
    40   19   20 1   
    41   19   58 1   
    42   19   59 1   
    43   20   21 1   
    44   20   22 1   
    45   20   29 1   
    46   21   60 1   
    47   21   61 1   
    48   21   62 1   
    49   22   23 1   
    50   22   63 1   
    51   22   64 1   
    52   23   24 ar  
    53   23   27 ar  
    54   24   25 ar  
    55   24   65 1   
    56   25   26 ar  
    57   25   66 1   
    58   26   28 ar  
    59   26   67 1   
    60   27   28 ar  
    61   27   68 1   
    62   28   69 1   
    63   29   30 1   
    64   29   70 1   
    65   30   31 2   
    66   30   32 1   
    67   32   33 ar  
    68   32   36 ar  
    69   33   34 ar  
    70   33   71 1   
    71   34   35 ar  
    72   34   72 1   
    73   35   37 ar  
    74   35   73 1   
    75   36   37 ar  
    76   36   74 1   
    77   37   75 1   
@<TRIPOS>SUBSTRUCTURE
     1 ARQ         1 TEMP              0 ****  ****    0 ROOT
