@<TRIPOS>MOLECULE
ARQ
   75    71     1     0     0
SMALL
bcc


@<TRIPOS>ATOM
      1 C1         -1.3930    4.7040    0.2980 c3        1 ARQ      0.114000
      2 C2          0.0680    4.6090   -0.0920 c3        1 ARQ     -0.233667
      3 C3         -1.5580    5.7580    1.4080 c3        1 ARQ     -0.233667
      4 C4         -2.2400    5.1200   -0.9500 c3        1 ARQ     -0.233667
      5 O4         -1.8510    3.4100    0.7840 os        1 ARQ     -0.266000
      6 C30        -0.8720    2.6940    1.5520 c2        1 ARQ      0.395000
      7 O3          0.1960    3.2140    1.8080 o         1 ARQ     -0.438000
      8 N1         -1.2080    1.4130    2.1320 n         1 ARQ     -0.341000
      9 C5         -0.2340    0.3790    2.1850 c3        1 ARQ     -0.009000
     10 C6         -0.3420   -0.3540    3.5170 c3        1 ARQ     -0.130000
     11 C7          0.7160    0.2210    4.5110 c2        1 ARQ     -0.111000
     12 C8          0.3090    0.9820    5.5880 c2        1 ARQ     -0.130000
     13 C9          1.2330    1.3950    6.5320 c1        1 ARQ     -0.118000
     14 C10         2.5680    1.0450    6.3960 c1        1 ARQ     -0.107500
     15 C11         2.0450   -0.1270    4.3780 c1        1 ARQ     -0.122000
     16 C12         2.9720    0.2880    5.3260 c1        1 ARQ     -0.107500
     17 C13        -0.4670   -0.6020    1.0370 c3        1 ARQ      0.012000
     18 O1         -1.5380   -0.1720    0.2720 oh        1 ARQ     -0.319000
     19 C14         0.7790   -0.6670    0.1680 c3        1 ARQ     -0.162000
     20 N2          0.6180   -1.7150   -0.8360 n4        1 ARQ      0.118000
     21 C22        -0.7070   -1.8690   -1.1250 c3        1 ARQ     -0.166000
     22 C15         1.1460   -2.9530   -0.3230 c3        1 ARQ     -0.080000
     23 C16         0.1690   -4.1270   -0.6780 c2        1 ARQ     -0.156000
     24 C17         0.6650   -5.2890   -1.3260 c2        1 ARQ     -0.102000
     25 C18        -0.1770   -6.4000   -1.5160 c1        1 ARQ     -0.122000
     26 C19        -1.5150   -6.3600   -1.0630 c1        1 ARQ     -0.107500
     27 C20        -1.1590   -4.0890   -0.2290 c1        1 ARQ     -0.109000
     28 C21        -2.0050   -5.2090   -0.4220 c1        1 ARQ     -0.107500
     29 N3          1.3200   -1.3530   -2.0180 n         1 ARQ     -0.333000
     30 C23         0.8510   -1.8150   -3.3010 c2        1 ARQ      0.351000
     31 O2          0.5660   -2.9870   -3.4560 o         1 ARQ     -0.310000
     32 C27         0.7750   -0.8360   -4.4980 c2        1 ARQ     -0.158000
     33 C26         1.5670   -1.0550   -5.6280 c2        1 ARQ     -0.063000
     34 C25         1.4440   -0.2290   -6.7290 c1        1 ARQ     -0.130000
     35 C24         0.5230    0.8310   -6.7160 c1        1 ARQ     -0.107500
     36 C28        -0.1380    0.2120   -4.4820 c1        1 ARQ     -0.085000
     37 C29        -0.2620    1.0490   -5.6000 c1        1 ARQ     -0.107500
     38 H21A        0.2280    3.7540   -0.5590 hc        1 ARQ      0.096444
     39 H22         0.6320    4.6520    0.7220 hc        1 ARQ      0.096444
     40 H23         0.2970    5.3580   -0.6900 hc        1 ARQ      0.096444
     41 H31        -2.4220    5.6500    1.8320 hc        1 ARQ      0.096444
     42 H32        -0.8550    5.6450    2.0700 hc        1 ARQ      0.096444
     43 H33        -1.4960    6.6510    1.0190 hc        1 ARQ      0.096444
     44 H41        -3.1900    5.1430   -0.7090 hc        1 ARQ      0.096444
     45 H42        -1.9560    6.0180   -1.2590 hc        1 ARQ      0.096444
     46 H43        -2.0990    4.4600   -1.6810 hc        1 ARQ      0.096444
     47 HN1        -2.0300    1.2720    2.4610 hn        1 ARQ      0.246000
     48 H5          0.6630    0.7720    2.1000 h1        1 ARQ      0.113000
     49 H61        -0.1760   -1.3050    3.3790 hc        1 ARQ      0.109500
     50 H62        -1.2580   -0.2270    3.8950 hc        1 ARQ      0.109500
     51 H8         -0.6250    1.2280    5.6820 ha        1 ARQ      0.132000
     52 H9          0.9460    1.9330    7.2930 ha        1 ARQ      0.145000
     53 H10         3.2270    1.3390    7.0690 ha        1 ARQ      0.151500
     54 H11         2.3340   -0.6650    3.6170 ha        1 ARQ      0.128000
     55 H12         3.9210    0.0400    5.2300 ha        1 ARQ      0.151500
     56 H13        -0.6570   -1.4760    1.3930 h1        1 ARQ      0.137000
     57 HO1        -1.4050    0.6820    0.0230 ho        1 ARQ      0.229000
     58 H141        0.9130    0.2060   -0.2830 hx        1 ARQ      0.160000
     59 H142        1.5540   -0.8680    0.7260 hx        1 ARQ      0.160000
     60 H221       -1.2120   -1.9820   -0.2910 hx        1 ARQ      0.148667
     61 H222       -1.0300   -1.0850   -1.5940 hx        1 ARQ      0.148667
     62 H223       -0.8280   -2.6680   -1.6960 hx        1 ARQ      0.148667
     63 H151        2.0280   -3.1260   -0.7280 hx        1 ARQ      0.138000
     64 H152        1.2410   -2.8870    0.6600 hx        1 ARQ      0.138000
     65 H17         1.5990   -5.3170   -1.6420 ha        1 ARQ      0.161000
     66 H18         0.1700   -7.2150   -1.9700 ha        1 ARQ      0.157000
     67 H19        -2.0980   -7.1280   -1.1940 ha        1 ARQ      0.151500
     68 H20        -1.5040   -3.2820    0.2210 ha        1 ARQ      0.130000
     69 H21        -2.9420   -5.1810   -0.1040 ha        1 ARQ      0.151500
     70 HN3         2.1200   -0.8930   -1.9570 hn        1 ARQ      0.249000
     71 H26         2.2190   -1.8030   -5.6400 ha        1 ARQ      0.159000
     72 H25         2.0040   -0.3850   -7.5270 ha        1 ARQ      0.158000
     73 H24         0.4370    1.4200   -7.5030 ha        1 ARQ      0.151500
     74 H28        -0.7030    0.3680   -3.6770 ha        1 ARQ      0.142000
     75 H29        -0.9100    1.7940   -5.5910 ha        1 ARQ      0.151500
@<TRIPOS>BOND
     1    1    2 1   
     2    1    3 1   
     3    1    4 1   
     4    1    5 1   
     5    2   38 1   
     6    2   39 1   
     7    2   40 1   
     8    3   41 1   
     9    3   42 1   
    10    3   43 1   
    11    4   44 1   
    12    4   45 1   
    13    4   46 1   
    14    5    6 1   
    15    6    7 1   
    16    6    8 1   
    17    8    9 1   
    18    8   47 1   
    19    9   10 1   
    20    9   17 1   
    21    9   48 1   
    22   10   11 1   
    23   10   49 1   
    24   10   50 1   
    25   11   12 1   
    26   11   15 1   
    27   12   13 1   
    28   12   51 1   
    29   13   52 1   
    30   14   16 1   
    31   14   53 1   
    32   15   54 1   
    33   16   55 1   
    34   17   18 1   
    35   17   19 1   
    36   17   56 1   
    37   18   57 1   
    38   19   20 1   
    39   19   58 1   
    40   19   59 1   
    41   20   21 1   
    42   20   22 1   
    43   20   29 1   
    44   21   60 1   
    45   21   61 1   
    46   21   62 1   
    47   22   23 1   
    48   22   63 1   
    49   22   64 1   
    50   23   24 1   
    51   23   27 1   
    52   24   25 1   
    53   24   65 1   
    54   25   66 1   
    55   26   28 1   
    56   26   67 1   
    57   27   68 1   
    58   28   69 1   
    59   29   30 1   
    60   29   70 1   
    61   30   31 1   
    62   30   32 1   
    63   32   33 1   
    64   32   36 1   
    65   33   34 1   
    66   33   71 1   
    67   34   72 1   
    68   35   37 1   
    69   35   73 1   
    70   36   74 1   
    71   37   75 1   
@<TRIPOS>SUBSTRUCTURE
     1 ARQ         1 TEMP              0 ****  ****    0 ROOT
