@<TRIPOS>MOLECULE
ARR
   45    47     1     0     0
SMALL
bcc


@<TRIPOS>ATOM
      1 S          -0.0880    1.6940   -7.1070 ss        1 ARR      0.104200
      2 C1         -0.1520    1.4490   -8.7490 cc        1 ARR     -0.180100
      3 C2          0.1940    0.1570   -9.0940 cd        1 ARR     -0.159000
      4 C3          0.5140   -0.6210   -7.9420 cd        1 ARR     -0.133000
      5 C4          0.3910    0.1240   -6.7790 cc        1 ARR     -0.257000
      6 C5          0.6840   -0.3980   -5.4250 ce        1 ARR      0.678800
      7 N3          1.6900   -1.1680   -5.1460 n2        1 ARR     -0.804100
      8 N1         -0.2370    0.0770   -4.4460 nh        1 ARR     -0.682600
      9 C6         -0.1360   -0.3150   -3.0890 ca        1 ARR      0.129600
     10 C10         1.0650   -0.1590   -2.3660 ca        1 ARR     -0.144000
     11 C11         1.1080   -0.4590   -1.0100 ca        1 ARR     -0.109000
     12 C9         -0.0290   -0.9110   -0.3320 ca        1 ARR     -0.100300
     13 C8         -1.2220   -1.0640   -1.0440 ca        1 ARR     -0.109000
     14 C7         -1.2810   -0.7790   -2.4030 ca        1 ARR     -0.144000
     15 C12         0.0360   -1.2370    1.1180 c3        1 ARR     -0.036100
     16 C13         0.0450    0.0470    1.9530 c3        1 ARR      0.165800
     17 N2          0.0810   -0.2100    3.3790 n3        1 ARR     -0.826200
     18 C14         0.2400    1.0000    4.1640 c3        1 ARR      0.208100
     19 C15         0.5250    0.7390    5.6140 ca        1 ARR     -0.085300
     20 C20        -0.2770   -0.1470    6.3420 ca        1 ARR     -0.105000
     21 C19        -0.0180   -0.3520    7.7000 ca        1 ARR      0.013400
     22 C18         1.0290    0.3190    8.3390 ca        1 ARR     -0.123000
     23 C17         1.8210    1.2010    7.6060 ca        1 ARR     -0.124000
     24 C16         1.5740    1.4100    6.2500 ca        1 ARR     -0.126000
     25 CL         -0.9900   -1.4310    8.5860 cl        1 ARR     -0.096400
     26 H1         -0.4330    2.2310   -9.4540 h4        1 ARR      0.175000
     27 H2          0.2240   -0.2380  -10.1110 ha        1 ARR      0.158000
     28 H3          0.8110   -1.6710   -7.9880 ha        1 ARR      0.159000
     29 HN3         2.2890   -1.3560   -5.9220 hn        1 ARR      0.400400
     30 HN1        -1.1790    0.0490   -4.7890 hn        1 ARR      0.410800
     31 H10         1.9780    0.1950   -2.8690 ha        1 ARR      0.139000
     32 H11         2.0550   -0.3380   -0.4600 ha        1 ARR      0.132500
     33 H8         -2.1260   -1.4210   -0.5270 ha        1 ARR      0.132500
     34 H7         -2.2340   -0.9150   -2.9370 ha        1 ARR      0.139000
     35 H121        0.9660   -1.8320    1.3250 hc        1 ARR      0.054200
     36 H122       -0.8400   -1.8730    1.4120 hc        1 ARR      0.054200
     37 H131       -0.8960    0.6290    1.7400 h1        1 ARR      0.033700
     38 H132        0.9150    0.6840    1.6100 h1        1 ARR      0.033700
     39 HN2         0.7950   -0.8770    3.6040 hn        1 ARR      0.361800
     40 H141       -0.7300    1.5740    4.0900 h1        1 ARR      0.040200
     41 H142        1.0520    1.6710    3.7480 h1        1 ARR      0.040200
     42 H20        -1.1050   -0.6760    5.8440 ha        1 ARR      0.163000
     43 H18         1.2270    0.1540    9.4090 ha        1 ARR      0.146000
     44 H17         2.6460    1.7330    8.1020 ha        1 ARR      0.137000
     45 H16         2.2070    2.1070    5.6800 ha        1 ARR      0.135000
@<TRIPOS>BOND
     1    1    2 1   
     2    1    5 1   
     3    2    3 2   
     4    2   26 1   
     5    3    4 1   
     6    3   27 1   
     7    4    5 2   
     8    4   28 1   
     9    5    6 1   
    10    6    7 2   
    11    6    8 1   
    12    7   29 1   
    13    8    9 1   
    14    8   30 1   
    15    9   10 ar  
    16    9   14 ar  
    17   10   11 ar  
    18   10   31 1   
    19   11   12 ar  
    20   11   32 1   
    21   12   13 ar  
    22   12   15 1   
    23   13   14 ar  
    24   13   33 1   
    25   14   34 1   
    26   15   16 1   
    27   15   35 1   
    28   15   36 1   
    29   16   17 1   
    30   16   37 1   
    31   16   38 1   
    32   17   18 1   
    33   17   39 1   
    34   18   19 1   
    35   18   40 1   
    36   18   41 1   
    37   19   20 ar  
    38   19   24 ar  
    39   20   21 ar  
    40   20   42 1   
    41   21   22 ar  
    42   21   25 1   
    43   22   23 ar  
    44   22   43 1   
    45   23   24 ar  
    46   23   44 1   
    47   24   45 1   
@<TRIPOS>SUBSTRUCTURE
     1 ARR         1 TEMP              0 ****  ****    0 ROOT
