@<TRIPOS>MOLECULE
ARR
   45    38     1     0     0
SMALL
bcc


@<TRIPOS>ATOM
      1 S           7.2990   -1.3510    1.4310 ss        1 ARR      0.597000
      2 C1          8.8250   -1.3670    1.1840 c1        1 ARR     -0.437500
      3 C2          9.0530   -1.8500   -0.1540 c1        1 ARR     -0.139000
      4 C3          7.6360   -2.1660   -0.8230 c1        1 ARR     -0.139000
      5 C4          6.6060   -1.8610    0.1400 c1        1 ARR     -0.437500
      6 C5          5.0960   -1.9080   -0.1030 c1        1 ARR      0.167000
      7 N3          4.4620   -3.0680   -0.1010 n1        1 ARR     -0.286000
      8 N1          4.3780   -0.7120   -0.3170 n3        1 ARR     -0.246000
      9 C6          2.9900   -0.6260    0.0820 c2        1 ARR      0.053000
     10 C10         2.5250    0.5150    0.7340 c1        1 ARR     -0.176000
     11 C11         1.1330    0.6760    0.9740 c1        1 ARR     -0.110000
     12 C9          0.2330   -0.3160    0.5500 c1        1 ARR     -0.094000
     13 C8          0.7110   -1.4680   -0.1100 c1        1 ARR     -0.109000
     14 C7          2.0710   -1.6240   -0.3430 c2        1 ARR     -0.114000
     15 C12        -1.3060   -0.1900    0.8870 c3        1 ARR     -0.122000
     16 C13        -1.9330    0.8370   -0.0060 c3        1 ARR     -0.071000
     17 N2         -3.3260    0.9460    0.2970 n3        1 ARR     -0.305000
     18 C14        -3.9800    1.7630   -0.7120 c3        1 ARR     -0.035000
     19 C15        -5.4820    1.7270   -0.5010 c2        1 ARR     -0.078000
     20 C20        -6.2050    0.5770   -0.8310 c2        1 ARR     -0.105000
     21 C19        -7.5820    0.5760   -0.7380 c1        1 ARR     -0.065000
     22 C18        -8.2540    1.7240   -0.3150 c1        1 ARR     -0.124000
     23 C17        -7.5390    2.8620    0.0120 c1        1 ARR     -0.124000
     24 C16        -6.1410    2.8600   -0.0830 c1        1 ARR     -0.126000
     25 CL         -8.4970   -0.8930   -1.1570 cl        1 ARR     -0.018000
     26 H1          9.5110   -1.0980    1.8200 DU        1 ARR      0.163500
     27 H2          9.9290   -1.9650   -0.5800 DU        1 ARR      0.163500
     28 H3          7.4940   -2.5040   -1.7230 DU        1 ARR      0.163500
     29 HN3         4.9360   -3.8550    0.0450 DU        1 ARR      0.163500
     30 HN1         4.8190    0.0380   -0.5890 hn        1 ARR      0.213000
     31 H10         3.1840    1.2330    1.0400 ha        1 ARR      0.127000
     32 H11         0.7930    1.5000    1.4460 ha        1 ARR      0.129000
     33 H8          0.0600   -2.1840   -0.4160 ha        1 ARR      0.136000
     34 H7          2.4010   -2.4340   -0.8050 ha        1 ARR      0.156000
     35 H121       -1.4190    0.0870    1.8580 hc        1 ARR      0.093500
     36 H122       -1.7610   -1.0880    0.7340 hc        1 ARR      0.093500
     37 H131       -1.8230    0.5650   -0.9440 h1        1 ARR      0.072500
     38 H132       -1.4800    1.7390    0.1430 h1        1 ARR      0.072500
     39 HN2        -3.4270    1.3300    1.1080 hn        1 ARR      0.156000
     40 H141       -3.7710    1.4210   -1.5870 h1        1 ARR      0.079000
     41 H142       -3.6650    2.6800   -0.6380 h1        1 ARR      0.079000
     42 H20        -5.7330   -0.2320   -1.1280 ha        1 ARR      0.163000
     43 H18        -9.1970    1.7230   -0.2520 ha        1 ARR      0.141500
     44 H17        -8.0160    3.6800    0.3130 ha        1 ARR      0.141500
     45 H16        -5.6090    3.6990    0.1570 ha        1 ARR      0.135000
@<TRIPOS>BOND
     1    1    2 1   
     2    1    5 1   
     3    2    3 1   
     4    3    4 1   
     5    4    5 1   
     6    6    7 1   
     7    6    8 1   
     8    8    9 1   
     9    8   30 1   
    10    9   10 1   
    11    9   14 1   
    12   10   31 1   
    13   11   12 1   
    14   11   32 1   
    15   12   15 1   
    16   13   14 1   
    17   13   33 1   
    18   14   34 1   
    19   15   16 1   
    20   15   35 1   
    21   15   36 1   
    22   16   17 1   
    23   16   37 1   
    24   16   38 1   
    25   17   18 1   
    26   17   39 1   
    27   18   19 1   
    28   18   40 1   
    29   18   41 1   
    30   19   20 1   
    31   19   24 1   
    32   20   21 1   
    33   20   42 1   
    34   21   25 1   
    35   22   23 1   
    36   22   43 1   
    37   23   44 1   
    38   24   45 1   
@<TRIPOS>SUBSTRUCTURE
     1 ARR         1 TEMP              0 ****  ****    0 ROOT
