@<TRIPOS>MOLECULE
ARR
   47    49     1     0     0
SMALL
bcc


@<TRIPOS>ATOM
      1 S           0.7540   -1.4680    0.7820 ss        1 ARR      0.218200
      2 C1          2.0050   -0.6450    1.4630 cc        1 ARR     -0.132100
      3 C2          1.5790    0.2720    2.4180 cd        1 ARR     -0.146000
      4 C3          0.1710    0.2550    2.5500 cd        1 ARR     -0.102000
      5 C4         -0.4130   -0.6790    1.6850 cc        1 ARR     -0.388000
      6 C5         -1.8340   -0.9670    1.6230 ce        1 ARR      0.651800
      7 N3         -2.5010   -2.0440    1.7900 n2        1 ARR     -0.728100
      8 N1         -2.6330    0.2850    1.2710 n4        1 ARR     -0.622400
      9 C6         -3.7950    0.5100    2.1330 ca        1 ARR     -0.021400
     10 C10        -3.7100    1.4390    3.1860 ca        1 ARR     -0.080500
     11 C11        -4.8160    1.6450    4.0070 ca        1 ARR     -0.101000
     12 C9         -6.0040    0.9330    3.7990 ca        1 ARR     -0.061300
     13 C8         -6.0780    0.0130    2.7470 ca        1 ARR     -0.101000
     14 C7         -4.9840   -0.2070    1.9120 ca        1 ARR     -0.080500
     15 C12        -7.1550    1.1060    4.7300 c3        1 ARR     -0.068100
     16 C13        -8.2680    1.9170    4.0650 c3        1 ARR      0.101800
     17 N2         -9.4590    2.0870    4.9450 n4        1 ARR     -0.770000
     18 C14       -10.5480    2.8900    4.2780 c3        1 ARR      0.182100
     19 C15       -11.7400    2.9860    5.1630 ca        1 ARR     -0.195300
     20 C20       -12.6550    1.9270    5.2010 ca        1 ARR     -0.111000
     21 C19       -13.7980    2.0320    5.9990 ca        1 ARR      0.020400
     22 C18       -14.0300    3.1930    6.7510 ca        1 ARR     -0.065000
     23 C17       -13.1140    4.2440    6.7010 ca        1 ARR     -0.106000
     24 C16       -11.9680    4.1450    5.9130 ca        1 ARR     -0.094000
     25 CL        -14.9020    0.7550    6.0500 cl        1 ARR     -0.023400
     26 H1          3.0540   -0.8090    1.1920 h4        1 ARR      0.214000
     27 H2          2.2410    0.9210    3.0010 ha        1 ARR      0.191000
     28 H3         -0.3730    0.8760    3.2670 ha        1 ARR      0.154000
     29 HN3        -2.0020   -2.8760    2.0320 hn        1 ARR      0.486400
     30 HN1        -2.9510    0.2000    0.2960 hn        1 ARR      0.470300
     31 H10        -2.7830    2.0050    3.3810 ha        1 ARR      0.172500
     32 H11        -4.7380    2.3690    4.8360 ha        1 ARR      0.165500
     33 H8         -7.0010   -0.5670    2.5790 ha        1 ARR      0.165500
     34 H7         -5.0620   -0.9550    1.1030 ha        1 ARR      0.172500
     35 H121       -6.8110    1.6210    5.6680 hc        1 ARR      0.085700
     36 H122       -7.5380    0.0890    5.0260 hc        1 ARR      0.085700
     37 H131       -7.8890    2.9440    3.7950 hx        1 ARR      0.109200
     38 H132       -8.6050    1.4010    3.1200 hx        1 ARR      0.109200
     39 HN2        -9.8400    1.1670    5.2010 hn        1 ARR      0.453800
     40 H141      -10.1270    3.9110    4.0460 hx        1 ARR      0.109700
     41 H142      -10.8060    2.3720    3.3090 hx        1 ARR      0.109700
     42 H20       -12.4930    1.0260    4.5900 ha        1 ARR      0.146000
     43 H18       -14.9380    3.2780    7.3740 ha        1 ARR      0.182000
     44 H17       -13.3030    5.1610    7.2850 ha        1 ARR      0.172000
     45 H16       -11.2610    4.9880    5.8710 ha        1 ARR      0.145000
     46 H12        -1.9870    1.0850    1.3440 hn        1 ARR      0.470300
     47 H22        -9.1840    2.5580    5.8150 hn        1 ARR      0.453800
@<TRIPOS>BOND
     1    1    2 1   
     2    1    5 1   
     3    2    3 2   
     4    2   26 1   
     5    3    4 1   
     6    3   27 1   
     7    4    5 2   
     8    4   28 1   
     9    5    6 1   
    10    6    7 2   
    11    6    8 1   
    12    7   29 1   
    13    8    9 1   
    14    8   30 1   
    15    8   46 1   
    16    9   10 ar  
    17    9   14 ar  
    18   10   11 ar  
    19   10   31 1   
    20   11   12 ar  
    21   11   32 1   
    22   12   13 ar  
    23   12   15 1   
    24   13   14 ar  
    25   13   33 1   
    26   14   34 1   
    27   15   16 1   
    28   15   35 1   
    29   15   36 1   
    30   16   17 1   
    31   16   37 1   
    32   16   38 1   
    33   17   18 1   
    34   17   39 1   
    35   17   47 1   
    36   18   19 1   
    37   18   40 1   
    38   18   41 1   
    39   19   20 ar  
    40   19   24 ar  
    41   20   21 ar  
    42   20   42 1   
    43   21   22 ar  
    44   21   25 1   
    45   22   23 ar  
    46   22   43 1   
    47   23   24 ar  
    48   23   44 1   
    49   24   45 1   
@<TRIPOS>SUBSTRUCTURE
     1 ARR         1 TEMP              0 ****  ****    0 ROOT
