@<TRIPOS>MOLECULE
ARR
   46    48     1     0     0
SMALL
bcc


@<TRIPOS>ATOM
      1 S          -0.0670    1.0730    0.3780 ss        1 ARR      0.095200
      2 C1          1.4440    0.5200   -0.0380 cc        1 ARR     -0.162100
      3 C2          1.9270   -0.4010    0.8710 cd        1 ARR     -0.156000
      4 C3          0.9970   -0.6280    1.9270 cd        1 ARR     -0.119000
      5 C4         -0.1520    0.1320    1.7620 cc        1 ARR     -0.276000
      6 C5         -1.2800    0.1320    2.7150 ce        1 ARR      0.694800
      7 N3         -1.1540    0.1360    4.0050 n2        1 ARR     -0.811100
      8 N1         -2.5500    0.1440    2.0620 nu        1 ARR     -0.696600
      9 C6         -3.7660    0.1760    2.7600 ca        1 ARR      0.189600
     10 C10        -3.9840    1.0470    3.8540 ca        1 ARR     -0.154000
     11 C11        -5.2300    1.1100    4.4620 ca        1 ARR     -0.089500
     12 C9         -6.2990    0.3330    4.0020 ca        1 ARR     -0.170300
     13 C8         -6.0980   -0.5220    2.9150 ca        1 ARR     -0.089500
     14 C7         -4.8550   -0.6070    2.3010 ca        1 ARR     -0.154000
     15 C12        -7.6170    0.3930    4.6850 c3        1 ARR     -0.037100
     16 C13        -8.3560    1.6490    4.2200 c3        1 ARR      0.097800
     17 N2         -9.6790    1.8170    4.8910 ny        1 ARR     -0.767000
     18 C14       -10.3900    3.0580    4.4370 c3        1 ARR      0.172100
     19 C15       -11.7220    3.1790    5.0940 ca        1 ARR     -0.180300
     20 C20       -12.8100    2.4650    4.5800 ca        1 ARR     -0.110000
     21 C19       -14.0680    2.6030    5.1740 ca        1 ARR      0.019400
     22 C18       -14.2410    3.4570    6.2730 ca        1 ARR     -0.076000
     23 C17       -13.1510    4.1680    6.7720 ca        1 ARR     -0.109000
     24 C16       -11.8910    4.0320    6.1900 ca        1 ARR     -0.097000
     25 Cl        -15.3840    1.7380    4.5590 cl        1 ARR     -0.036400
     26 H1          1.9750    0.8600   -0.9280 h4        1 ARR      0.183000
     27 H2          2.8970   -0.9010    0.8080 ha        1 ARR      0.167000
     28 H3          1.1800   -1.3220    2.7510 ha        1 ARR      0.162000
     29 HN3        -0.2110    0.1770    4.3290 hn        1 ARR      0.415400
     30 HN1        -2.5600   -0.4420    1.2500 hn        1 ARR      0.428800
     31 H10        -3.1680    1.6780    4.2410 ha        1 ARR      0.156500
     32 H11        -5.3700    1.7780    5.3260 ha        1 ARR      0.128500
     33 H8         -6.9230   -1.1520    2.5460 ha        1 ARR      0.128500
     34 H7         -4.7260   -1.2990    1.4530 ha        1 ARR      0.156500
     35 H121       -7.4650    0.4220    5.7980 hc        1 ARR      0.066200
     36 H122       -8.2210   -0.5230    4.4440 hc        1 ARR      0.066200
     37 H131       -7.7320    2.5610    4.4450 hx        1 ARR      0.107700
     38 H132       -8.5330    1.6000    3.1080 hx        1 ARR      0.107700
     39 HN2       -10.2710    1.0010    4.6930 hn        1 ARR      0.448300
     40 H141      -10.5010    2.9970    3.3160 hx        1 ARR      0.109700
     41 H142       -9.7330    3.9410    4.6870 hx        1 ARR      0.109700
     42 H20       -12.6860    1.8120    3.7020 ha        1 ARR      0.149000
     43 H18       -15.2360    3.5690    6.7360 ha        1 ARR      0.175000
     44 H17       -13.2880    4.8460    7.6310 ha        1 ARR      0.166000
     45 H16       -11.0410    4.6090    6.5850 ha        1 ARR      0.145000
     46 H22        -9.5440    1.8580    5.9080 hn        1 ARR      0.448300
@<TRIPOS>BOND
     1    1    2 1   
     2    1    5 1   
     3    2    3 2   
     4    2   26 1   
     5    3    4 1   
     6    3   27 1   
     7    4    5 2   
     8    4   28 1   
     9    5    6 1   
    10    6    7 2   
    11    6    8 1   
    12    7   29 1   
    13    8    9 1   
    14    8   30 1   
    15    9   10 ar  
    16    9   14 ar  
    17   10   11 ar  
    18   10   31 1   
    19   11   12 ar  
    20   11   32 1   
    21   12   13 ar  
    22   12   15 1   
    23   13   14 ar  
    24   13   33 1   
    25   14   34 1   
    26   15   16 1   
    27   15   35 1   
    28   15   36 1   
    29   16   17 1   
    30   16   37 1   
    31   16   38 1   
    32   17   18 1   
    33   17   39 1   
    34   17   46 1   
    35   18   19 1   
    36   18   40 1   
    37   18   41 1   
    38   19   20 ar  
    39   19   24 ar  
    40   20   21 ar  
    41   20   42 1   
    42   21   22 ar  
    43   21   25 1   
    44   22   23 ar  
    45   22   43 1   
    46   23   24 ar  
    47   23   44 1   
    48   24   45 1   
@<TRIPOS>SUBSTRUCTURE
     1 ARR         1 TEMP              0 ****  ****    0 ROOT
