@<TRIPOS>MOLECULE
ARR
   46    48     1     0     0
SMALL
bcc


@<TRIPOS>ATOM
      1 S          -0.0650    1.0800    0.3820 ss        1 ARR      0.095200
      2 C1          1.4450    0.5260   -0.0370 cc        1 ARR     -0.162100
      3 C2          1.9280   -0.3980    0.8690 cd        1 ARR     -0.156000
      4 C3          0.9960   -0.6270    1.9250 cd        1 ARR     -0.119000
      5 C4         -0.1520    0.1340    1.7620 cc        1 ARR     -0.276000
      6 C5         -1.2790    0.1320    2.7150 ce        1 ARR      0.694800
      7 N3         -1.1540    0.1330    4.0050 n2        1 ARR     -0.811100
      8 N1         -2.5490    0.1470    2.0630 nh        1 ARR     -0.696600
      9 C6         -3.7660    0.1790    2.7600 ca        1 ARR      0.189600
     10 C10        -3.9830    1.0470    3.8570 ca        1 ARR     -0.154000
     11 C11        -5.2280    1.1100    4.4650 ca        1 ARR     -0.089500
     12 C9         -6.2980    0.3340    4.0030 ca        1 ARR     -0.170300
     13 C8         -6.0980   -0.5190    2.9130 ca        1 ARR     -0.089500
     14 C7         -4.8550   -0.6030    2.3000 ca        1 ARR     -0.154000
     15 C12        -7.6160    0.3930    4.6860 c3        1 ARR     -0.037100
     16 C13        -8.3550    1.6490    4.2220 c3        1 ARR      0.097800
     17 N2         -9.6790    1.8160    4.8930 n4        1 ARR     -0.767000
     18 C14       -10.3900    3.0570    4.4390 c3        1 ARR      0.172100
     19 C15       -11.7230    3.1770    5.0930 ca        1 ARR     -0.180300
     20 C20       -12.8100    2.4600    4.5800 ca        1 ARR     -0.110000
     21 C19       -14.0680    2.5970    5.1730 ca        1 ARR      0.019400
     22 C18       -14.2440    3.4510    6.2700 ca        1 ARR     -0.076000
     23 C17       -13.1550    4.1650    6.7700 ca        1 ARR     -0.109000
     24 C16       -11.8950    4.0300    6.1890 ca        1 ARR     -0.097000
     25 CL        -15.3820    1.7290    4.5560 cl        1 ARR     -0.036400
     26 H1          1.9760    0.8680   -0.9250 h4        1 ARR      0.183000
     27 H2          2.8960   -0.8990    0.8050 ha        1 ARR      0.167000
     28 H3          1.1790   -1.3250    2.7460 ha        1 ARR      0.162000
     29 HN3        -0.2100    0.1720    4.3290 hn        1 ARR      0.415400
     30 HN1        -2.5590   -0.4360    1.2480 hn        1 ARR      0.428800
     31 H10        -3.1660    1.6760    4.2450 ha        1 ARR      0.156500
     32 H11        -5.3680    1.7760    5.3300 ha        1 ARR      0.128500
     33 H8         -6.9230   -1.1470    2.5430 ha        1 ARR      0.128500
     34 H7         -4.7260   -1.2920    1.4500 ha        1 ARR      0.156500
     35 H121       -7.4640    0.4210    5.7990 hc        1 ARR      0.066200
     36 H122       -8.2200   -0.5230    4.4440 hc        1 ARR      0.066200
     37 H131       -8.5320    1.6010    3.1090 hx        1 ARR      0.107700
     38 H132       -7.7320    2.5620    4.4470 hx        1 ARR      0.107700
     39 HN2        -9.5440    1.8570    5.9090 hn        1 ARR      0.448300
     40 H141       -9.7340    3.9400    4.6890 hx        1 ARR      0.109700
     41 H142      -10.5000    2.9960    3.3170 hx        1 ARR      0.109700
     42 H20       -12.6840    1.8060    3.7020 ha        1 ARR      0.149000
     43 H18       -15.2390    3.5630    6.7320 ha        1 ARR      0.175000
     44 H17       -13.2940    4.8430    7.6280 ha        1 ARR      0.166000
     45 H16       -11.0460    4.6080    6.5850 ha        1 ARR      0.145000
     46 H22       -10.2700    1.0000    4.6940 hn        1 ARR      0.448300
@<TRIPOS>BOND
     1    1    2 1   
     2    1    5 1   
     3    2    3 2   
     4    2   26 1   
     5    3    4 1   
     6    3   27 1   
     7    4    5 2   
     8    4   28 1   
     9    5    6 1   
    10    6    7 2   
    11    6    8 1   
    12    7   29 1   
    13    8    9 1   
    14    8   30 1   
    15    9   10 ar  
    16    9   14 ar  
    17   10   11 ar  
    18   10   31 1   
    19   11   12 ar  
    20   11   32 1   
    21   12   13 ar  
    22   12   15 1   
    23   13   14 ar  
    24   13   33 1   
    25   14   34 1   
    26   15   16 1   
    27   15   35 1   
    28   15   36 1   
    29   16   17 1   
    30   16   37 1   
    31   16   38 1   
    32   17   18 1   
    33   17   39 1   
    34   17   46 1   
    35   18   19 1   
    36   18   40 1   
    37   18   41 1   
    38   19   20 ar  
    39   19   24 ar  
    40   20   21 ar  
    41   20   42 1   
    42   21   22 ar  
    43   21   25 1   
    44   22   23 ar  
    45   22   43 1   
    46   23   24 ar  
    47   23   44 1   
    48   24   45 1   
@<TRIPOS>SUBSTRUCTURE
     1 ARR         1 TEMP              0 ****  ****    0 ROOT
