@<TRIPOS>MOLECULE
ARU
   57    59     1     0     0
SMALL
bcc


@<TRIPOS>ATOM
      1 N1          0.0000    0.0000    0.0000 nb        1 ARU     -0.692000
      2 C2          1.3200    0.0000    0.0000 ca        1 ARU      0.527900
      3 N3          2.0260    0.0000    1.1110 nb        1 ARU     -0.734000
      4 C4          1.4240   -0.0010    2.2960 ca        1 ARU      0.270800
      5 C5          0.0210   -0.0010    2.3490 ca        1 ARU     -0.183200
      6 C6         -0.6890   -0.0010    1.1370 ca        1 ARU      0.358200
      7 N6         -2.0720   -0.0010    1.1250 nh        1 ARU     -0.430300
      8 N7         -0.3290   -0.0030    3.6580 nc        1 ARU     -0.542100
      9 C8          0.7440   -0.0020    4.3930 cd        1 ARU      0.182700
     10 N9          1.8520   -0.0020    3.6000 na        1 ARU      0.209000
     11 C1'         3.2440   -0.0020    4.0550 c3        1 ARU      0.150800
     12 C2'         3.8020    1.4430    4.1060 c3        1 ARU      0.117100
     13 O2'         4.3230    1.8330    2.8340 oh        1 ARU     -0.549800
     14 C3'         4.9380    1.3160    5.1520 c3        1 ARU      0.113100
     15 O3'         6.2000    1.1540    4.5010 oh        1 ARU     -0.570800
     16 C4'         4.5760    0.0480    5.9500 c3        1 ARU      0.136100
     17 O4'         3.3310   -0.4450    5.4270 os        1 ARU     -0.352600
     18 C5'         4.4160    0.3960    7.4320 c3        1 ARU      0.305400
     19 O5'         4.1960   -0.8020    8.1800 os        1 ARU     -0.484200
     20 CAA        -2.4440    1.4010   -0.8480 c3        1 ARU      0.002900
     21 CAB        -2.5890    0.0000   -0.2500 c3        1 ARU      0.121300
     22 CAD        -2.6060   -1.1390    1.8860 c3        1 ARU      0.121300
     23 CAE        -4.0830   -0.8970    2.1990 c3        1 ARU      0.002900
     24 OAF         5.3510   -5.2980   13.8580 o         1 ARU     -0.605167
     25 BrAG        5.2150   -5.5370   10.4030 br        1 ARU     -0.391400
     26 OAH         5.4350   -2.7080   12.3940 o         1 ARU     -0.585000
     27 OAI         5.1280   -0.1340   10.4290 o         1 ARU     -0.691500
     28 OAJ         2.8460   -5.0870   14.0870 o         1 ARU     -0.605167
     29 PAK         3.9130   -5.6180   13.2100 p5        1 ARU      0.500700
     30 CAL         3.7980   -4.8320   11.5700 c3        1 ARU      0.583400
     31 PAM         3.9980   -3.0290   11.7450 p5        1 ARU      0.678600
     32 OAN         3.8960   -2.3340   10.2960 os        1 ARU     -0.478800
     33 PAO         3.9850   -0.8130    9.7760 p5        1 ARU      0.942800
     34 OAV         3.7370   -7.2110   13.0550 o         1 ARU     -0.605167
     35 BrAW        2.0420   -5.2230   10.7770 br        1 ARU     -0.391400
     36 OAX         2.9300   -2.4970   12.6230 o         1 ARU     -0.585000
     37 OAY         2.6210   -0.0380   10.1420 o         1 ARU     -0.691500
     38 H2          1.8410    0.0010   -0.9490 h5        1 ARU     -0.041900
     39 H8          0.7550   -0.0050    5.4760 h5        1 ARU      0.057800
     40 H1'         3.8610   -0.6240    3.4170 h2        1 ARU      0.049700
     41 H2'         3.0420    2.1350    4.4480 h1        1 ARU      0.020700
     42 HO2'        4.3950    2.7730    2.7980 ho        1 ARU      0.361000
     43 H3'         4.9490    2.1810    5.8030 h1        1 ARU      0.009700
     44 HO3'        6.8140    1.7800    4.8470 ho        1 ARU      0.369000
     45 H4'         5.3490   -0.6990    5.8220 h1        1 ARU      0.038700
     46 H5'         5.3160    0.8830    7.7880 h1        1 ARU     -0.024300
     47 H5'A        3.5710    1.0610    7.5590 h1        1 ARU     -0.024300
     48 HAA        -3.3720    1.6850   -1.3290 hc        1 ARU     -0.006467
     49 HAAA       -1.6440    1.4000   -1.5780 hc        1 ARU     -0.006467
     50 HAAB       -2.2140    2.1080   -0.0600 hc        1 ARU     -0.006467
     51 HAB        -3.6340   -0.2840   -0.2430 h1        1 ARU      0.016950
     52 HABA       -2.0260   -0.7070   -0.8470 h1        1 ARU      0.016950
     53 HAD        -2.0540   -1.2450    2.8120 h1        1 ARU      0.016950
     54 HADA       -2.5050   -2.0440    1.3000 h1        1 ARU      0.016950
     55 HAE        -4.2690    0.1690    2.2620 hc        1 ARU     -0.006467
     56 HAEA       -4.6940   -1.3240    1.4130 hc        1 ARU     -0.006467
     57 HAEB       -4.3330   -1.3630    3.1440 hc        1 ARU     -0.006467
@<TRIPOS>BOND
     1    1    2 ar  
     2    1    6 ar  
     3    2    3 ar  
     4    2   38 1   
     5    3    4 ar  
     6    4    5 ar  
     7    4   10 1   
     8    5    6 ar  
     9    5    8 1   
    10    6    7 1   
    11    7   21 1   
    12    7   22 1   
    13    8    9 2   
    14    9   10 1   
    15    9   39 1   
    16   10   11 1   
    17   11   12 1   
    18   11   17 1   
    19   11   40 1   
    20   12   13 1   
    21   12   14 1   
    22   12   41 1   
    23   13   42 1   
    24   14   15 1   
    25   14   16 1   
    26   14   43 1   
    27   15   44 1   
    28   16   17 1   
    29   16   18 1   
    30   16   45 1   
    31   18   19 1   
    32   18   46 1   
    33   18   47 1   
    34   19   33 1   
    35   20   21 1   
    36   20   48 1   
    37   20   49 1   
    38   20   50 1   
    39   21   51 1   
    40   21   52 1   
    41   22   23 1   
    42   22   53 1   
    43   22   54 1   
    44   23   55 1   
    45   23   56 1   
    46   23   57 1   
    47   24   29 1   
    48   25   30 1   
    49   26   31 1   
    50   27   33 1   
    51   28   29 1   
    52   29   30 1   
    53   29   34 1   
    54   30   31 1   
    55   30   35 1   
    56   31   32 1   
    57   31   36 1   
    58   32   33 1   
    59   33   37 1   
@<TRIPOS>SUBSTRUCTURE
     1 ARU         1 TEMP              0 ****  ****    0 ROOT
