@<TRIPOS>MOLECULE
ARV
   33    32     1     0     0
SMALL
bcc


@<TRIPOS>ATOM
      1 N          -0.0560    2.5390   -2.3090 n3        1 ARV     -0.881800
      2 CA          1.0940    2.1360   -1.5200 c3        1 ARV      0.058500
      3 C           2.4610    2.4320   -2.1670 c         1 ARV      0.870600
      4 O           2.5270    2.8960   -3.3430 o         1 ARV     -0.858300
      5 CB          1.0560    0.6520   -1.1240 c3        1 ARV     -0.066400
      6 CG          0.9970   -0.3430   -2.2610 c3        1 ARV     -0.100400
      7 CD          2.1630   -0.2840   -3.2510 c3        1 ARV      0.000300
      8 NE          3.4660   -0.4620   -2.6420 nh        1 ARV     -0.366100
      9 CZ          4.5050    0.4590   -2.7550 cz        1 ARV      0.527300
     10 NH1         4.6570    1.2200   -3.9190 nh        1 ARV     -0.431200
     11 NH2         5.6150    0.3350   -1.8920 nh        1 ARV     -0.346200
     12 OXT         3.5250    2.1300   -1.5230 o         1 ARV     -0.858300
     13 C1          5.3910   -0.0930   -0.5200 c3        1 ARV      0.030500
     14 C2          6.5040    0.3150    0.3930 c2        1 ARV     -0.195200
     15 C3          7.2630   -0.5620    1.0440 c2        1 ARV     -0.185000
     16 H           0.0100    2.1270   -3.2230 hn        1 ARV      0.344300
     17 H2         -0.0250    3.5350   -2.4320 hn        1 ARV      0.344300
     18 HA          1.0610    2.7280   -0.5570 h1        1 ARV      0.071700
     19 HB2         0.1550    0.4810   -0.4750 hc        1 ARV      0.048200
     20 HB3         1.9670    0.4620   -0.4950 hc        1 ARV      0.048200
     21 HG2         0.0590   -0.1830   -2.8590 hc        1 ARV      0.054200
     22 HG3         0.9340   -1.3760   -1.8240 hc        1 ARV      0.054200
     23 HD2         2.0470   -1.1280   -3.9940 h1        1 ARV      0.078700
     24 HD3         2.0850    0.6900   -3.8150 h1        1 ARV      0.078700
     25 HE          3.4320   -0.9670   -1.7780 hn        1 ARV      0.283700
     26 HH11        3.7930    1.5160   -4.3510 hn        1 ARV      0.294200
     27 HH12        5.2880    1.9920   -3.8250 hn        1 ARV      0.294200
     28 HH2         6.2770    1.0830   -1.9690 hn        1 ARV      0.281700
     29 HC11        4.4320    0.3630   -0.1190 h1        1 ARV      0.071700
     30 HC12        5.2880   -1.2180   -0.5280 h1        1 ARV      0.071700
     31 HC2         6.6270    1.4030    0.5250 ha        1 ARV      0.141000
     32 HC31        8.0440   -0.2450    1.7500 ha        1 ARV      0.119500
     33 HC32        7.1580   -1.6490    0.9280 ha        1 ARV      0.119500
@<TRIPOS>BOND
     1    1    2 1   
     2    1   16 1   
     3    1   17 1   
     4    2    3 1   
     5    2    5 1   
     6    2   18 1   
     7    3    4 1   
     8    3   12 1   
     9    5    6 1   
    10    5   19 1   
    11    5   20 1   
    12    6    7 1   
    13    6   21 1   
    14    6   22 1   
    15    7    8 1   
    16    7   23 1   
    17    7   24 1   
    18    8    9 2   
    19    8   25 1   
    20    9   10 1   
    21    9   11 1   
    22   10   26 1   
    23   10   27 1   
    24   11   13 1   
    25   11   28 1   
    26   13   14 1   
    27   13   29 1   
    28   13   30 1   
    29   14   15 2   
    30   14   31 1   
    31   15   32 1   
    32   15   33 1   
@<TRIPOS>SUBSTRUCTURE
     1 ARV         1 TEMP              0 ****  ****    0 ROOT
