@<TRIPOS>MOLECULE
ARW
   23    23     1     0     0
SMALL
bcc


@<TRIPOS>ATOM
      1 C1          0.0260   -0.1090    0.0470 c3        1 ARW      0.297900
      2 C2          1.5650   -0.1460   -0.0160 c3        1 ARW      0.135100
      3 C3          2.1430   -0.0560    1.4080 c3        1 ARW      0.146100
      4 C4          1.5250    1.1460    2.1430 c3        1 ARW      0.069100
      5 C5         -0.0050    1.0870    2.0920 c3        1 ARW      0.109400
      6 O1         -0.4460    0.1140   -1.2640 os        1 ARW     -0.427600
      7 O2          2.1230    0.9340   -0.7430 oh        1 ARW     -0.599800
      8 O3          1.8310   -1.2810    2.0510 oh        1 ARW     -0.605800
      9 O4          1.9790    1.0650    3.4860 oh        1 ARW     -0.605800
     10 O5         -0.4690    1.0280    0.7510 os        1 ARW     -0.436600
     11 CM         -1.8610    0.0420   -1.3910 c3        1 ARW      0.126700
     12 H1         -0.3790   -1.0550    0.5000 h2        1 ARW      0.064700
     13 HA          1.8810   -1.1140   -0.4960 h1        1 ARW      0.071700
     14 H3          3.2590    0.0750    1.3560 h1        1 ARW      0.070700
     15 H4          1.8920    2.0900    1.6540 h1        1 ARW      0.073700
     16 H5C1       -0.4610    2.0260    2.5010 h1        1 ARW      0.057700
     17 H5C2       -0.3690    0.1950    2.6680 h1        1 ARW      0.057700
     18 H2          1.5050    1.1530   -1.4540 ho        1 ARW      0.432000
     19 HB          2.1180   -1.1870    2.9700 ho        1 ARW      0.427000
     20 HC          1.6490    1.8490    3.9400 ho        1 ARW      0.411000
     21 HMC1       -2.3490    0.8370   -0.7790 h1        1 ARW      0.042367
     22 HMC2       -2.0420    0.2100   -2.4820 h1        1 ARW      0.042367
     23 HMC3       -2.2260   -0.9680   -1.0790 h1        1 ARW      0.042367
@<TRIPOS>BOND
     1    1    2 1   
     2    1    6 1   
     3    1   10 1   
     4    1   12 1   
     5    2    3 1   
     6    2    7 1   
     7    2   13 1   
     8    3    4 1   
     9    3    8 1   
    10    3   14 1   
    11    4    5 1   
    12    4    9 1   
    13    4   15 1   
    14    5   10 1   
    15    5   16 1   
    16    5   17 1   
    17    6   11 1   
    18    7   18 1   
    19    8   19 1   
    20    9   20 1   
    21   11   21 1   
    22   11   22 1   
    23   11   23 1   
@<TRIPOS>SUBSTRUCTURE
     1 ARW         1 TEMP              0 ****  ****    0 ROOT
