@<TRIPOS>MOLECULE
ARW
   23    23     1     0     0
SMALL
bcc


@<TRIPOS>ATOM
      1 C1          0.0340   -0.1060    0.0430 c3        1 ARW      0.297900
      2 C2          1.5730   -0.1480   -0.0060 c3        1 ARW      0.135100
      3 C3          2.1380   -0.0620    1.4230 c3        1 ARW      0.146100
      4 C4          1.5170    1.1410    2.1540 c3        1 ARW      0.069100
      5 C5         -0.0120    1.0880    2.0900 c3        1 ARW      0.109400
      6 O1         -0.4260    0.1200   -1.2710 os        1 ARW     -0.427600
      7 O2          2.1400    0.9310   -0.7260 oh        1 ARW     -0.599800
      8 O3          1.8170   -1.2860    2.0620 oh        1 ARW     -0.605800
      9 O4          1.9590    1.0580    3.5010 oh        1 ARW     -0.605800
     10 O5         -0.4650    1.0310    0.7450 os        1 ARW     -0.436600
     11 CM         -1.8400    0.0530   -1.4110 c3        1 ARW      0.126700
     12 H1         -0.3790   -1.0520    0.4920 h2        1 ARW      0.064700
     13 HA          1.8900   -1.1160   -0.4840 h1        1 ARW      0.071700
     14 H3          3.2550    0.0660    1.3820 h1        1 ARW      0.070700
     15 H4          1.8920    2.0850    1.6700 h1        1 ARW      0.073700
     16 H5C1       -0.3840    0.1960    2.6610 h1        1 ARW      0.057700
     17 H5C2       -0.4690    2.0280    2.4970 h1        1 ARW      0.057700
     18 H2          1.5300    1.1530   -1.4430 ho        1 ARW      0.432000
     19 HB          2.0960   -1.1940    2.9840 ho        1 ARW      0.427000
     20 HC          1.6280    1.8420    3.9530 ho        1 ARW      0.411000
     21 HMC1       -2.3310    0.8490   -0.8020 h1        1 ARW      0.042367
     22 HMC2       -2.2110   -0.9560   -1.1030 h1        1 ARW      0.042367
     23 HMC3       -2.0110    0.2230   -2.5030 h1        1 ARW      0.042367
@<TRIPOS>BOND
     1    1    2 1   
     2    1    6 1   
     3    1   10 1   
     4    1   12 1   
     5    2    3 1   
     6    2    7 1   
     7    2   13 1   
     8    3    4 1   
     9    3    8 1   
    10    3   14 1   
    11    4    5 1   
    12    4    9 1   
    13    4   15 1   
    14    5   10 1   
    15    5   16 1   
    16    5   17 1   
    17    6   11 1   
    18    7   18 1   
    19    8   19 1   
    20    9   20 1   
    21   11   21 1   
    22   11   22 1   
    23   11   23 1   
@<TRIPOS>SUBSTRUCTURE
     1 ARW         1 TEMP              0 ****  ****    0 ROOT
