@<TRIPOS>MOLECULE
ARW
   23    23     1     0     0
SMALL
bcc


@<TRIPOS>ATOM
      1 C1          0.0650   -0.4470    1.0380 c3        1 ARW      0.297900
      2 C2         -1.2070   -0.1400    0.2240 c3        1 ARW      0.135100
      3 C3         -0.8970   -0.2510   -1.2800 c3        1 ARW      0.146100
      4 C4          0.3430    0.5950   -1.6180 c3        1 ARW      0.069100
      5 C5          1.5190    0.2250   -0.7090 c3        1 ARW      0.109400
      6 O1         -0.1760   -0.0410    2.3680 os        1 ARW     -0.427600
      7 O2         -1.7040    1.1690    0.4340 oh        1 ARW     -0.599800
      8 O3         -0.6830   -1.6260   -1.5510 oh        1 ARW     -0.605800
      9 O4          0.6580    0.3140   -2.9730 oh        1 ARW     -0.605800
     10 O5          1.1710    0.3700    0.6600 os        1 ARW     -0.436600
     11 CM          0.8650   -0.3830    3.2750 c3        1 ARW      0.126700
     12 H1          0.3380   -1.5350    0.9570 h2        1 ARW      0.064700
     13 HA         -2.0020   -0.8850    0.5050 h1        1 ARW      0.071700
     14 H3         -1.7740    0.1240   -1.8760 h1        1 ARW      0.070700
     15 H4          0.0810    1.6810   -1.4870 h1        1 ARW      0.073700
     16 H5C1        2.3800    0.9280   -0.8520 h1        1 ARW      0.057700
     17 H5C2        1.8400   -0.8310   -0.9160 h1        1 ARW      0.057700
     18 H2         -1.5170    1.4060    1.3520 ho        1 ARW      0.432000
     19 HB         -0.4030   -1.6820   -2.4750 ho        1 ARW      0.427000
     20 HC          1.3950    0.8870   -3.2140 ho        1 ARW      0.411000
     21 HMC1        0.4910   -0.0170    4.2630 h1        1 ARW      0.042367
     22 HMC2        1.0140   -1.4910    3.2930 h1        1 ARW      0.042367
     23 HMC3        1.8150    0.1310    2.9930 h1        1 ARW      0.042367
@<TRIPOS>BOND
     1    1    2 1   
     2    1    6 1   
     3    1   10 1   
     4    1   12 1   
     5    2    3 1   
     6    2    7 1   
     7    2   13 1   
     8    3    4 1   
     9    3    8 1   
    10    3   14 1   
    11    4    5 1   
    12    4    9 1   
    13    4   15 1   
    14    5   10 1   
    15    5   16 1   
    16    5   17 1   
    17    6   11 1   
    18    7   18 1   
    19    8   19 1   
    20    9   20 1   
    21   11   21 1   
    22   11   22 1   
    23   11   23 1   
@<TRIPOS>SUBSTRUCTURE
     1 ARW         1 TEMP              0 ****  ****    0 ROOT
