@<TRIPOS>MOLECULE
ARW
   23    23     1     0     0
SMALL
bcc


@<TRIPOS>ATOM
      1 C1         -0.7630    0.0360   -0.8570 c3        1 ARW      0.333900
      2 C2          0.7530    0.0360   -0.8570 c3        1 ARW      0.094100
      3 C3          1.3180    0.0360    0.5180 c3        1 ARW      0.072100
      4 C4          0.7430   -1.0480    1.3650 c3        1 ARW      0.121100
      5 C5         -0.7800   -1.0450    1.3540 c3        1 ARW      0.137400
      6 O1         -1.2090    1.2550   -0.3910 os        1 ARW     -0.439600
      7 O2          1.2180    1.2070   -1.5500 oh        1 ARW     -0.581800
      8 O3          2.7550   -0.1470    0.4340 oh        1 ARW     -0.611800
      9 O4          1.2060   -2.3120    0.8760 oh        1 ARW     -0.592800
     10 O5         -1.3320   -1.0410   -0.0060 os        1 ARW     -0.429600
     11 CM         -2.3340    1.7530   -1.0810 c3        1 ARW      0.120700
     12 H1         -1.0780   -0.0860   -1.7720 h2        1 ARW      0.089700
     13 HA          1.0700   -0.7580   -1.3290 h1        1 ARW      0.073700
     14 H3          1.1320    0.8980    0.9370 h1        1 ARW      0.077700
     15 H4          1.0530   -0.9310    2.2830 h1        1 ARW      0.050700
     16 H5C1       -1.1000   -1.8400    1.8220 h1        1 ARW      0.067200
     17 H5C2       -1.0970   -0.2520    1.8260 h1        1 ARW      0.067200
     18 H2          1.6330    0.9640   -2.2960 ho        1 ARW      0.403000
     19 HB          3.1630    0.5030    0.8810 ho        1 ARW      0.412000
     20 HC          1.4260   -2.8320    1.5620 ho        1 ARW      0.418000
     21 HMC1       -2.5700    2.6310   -0.7270 h1        1 ARW      0.039033
     22 HMC2       -3.0850    1.1410   -0.9620 h1        1 ARW      0.039033
     23 HMC3       -2.1250    1.8300   -2.0310 h1        1 ARW      0.039033
@<TRIPOS>BOND
     1    1    2 1   
     2    1    6 1   
     3    1   10 1   
     4    1   12 1   
     5    2    3 1   
     6    2    7 1   
     7    2   13 1   
     8    3    4 1   
     9    3    8 1   
    10    3   14 1   
    11    4    5 1   
    12    4    9 1   
    13    4   15 1   
    14    5   10 1   
    15    5   16 1   
    16    5   17 1   
    17    6   11 1   
    18    7   18 1   
    19    8   19 1   
    20    9   20 1   
    21   11   21 1   
    22   11   22 1   
    23   11   23 1   
@<TRIPOS>SUBSTRUCTURE
     1 ARW         1 TEMP              0 ****  ****    0 ROOT
