@<TRIPOS>MOLECULE
ARZ
   40    42     1     0     0
SMALL
bcc


@<TRIPOS>ATOM
      1 NAA        -4.8300   -4.1700    3.0440 n3        1 ARZ     -1.022500
      2 OAB         1.6130   -1.1640    0.1500 o         1 ARZ     -0.516100
      3 OAC        -3.7360   -2.8570    4.8910 o         1 ARZ     -0.525400
      4 OAD        -2.6780   -4.6840    4.2730 o         1 ARZ     -0.525400
      5 CAE        -0.1610    2.4160   -1.8300 c3        1 ARZ     -0.054733
      6 CAF         2.7370    2.3220   -0.5160 c3        1 ARZ     -0.054733
      7 CAG         1.0460   -0.1200   -0.8460 c3        1 ARZ     -0.054733
      8 CAH         0.9080    2.9100   -0.3180 c3        1 ARZ     -0.104400
      9 CAI         0.5490    0.6740   -2.4520 c3        1 ARZ     -0.104400
     10 CAJ         2.6620    0.5940   -1.4770 c3        1 ARZ     -0.104400
     11 NAK        -0.2750   -1.9680    2.0280 ne        1 ARZ     -0.296400
     12 NAL        -1.1980   -2.8260    2.9800 n1        1 ARZ     -0.341100
     13 NAM        -0.6540   -0.4010    0.0460 n         1 ARZ     -0.395400
     14 SAN        -2.5470   -1.7180    1.3550 ss        1 ARZ      0.135700
     15 CAO         0.8050   -0.3870   -0.3800 c         1 ARZ      0.413100
     16 CAP        -1.0980   -1.3190    1.0720 c2        1 ARZ      0.359800
     17 CAQ        -2.5370   -2.6650    2.5650 c1        1 ARZ     -0.567100
     18 CAR         1.0060    3.0610   -0.5220 c3        1 ARZ     -0.100033
     19 CAS         0.0850    0.6790   -2.1020 c3        1 ARZ     -0.100033
     20 CAT         2.6910    0.5900   -0.9030 c3        1 ARZ     -0.100033
     21 CAU         1.3360    0.7550   -1.4080 c3        1 ARZ     -0.172000
     22 SAV        -3.4610   -3.6090    3.7300 s4        1 ARZ      1.767700
     23 HNAA       -4.7900   -4.8900    2.4300 hn        1 ARZ      0.448800
     24 HNAB       -5.6900   -3.7910    3.2940 hn        1 ARZ      0.448800
     25 HAE        -1.0800    2.5680   -1.5430 hc        1 ARZ      0.101367
     26 HAEA        0.0010    2.9070   -2.6830 hc        1 ARZ      0.101367
     27 HAF         3.1430    2.4460    0.3860 hc        1 ARZ      0.101367
     28 HAFA        3.3080    2.8030   -1.2110 hc        1 ARZ      0.101367
     29 HAG         0.6320    0.0500    0.0560 hc        1 ARZ      0.101367
     30 HAGA        1.0900   -1.0980   -1.0210 hc        1 ARZ      0.101367
     31 HAH         1.4470    3.0180    0.5210 hc        1 ARZ      0.061533
     32 HAHA       -0.0720    3.0670   -0.1680 hc        1 ARZ      0.061533
     33 HAI         0.6540   -0.2210   -2.9650 hc        1 ARZ      0.061533
     34 HAIA        0.5980    1.4590   -3.0220 hc        1 ARZ      0.061533
     35 HAJ         2.9370   -0.3340   -1.9080 hc        1 ARZ      0.061533
     36 HAJA        3.1460    1.4100   -1.9000 hc        1 ARZ      0.061533
     37 HNAM       -1.2700    0.2550   -0.3180 hn        1 ARZ      0.309500
     38 HAR         0.9590    4.0130   -0.3540 hc        1 ARZ      0.092700
     39 HAS        -0.6720    0.1810   -2.4350 hc        1 ARZ      0.092700
     40 HAT         3.3980    0.0450   -0.5400 hc        1 ARZ      0.092700
@<TRIPOS>BOND
     1    1   22 1   
     2    1   23 1   
     3    1   24 1   
     4    2   15 2   
     5    3   22 1   
     6    4   22 1   
     7    5   18 1   
     8    5   19 1   
     9    5   25 1   
    10    5   26 1   
    11    6   18 1   
    12    6   20 1   
    13    6   27 1   
    14    6   28 1   
    15    7   19 1   
    16    7   20 1   
    17    7   29 1   
    18    7   30 1   
    19    8   18 1   
    20    8   21 1   
    21    8   31 1   
    22    8   32 1   
    23    9   19 1   
    24    9   21 1   
    25    9   33 1   
    26    9   34 1   
    27   10   20 1   
    28   10   21 1   
    29   10   35 1   
    30   10   36 1   
    31   11   12 1   
    32   11   16 2   
    33   12   17 3   
    34   13   15 1   
    35   13   16 1   
    36   13   37 1   
    37   14   16 1   
    38   14   17 1   
    39   15   21 1   
    40   18   38 1   
    41   19   39 1   
    42   20   40 1   
@<TRIPOS>SUBSTRUCTURE
     1 ARZ         1 TEMP              0 ****  ****    0 ROOT
