@<TRIPOS>MOLECULE
ARZ
   41    41     1     0     0
SMALL
bcc


@<TRIPOS>ATOM
      1 NAA         0.9490   -0.4220    0.3090 nz        1 ARZ     -0.502000
      2 OAB         2.6900    6.0150   -0.8420 o         1 ARZ     -0.214000
      3 OAC         3.3210   -0.9740   -0.3690 o         1 ARZ     -0.851500
      4 OAD         1.6210   -1.1880   -2.0360 o         1 ARZ     -0.851500
      5 CAE         6.6030   10.3750   -5.4350 c3        1 ARZ     -0.269000
      6 CAF         6.0720    8.9280   -3.3890 c3        1 ARZ     -0.212000
      7 CAG         2.6970    5.9980   -6.5330 c2        1 ARZ     -0.150000
      8 CAH         2.9930    8.3470   -2.2430 c3        1 ARZ     -0.211000
      9 CAI         2.2490    7.0350   -4.1910 c2        1 ARZ     -0.156000
     10 CAJ         4.6490    6.8430   -3.4080 c3        1 ARZ     -0.150000
     11 NAK         2.7780    3.1900   -0.6710 n2        1 ARZ     -0.014000
     12 NAL         2.6670    2.0010   -0.3470 n2        1 ARZ      0.099000
     13 SAN         2.1080    1.9420   -2.8460 ss        1 ARZ      0.709000
     14 CAO         2.8120    5.8950   -2.0570 c2        1 ARZ      0.304000
     15 CAP         2.5240    3.4180   -2.0780 c2        1 ARZ     -0.102000
     16 CAQ         2.3130    1.1060   -1.3870 c2        1 ARZ     -1.415000
     17 CAR         6.6890   10.0670   -4.0320 c1        1 ARZ     -0.074000
     18 CAS         2.4950    6.4890   -5.3490 c1        1 ARZ     -0.164000
     19 CAT         5.2310    7.9810   -4.2240 c3        1 ARZ     -0.185000
     20 CAU         3.1800    7.0450   -3.0170 c3        1 ARZ     -0.002000
     21 SAV         2.2680   -0.4450   -1.0710 s6        1 ARZ      2.892000
     22 HNAA        0.5240    0.4920    0.4350 hn        1 ARZ      0.252333
     23 HNAB        0.2050   -1.0860    0.1040 hn        1 ARZ      0.252333
     24 HAF         5.4530    9.3450   -2.5400 hc        1 ARZ      0.139000
     25 HAFA        6.9190    8.3590   -2.9020 hc        1 ARZ      0.139000
     26 HAG         3.1710    6.5880   -7.3350 ha        1 ARZ      0.149500
     27 HAGA        2.4050    4.9750   -6.8140 ha        1 ARZ      0.149500
     28 HAH         3.1970    9.2140   -2.9160 hc        1 ARZ      0.104667
     29 HAHA        3.6940    8.3810   -1.3740 hc        1 ARZ      0.104667
     30 HAI         1.9480    8.4250   -1.8580 hc        1 ARZ      0.104667
     31 HAIA        1.2940    7.5720   -4.0270 ha        1 ARZ      0.163000
     32 HAJ         4.7300    5.8950   -4.0030 hc        1 ARZ      0.088500
     33 HAJA        5.2510    6.7070   -2.4690 hc        1 ARZ      0.088500
     34 HAR         4.4080    8.5500   -4.7330 hc        1 ARZ      0.092000
     35 HAS         6.0000    9.6830   -6.0770 hc        1 ARZ      0.110000
     36 HAT         5.8750    7.5470   -5.0350 hc        1 ARZ      0.092000
     37 HAE         7.6530   10.4170   -5.8380 hc        1 ARZ      0.110000
     38 HAA3        1.3720   -0.6900    1.1980 hn        1 ARZ      0.252333
     39 NAM         2.6050    4.6160   -2.6870 ns        1 ARZ     -0.255000
     40 HAEA        6.1830   11.4150   -5.5310 hc        1 ARZ      0.110000
     41 HNAM        2.5070    4.6360   -3.6870 hn        1 ARZ      0.272000
@<TRIPOS>BOND
     1    1   21 1   
     2    1   22 1   
     3    1   23 1   
     4    1   38 1   
     5    2   14 1   
     6    3   21 1   
     7    4   21 1   
     8    5   17 1   
     9    5   35 1   
    10    5   37 1   
    11    5   40 1   
    12    6   17 1   
    13    6   19 1   
    14    6   24 1   
    15    6   25 1   
    16    7   18 1   
    17    7   26 1   
    18    7   27 1   
    19    8   20 1   
    20    8   28 1   
    21    8   29 1   
    22    8   30 1   
    23    9   18 1   
    24    9   20 1   
    25    9   31 1   
    26   10   19 1   
    27   10   20 1   
    28   10   32 1   
    29   10   33 1   
    30   11   12 1   
    31   11   15 1   
    32   12   16 1   
    33   13   15 1   
    34   13   16 1   
    35   14   20 1   
    36   14   39 1   
    37   15   39 1   
    38   16   21 1   
    39   19   34 1   
    40   19   36 1   
    41   39   41 1   
@<TRIPOS>SUBSTRUCTURE
     1 ARZ         1 TEMP              0 ****  ****    0 ROOT
