@<TRIPOS>MOLECULE
ARZ
   41    39     1     0     0
SMALL
bcc


@<TRIPOS>ATOM
      1 NAA         0.1980    0.5460    0.8410 n4        1 ARZ     -0.500000
      2 OAB         2.7660    5.9580   -2.2870 o         1 ARZ     -0.253000
      3 OAC         2.5050    0.2590    1.8420 o         1 ARZ     -0.856000
      4 OAD         1.9760   -1.0420   -0.0900 o         1 ARZ     -0.856000
      5 CAE         4.0310    9.6910   -3.6910 c3        1 ARZ     -0.211500
      6 CAF         5.9040   10.5590   -2.2820 c3        1 ARZ     -0.211500
      7 CAG         3.0580    6.0180   -7.8880 c2        1 ARZ     -0.191500
      8 CAH         5.7180    8.1190   -2.8260 c1        1 ARZ     -0.033000
      9 CAI         2.2190    7.9200   -6.3310 c2        1 ARZ     -0.191500
     10 CAJ         5.3820    5.0960   -4.7170 c2        1 ARZ     -0.500000
     11 NAK         2.5820    3.6120   -0.6950 n2        1 ARZ     -0.016000
     12 NAL         2.2270    2.7080    0.0700 n2        1 ARZ      0.099000
     13 SAN         3.0200    1.4010   -1.9880 ss        1 ARZ      0.679000
     14 CAO         3.5230    5.3390   -3.0340 c2        1 ARZ      0.332000
     15 CAP         3.1000    3.1170   -1.9560 c2        1 ARZ     -0.093000
     16 CAQ         2.3820    1.3840   -0.4150 c2        1 ARZ     -1.424000
     17 CAR         5.4690    9.4770   -3.2500 c3        1 ARZ     -0.190000
     18 CAS         2.6380    6.9640   -7.1040 c1        1 ARZ     -0.167000
     19 CAT         5.3980    4.7610   -5.9900 c1        1 ARZ      0.215000
     20 CAU         4.3970    5.9730   -4.0610 c3        1 ARZ     -0.275000
     21 SAV         2.0560    0.1780    0.5470 s6        1 ARZ      2.895000
     22 HNAA       -0.3670   -0.2710    0.6230 hn        1 ARZ      0.250000
     23 HNAB        0.0430    0.7850    1.8190 hn        1 ARZ      0.250000
     24 HAF         6.9690   10.4150   -1.9810 hc        1 ARZ      0.091833
     25 HAFA        5.2670   10.5390   -1.3650 hc        1 ARZ      0.091833
     26 HAG         5.8010   11.5650   -2.7560 hc        1 ARZ      0.091833
     27 HAGA        2.4800    5.6830   -8.7630 ha        1 ARZ      0.139250
     28 HAH         4.9930    6.8990   -3.4980 hc        1 ARZ      0.217000
     29 HAHA        6.4450    7.9590   -2.0170 ha        1 ARZ      0.080000
     30 HAI         2.4550    8.9760   -6.5270 ha        1 ARZ      0.139250
     31 HAIA        1.5870    7.7350   -5.4500 ha        1 ARZ      0.139250
     32 HAJ         3.7270    6.4860   -4.8070 hc        1 ARZ      0.217000
     33 HAJA        6.2330    4.7790   -4.0790 ha        1 ARZ      0.189000
     34 HAR         6.1310    9.5400   -4.1850 hc        1 ARZ      0.170000
     35 HAS         3.7140    8.8920   -4.4070 hc        1 ARZ      0.091833
     36 HAT         4.0210    5.5030   -7.7350 ha        1 ARZ      0.139250
     37 HAE         3.9340   10.6850   -4.1890 hc        1 ARZ      0.091833
     38 HAA3       -0.1410    1.3190    0.2770 hn        1 ARZ      0.250000
     39 NAM         3.5710    3.8900   -2.9460 n         1 ARZ     -0.249000
     40 HAEA        3.3500    9.6700   -2.8060 hc        1 ARZ      0.091833
     41 HNAM        3.9970    3.4270   -3.7290 hn        1 ARZ      0.268000
@<TRIPOS>BOND
     1    1   21 1   
     2    1   22 1   
     3    1   23 1   
     4    1   38 1   
     5    2   14 1   
     6    3   21 1   
     7    4   21 1   
     8    5   17 1   
     9    5   35 1   
    10    5   37 1   
    11    5   40 1   
    12    6   17 1   
    13    6   24 1   
    14    6   25 1   
    15    6   26 1   
    16    7   18 1   
    17    7   27 1   
    18    7   36 1   
    19    8   17 1   
    20    8   29 1   
    21    9   18 1   
    22    9   30 1   
    23    9   31 1   
    24   10   19 1   
    25   10   20 1   
    26   10   33 1   
    27   11   12 1   
    28   11   15 1   
    29   12   16 1   
    30   13   15 1   
    31   13   16 1   
    32   14   20 1   
    33   14   39 1   
    34   15   39 1   
    35   16   21 1   
    36   17   34 1   
    37   20   28 1   
    38   20   32 1   
    39   39   41 1   
@<TRIPOS>SUBSTRUCTURE
     1 ARZ         1 TEMP              0 ****  ****    0 ROOT
