@<TRIPOS>MOLECULE
ARZ
   40    40     1     0     0
SMALL
bcc


@<TRIPOS>ATOM
      1 NAA         0.1830    0.1210   -0.4690 n3        1 ARZ     -0.942000
      2 OAB         4.7200    4.4820   -2.6550 o         1 ARZ     -0.363000
      3 OAC         1.5430    0.8400    1.4610 o         1 ARZ     -0.938000
      4 OAD         2.6240   -0.1500   -0.4310 o         1 ARZ     -0.938000
      5 CAE         2.2300    9.4670   -1.9240 c3        1 ARZ     -0.271000
      6 CAF         5.7450    8.6690   -5.4950 c3        1 ARZ     -0.212000
      7 CAG         5.5950    6.3460   -6.4460 c3        1 ARZ     -0.058000
      8 CAH         4.1470    7.9780   -2.6320 c3        1 ARZ     -0.214000
      9 CAI         3.0580    6.7020   -7.0390 c1        1 ARZ     -0.219000
     10 CAJ         5.8540    6.6780   -3.9370 c3        1 ARZ     -0.161000
     11 NAK         0.8980    4.1890   -1.1390 n2        1 ARZ     -0.103000
     12 NAL         0.6860    3.0580   -0.5990 n2        1 ARZ      0.046000
     13 SAN         3.0690    2.8320   -1.4600 ss        1 ARZ      0.816000
     14 CAO         3.9720    5.4710   -2.8010 c2        1 ARZ      0.298000
     15 CAP         2.1890    4.2780   -1.6880 c2        1 ARZ     -0.224000
     16 CAQ         1.7470    2.1780   -0.6680 c2        1 ARZ     -1.215000
     17 CAR         2.7400    8.1900   -2.3430 c1        1 ARZ     -0.095000
     18 CAS         4.2100    6.5540   -6.7510 c1        1 ARZ     -0.168000
     19 CAT         6.1530    7.2240   -5.3270 c3        1 ARZ     -0.097000
     20 CAU         4.3930    6.7530   -3.5110 c3        1 ARZ     -0.092000
     21 SAV         1.5820    0.6600    0.0710 s6        1 ARZ      2.905000
     22 HNAA       -0.6920    0.4360   -0.1300 hn        1 ARZ      0.247000
     23 HNAB        0.0970   -0.5070   -1.2270 hn        1 ARZ      0.247000
     24 HAEA        2.9760   10.2960   -1.8250 hc        1 ARZ      0.117667
     25 HAF         4.6360    8.7810   -5.4280 hc        1 ARZ      0.077000
     26 HAFA        6.0740    9.0460   -6.4940 hc        1 ARZ      0.077000
     27 HAG         7.2790    7.1760   -5.4320 hc        1 ARZ      0.094000
     28 HAGA        6.1940    6.5480   -7.3800 hc        1 ARZ      0.106000
     29 HAH         4.6650    7.8400   -1.6350 hc        1 ARZ      0.127500
     30 HAHA        4.6340    8.8690   -3.1230 hc        1 ARZ      0.127500
     31 HAI         3.7440    6.8360   -4.4320 hc        1 ARZ      0.141000
     32 HAIA        2.0370    6.8300   -7.2960 ha        1 ARZ      0.225000
     33 HAJ         6.2010    5.6080   -3.9060 hc        1 ARZ      0.104000
     34 HAJA        6.4820    7.2430   -3.1960 hc        1 ARZ      0.104000
     35 HAR         6.2190    9.3010   -4.7050 hc        1 ARZ      0.077000
     36 HAS         1.7030    9.3310   -0.9400 hc        1 ARZ      0.117667
     37 HAT         5.7530    5.2630   -6.1760 hc        1 ARZ      0.106000
     38 NAM         2.6590    5.4010   -2.3390 n         1 ARZ     -0.277000
     39 HAE         1.4420    9.7770   -2.6670 hc        1 ARZ      0.117667
     40 HNAM        2.0890    6.2420   -2.3690 hn        1 ARZ      0.308000
@<TRIPOS>BOND
     1    1   21 1   
     2    1   22 1   
     3    1   23 1   
     4    2   14 1   
     5    3   21 1   
     6    4   21 1   
     7    5   17 1   
     8    5   24 1   
     9    5   36 1   
    10    5   39 1   
    11    6   19 1   
    12    6   25 1   
    13    6   26 1   
    14    6   35 1   
    15    7   18 1   
    16    7   19 1   
    17    7   28 1   
    18    7   37 1   
    19    8   17 1   
    20    8   20 1   
    21    8   29 1   
    22    8   30 1   
    23    9   18 1   
    24    9   32 1   
    25   10   19 1   
    26   10   20 1   
    27   10   33 1   
    28   10   34 1   
    29   11   12 1   
    30   11   15 1   
    31   12   16 1   
    32   13   15 1   
    33   13   16 1   
    34   14   20 1   
    35   14   38 1   
    36   15   38 1   
    37   16   21 1   
    38   19   27 1   
    39   20   31 1   
    40   38   40 1   
@<TRIPOS>SUBSTRUCTURE
     1 ARZ         1 TEMP              0 ****  ****    0 ROOT
