@<TRIPOS>MOLECULE
ARZ
   40    43     1     0     0
SMALL
bcc


@<TRIPOS>ATOM
      1 NAA         5.6820    0.4010   -0.3170 n3        1 ARZ     -1.016700
      2 OAB        -0.7670    1.2120    1.1460 o         1 ARZ     -0.582100
      3 OAC         5.3090   -0.5660    1.9220 o         1 ARZ     -0.655800
      4 OAD         4.7520    1.7300    1.5280 o         1 ARZ     -0.655800
      5 CAE        -5.4270   -0.3300    1.3080 c3        1 ARZ     -0.073733
      6 CAF        -5.3120    1.1190   -0.7170 c3        1 ARZ     -0.073733
      7 CAG        -5.0070   -1.3440   -0.9280 c3        1 ARZ     -0.073733
      8 CAH        -3.4900    1.1980    0.9770 c3        1 ARZ     -0.065067
      9 CAI        -3.1820   -1.2730    0.7670 c3        1 ARZ     -0.065067
     10 CAJ        -3.0670    0.1820   -1.2660 c3        1 ARZ     -0.065067
     11 NAK         1.9180   -1.4090   -0.5680 nc        1 ARZ     -0.365000
     12 NAL         3.1230   -1.1250   -0.2740 nc        1 ARZ     -0.216000
     13 SAN         1.8050    0.6800    0.9400 ss        1 ARZ      0.214200
     14 CAO        -1.2410    0.2890    0.4560 c         1 ARZ      0.662100
     15 CAP         1.0090   -0.5140    0.0210 cd        1 ARZ      0.418300
     16 CAQ         3.2690   -0.0200    0.5390 cd        1 ARZ     -0.110700
     17 CAR        -4.9890    1.0290    0.7710 c3        1 ARZ     -0.061700
     18 CAS        -4.6860   -1.4330    0.5600 c3        1 ARZ     -0.061700
     19 CAT        -4.5700    0.0160   -1.4640 c3        1 ARZ     -0.061700
     20 CAU        -2.7360    0.0900    0.2270 c3        1 ARZ     -0.102000
     21 SAV         4.8410    0.4110    1.0340 sy        1 ARZ      1.491800
     22 HNAA        6.0030   -0.4250   -0.7570 hn        1 ARZ      0.453300
     23 HNAB        5.8800    1.2160   -0.8430 hn        1 ARZ      0.453300
     24 HAEA       -6.5310   -0.4560    1.1700 hc        1 ARZ      0.047200
     25 HAF        -6.4150    1.0080   -0.8740 hc        1 ARZ      0.047200
     26 HAFA       -5.0050    2.1200   -1.1130 hc        1 ARZ      0.047200
     27 HAG        -4.4780   -2.1600   -1.4830 hc        1 ARZ      0.047200
     28 HAGA       -6.1070   -1.4770   -1.0870 hc        1 ARZ      0.047200
     29 HAH        -3.1550    2.1970    0.5980 hc        1 ARZ      0.053533
     30 HAHA       -3.2390    1.1450    2.0680 hc        1 ARZ      0.053533
     31 HAI        -2.9380   -1.3450    1.8580 hc        1 ARZ      0.053533
     32 HAIA       -2.6480   -2.1010    0.2340 hc        1 ARZ      0.053533
     33 HAJ        -2.5310   -0.6180   -1.8380 hc        1 ARZ      0.053533
     34 HAJA       -2.7380    1.1760   -1.6640 hc        1 ARZ      0.053533
     35 HAR        -5.5300    1.8430    1.3230 hc        1 ARZ      0.058700
     36 HAS        -5.0050   -2.4350    0.9540 hc        1 ARZ      0.058700
     37 HAT        -4.8050    0.0810   -2.5600 hc        1 ARZ      0.058700
     38 NAM        -0.3610   -0.6140   -0.1440 n         1 ARZ     -0.515400
     39 HAE        -5.2040   -0.3960    2.4030 hc        1 ARZ      0.047200
     40 HNAM       -0.7180   -1.3630   -0.6980 hn        1 ARZ      0.349500
@<TRIPOS>BOND
     1    1   21 1   
     2    1   22 1   
     3    1   23 1   
     4    2   14 2   
     5    3   21 2   
     6    4   21 2   
     7    5   17 1   
     8    5   18 1   
     9    5   24 1   
    10    5   39 1   
    11    6   17 1   
    12    6   19 1   
    13    6   25 1   
    14    6   26 1   
    15    7   18 1   
    16    7   19 1   
    17    7   27 1   
    18    7   28 1   
    19    8   17 1   
    20    8   20 1   
    21    8   29 1   
    22    8   30 1   
    23    9   18 1   
    24    9   20 1   
    25    9   31 1   
    26    9   32 1   
    27   10   19 1   
    28   10   20 1   
    29   10   33 1   
    30   10   34 1   
    31   11   12 1   
    32   11   15 2   
    33   12   16 2   
    34   13   15 1   
    35   13   16 1   
    36   14   20 1   
    37   14   38 1   
    38   15   38 1   
    39   16   21 1   
    40   17   35 1   
    41   18   36 1   
    42   19   37 1   
    43   38   40 1   
@<TRIPOS>SUBSTRUCTURE
     1 ARZ         1 TEMP              0 ****  ****    0 ROOT
