@<TRIPOS>MOLECULE
AS0
   68    72     1     0     0
SMALL
bcc


@<TRIPOS>ATOM
      1 C1          0.1560   -0.4720   -0.0360 c3        1 AS0      0.110700
      2 C3          2.0250   -0.0740    1.3500 c3        1 AS0      0.105400
      3 C4          3.5570    0.0170    1.3390 c3        1 AS0      0.161800
      4 C5          4.0580    0.1380    2.8060 c3        1 AS0     -0.109400
      5 C6          4.4730    1.5900    3.0330 c3        1 AS0     -0.070400
      6 O2          1.5710   -0.4140    0.0430 os        1 AS0     -0.408600
      7 C7          4.0040    2.3340    1.7900 c3        1 AS0     -0.067700
      8 C8          4.7010    3.6310    1.4310 c3        1 AS0     -0.018500
      9 C9          4.6540    4.5790    2.6220 c3        1 AS0     -0.073400
     10 C10         5.1200    5.9620    2.2300 c3        1 AS0     -0.055200
     11 C11         4.2680    6.4890    1.1280 ce        1 AS0      0.002800
     12 C12         3.8420    7.7680    1.1340 cf        1 AS0     -0.258200
     13 C13         2.9820    8.3230    0.0820 c         1 AS0      0.568300
     14 O14         2.6760    9.5220    0.0430 o         1 AS0     -0.538100
     15 C15         2.4650    7.3390   -0.9270 c3        1 AS0     -0.178400
     16 C16         3.4490    6.2200   -1.1970 c3        1 AS0     -0.037200
     17 C17         3.9270    5.5540    0.0520 ce        1 AS0     -0.105200
     18 C18         4.0930    4.2140    0.1840 c2        1 AS0     -0.062400
     19 C19         3.7160    3.2750   -0.9320 c3        1 AS0      0.014800
     20 C20         3.3330    1.8440   -0.5260 c3        1 AS0     -0.055400
     21 C21         4.1190    1.3040    0.6500 c3        1 AS0     -0.026000
     22 C22         5.5580    1.0290    0.2380 c3        1 AS0     -0.082100
     23 C23         4.7330    3.2660   -2.0390 ca        1 AS0     -0.054300
     24 C24         4.3600    2.7380   -3.2860 ca        1 AS0     -0.137500
     25 C25         5.2590    2.7200   -4.3450 ca        1 AS0     -0.098500
     26 C26         6.5580    3.2340   -4.1890 ca        1 AS0     -0.164900
     27 C27         7.4630    3.1900   -5.3350 ce        1 AS0      0.413800
     28 N28         8.6700    3.6300   -5.5240 n2        1 AS0     -0.447200
     29 O29         9.2880    4.2530   -4.5500 oh        1 AS0     -0.358500
     30 C30         6.9290    3.7640   -2.9490 ca        1 AS0     -0.098500
     31 C31         6.0240    3.7780   -1.8870 ca        1 AS0     -0.137500
     32 O32         4.1510   -1.1060    0.6930 os        1 AS0     -0.398600
     33 C33         3.6580   -2.3670    1.1130 c3        1 AS0      0.113700
     34 H11        -0.2490   -1.2430    0.6640 h1        1 AS0      0.033700
     35 H12A       -0.0510   -0.7580   -1.0970 h1        1 AS0      0.033700
     36 H13        -0.2930    0.5260    0.1960 h1        1 AS0      0.033700
     37 H31A        1.5820    0.9070    1.6690 h1        1 AS0      0.033200
     38 H32         1.6940   -0.8720    2.0710 h1        1 AS0      0.033200
     39 H51         3.2600   -0.1640    3.5280 hc        1 AS0      0.052700
     40 H52         4.9300   -0.5480    2.9490 hc        1 AS0      0.052700
     41 H61         4.0020    2.0110    3.9550 hc        1 AS0      0.045700
     42 H62         5.5830    1.6720    3.1500 hc        1 AS0      0.045700
     43 H7          2.9100    2.5770    1.9330 hc        1 AS0      0.049700
     44 H8          5.7880    3.4220    1.2020 hc        1 AS0      0.068700
     45 H91         5.3080    4.1730    3.4380 hc        1 AS0      0.049700
     46 H92         3.6090    4.6330    3.0240 hc        1 AS0      0.049700
     47 H101        6.1870    5.9230    1.8770 hc        1 AS0      0.058200
     48 H102        5.0860    6.6430    3.1210 hc        1 AS0      0.058200
     49 H12         4.1190    8.4640    1.9420 ha        1 AS0      0.149000
     50 H151        1.5030    6.9170   -0.5270 hc        1 AS0      0.072700
     51 H152        2.2260    7.8700   -1.8860 hc        1 AS0      0.072700
     52 H161        4.3520    6.6390   -1.7250 hc        1 AS0      0.059700
     53 H162        2.9720    5.4960   -1.9070 hc        1 AS0      0.059700
     54 H19         2.7610    3.6850   -1.3910 hc        1 AS0      0.060700
     55 H201        3.4620    1.1570   -1.4040 hc        1 AS0      0.058700
     56 H202        2.2390    1.8440   -0.2700 hc        1 AS0      0.058700
     57 H221        6.0190    1.9330   -0.2280 hc        1 AS0      0.045033
     58 H222        6.1630    0.7220    1.1240 hc        1 AS0      0.045033
     59 H223        5.5830    0.2000   -0.5120 hc        1 AS0      0.045033
     60 H24         3.3460    2.3320   -3.4240 ha        1 AS0      0.136500
     61 H25         4.9500    2.2990   -5.3140 ha        1 AS0      0.143000
     62 H27         7.0550    2.6820   -6.2370 h4        1 AS0      0.026800
     63 HO29       10.1610    4.4920   -4.9240 ho        1 AS0      0.438000
     64 H30         7.9400    4.1750   -2.7980 ha        1 AS0      0.143000
     65 H31         6.3370    4.2040   -0.9200 ha        1 AS0      0.136500
     66 H331        2.6250   -2.5320    0.7170 h1        1 AS0      0.034700
     67 H332        4.3710   -3.1010    0.6600 h1        1 AS0      0.034700
     68 H333        3.6630   -2.4540    2.2280 h1        1 AS0      0.034700
@<TRIPOS>BOND
     1    1    6 1   
     2    1   34 1   
     3    1   35 1   
     4    1   36 1   
     5    2    3 1   
     6    2    6 1   
     7    2   37 1   
     8    2   38 1   
     9    3    4 1   
    10    3   21 1   
    11    3   32 1   
    12    4    5 1   
    13    4   39 1   
    14    4   40 1   
    15    5    7 1   
    16    5   41 1   
    17    5   42 1   
    18    7    8 1   
    19    7   21 1   
    20    7   43 1   
    21    8    9 1   
    22    8   18 1   
    23    8   44 1   
    24    9   10 1   
    25    9   45 1   
    26    9   46 1   
    27   10   11 1   
    28   10   47 1   
    29   10   48 1   
    30   11   12 2   
    31   11   17 1   
    32   12   13 1   
    33   12   49 1   
    34   13   14 2   
    35   13   15 1   
    36   15   16 1   
    37   15   50 1   
    38   15   51 1   
    39   16   17 1   
    40   16   52 1   
    41   16   53 1   
    42   17   18 2   
    43   18   19 1   
    44   19   20 1   
    45   19   23 1   
    46   19   54 1   
    47   20   21 1   
    48   20   55 1   
    49   20   56 1   
    50   21   22 1   
    51   22   57 1   
    52   22   58 1   
    53   22   59 1   
    54   23   24 ar  
    55   23   31 ar  
    56   24   25 ar  
    57   24   60 1   
    58   25   26 ar  
    59   25   61 1   
    60   26   27 1   
    61   26   30 ar  
    62   27   28 2   
    63   27   62 1   
    64   28   29 1   
    65   29   63 1   
    66   30   31 ar  
    67   30   64 1   
    68   31   65 1   
    69   32   33 1   
    70   33   66 1   
    71   33   67 1   
    72   33   68 1   
@<TRIPOS>SUBSTRUCTURE
     1 AS0         1 TEMP              0 ****  ****    0 ROOT
