@<TRIPOS>MOLECULE
AS0
   68    72     1     0     0
SMALL
bcc


@<TRIPOS>ATOM
      1 C1          0.1600   -0.4770   -0.0640 c3        1 AS0      0.110700
      2 C3          2.0200   -0.0760    1.3340 c3        1 AS0      0.105400
      3 C4          3.5510    0.0160    1.3320 c3        1 AS0      0.161800
      4 C5          4.0430    0.1390    2.8020 c3        1 AS0     -0.109400
      5 C6          4.4560    1.5920    3.0310 c3        1 AS0     -0.070400
      6 O2          1.5740   -0.4170    0.0240 os        1 AS0     -0.408600
      7 C7          3.9930    2.3350    1.7840 c3        1 AS0     -0.067700
      8 C8          4.6910    3.6320    1.4300 c3        1 AS0     -0.018500
      9 C9          4.6360    4.5800    2.6190 c3        1 AS0     -0.073400
     10 C10         5.1030    5.9640    2.2290 c3        1 AS0     -0.055200
     11 C11         4.2570    6.4900    1.1220 ce        1 AS0      0.002800
     12 C12         3.8290    7.7680    1.1250 cf        1 AS0     -0.258200
     13 C13         2.9760    8.3220    0.0670 c         1 AS0      0.568300
     14 O14         2.6700    9.5210    0.0250 o         1 AS0     -0.538100
     15 C15         2.4650    7.3360   -0.9450 c3        1 AS0     -0.178400
     16 C16         3.4530    6.2190   -1.2080 c3        1 AS0     -0.037200
     17 C17         3.9230    5.5540    0.0450 ce        1 AS0     -0.105200
     18 C18         4.0900    4.2140    0.1780 c2        1 AS0     -0.062400
     19 C19         3.7210    3.2740   -0.9400 c3        1 AS0      0.014800
     20 C20         3.3370    1.8420   -0.5360 c3        1 AS0     -0.055400
     21 C21         4.1170    1.3040    0.6460 c3        1 AS0     -0.026000
     22 C22         5.5590    1.0310    0.2420 c3        1 AS0     -0.082100
     23 C23         4.7440    3.2660   -2.0410 ca        1 AS0     -0.054300
     24 C24         4.3790    2.7370   -3.2900 ca        1 AS0     -0.137500
     25 C25         5.2840    2.7200   -4.3430 ca        1 AS0     -0.098500
     26 C26         6.5810    3.2360   -4.1810 ca        1 AS0     -0.164900
     27 C27         7.4920    3.1920   -5.3210 ce        1 AS0      0.413800
     28 N28         8.7020    3.6300   -5.5030 n2        1 AS0     -0.447200
     29 O29         9.3150    4.2510   -4.5230 oh        1 AS0     -0.358500
     30 C30         6.9440    3.7660   -2.9380 ca        1 AS0     -0.098500
     31 C31         6.0340    3.7790   -1.8810 ca        1 AS0     -0.137500
     32 O32         4.1510   -1.1060    0.6900 os        1 AS0     -0.398600
     33 C33         3.6570   -2.3680    1.1080 c3        1 AS0      0.113700
     34 H11        -0.0400   -0.7650   -1.1260 h1        1 AS0      0.033700
     35 H12A       -0.2920    0.5200    0.1650 h1        1 AS0      0.033700
     36 H13        -0.2480   -1.2490    0.6350 h1        1 AS0      0.033700
     37 H31A        1.5740    0.9040    1.6490 h1        1 AS0      0.033200
     38 H32         1.6860   -0.8740    2.0530 h1        1 AS0      0.033200
     39 H51         4.9150   -0.5460    2.9510 hc        1 AS0      0.052700
     40 H52         3.2420   -0.1640    3.5190 hc        1 AS0      0.052700
     41 H61         5.5640    1.6750    3.1540 hc        1 AS0      0.045700
     42 H62         3.9790    2.0120    3.9500 hc        1 AS0      0.045700
     43 H7          2.8980    2.5760    1.9200 hc        1 AS0      0.049700
     44 H8          5.7800    3.4240    1.2070 hc        1 AS0      0.068700
     45 H91         5.2840    4.1750    3.4390 hc        1 AS0      0.049700
     46 H92         3.5880    4.6340    3.0150 hc        1 AS0      0.049700
     47 H101        6.1710    5.9260    1.8830 hc        1 AS0      0.058200
     48 H102        5.0620    6.6450    3.1200 hc        1 AS0      0.058200
     49 H12         4.1020    8.4650    1.9340 ha        1 AS0      0.149000
     50 H151        2.2320    7.8670   -1.9050 hc        1 AS0      0.072700
     51 H152        1.5020    6.9140   -0.5500 hc        1 AS0      0.072700
     52 H161        2.9800    5.4940   -1.9200 hc        1 AS0      0.059700
     53 H162        4.3580    6.6380   -1.7300 hc        1 AS0      0.059700
     54 H19         2.7680    3.6830   -1.4040 hc        1 AS0      0.060700
     55 H201        2.2420    1.8410   -0.2860 hc        1 AS0      0.058700
     56 H202        3.4720    1.1550   -1.4120 hc        1 AS0      0.058700
     57 H221        5.5880    0.2020   -0.5070 hc        1 AS0      0.045033
     58 H222        6.1590    0.7240    1.1320 hc        1 AS0      0.045033
     59 H223        6.0210    1.9350   -0.2210 hc        1 AS0      0.045033
     60 H24         3.3660    2.3300   -3.4330 ha        1 AS0      0.136500
     61 H25         4.9810    2.2980   -5.3140 ha        1 AS0      0.143000
     62 H27         7.0900    2.6870   -6.2270 h4        1 AS0      0.026800
     63 HO29       10.1910    4.4890   -4.8910 ho        1 AS0      0.438000
     64 H30         7.9540    4.1770   -2.7810 ha        1 AS0      0.143000
     65 H31         6.3400    4.2050   -0.9130 ha        1 AS0      0.136500
     66 H331        4.3730   -3.1010    0.6590 h1        1 AS0      0.034700
     67 H332        2.6270   -2.5340    0.7050 h1        1 AS0      0.034700
     68 H333        3.6560   -2.4540    2.2230 h1        1 AS0      0.034700
@<TRIPOS>BOND
     1    1    6 1   
     2    1   34 1   
     3    1   35 1   
     4    1   36 1   
     5    2    3 1   
     6    2    6 1   
     7    2   37 1   
     8    2   38 1   
     9    3    4 1   
    10    3   21 1   
    11    3   32 1   
    12    4    5 1   
    13    4   39 1   
    14    4   40 1   
    15    5    7 1   
    16    5   41 1   
    17    5   42 1   
    18    7    8 1   
    19    7   21 1   
    20    7   43 1   
    21    8    9 1   
    22    8   18 1   
    23    8   44 1   
    24    9   10 1   
    25    9   45 1   
    26    9   46 1   
    27   10   11 1   
    28   10   47 1   
    29   10   48 1   
    30   11   12 2   
    31   11   17 1   
    32   12   13 1   
    33   12   49 1   
    34   13   14 2   
    35   13   15 1   
    36   15   16 1   
    37   15   50 1   
    38   15   51 1   
    39   16   17 1   
    40   16   52 1   
    41   16   53 1   
    42   17   18 2   
    43   18   19 1   
    44   19   20 1   
    45   19   23 1   
    46   19   54 1   
    47   20   21 1   
    48   20   55 1   
    49   20   56 1   
    50   21   22 1   
    51   22   57 1   
    52   22   58 1   
    53   22   59 1   
    54   23   24 ar  
    55   23   31 ar  
    56   24   25 ar  
    57   24   60 1   
    58   25   26 ar  
    59   25   61 1   
    60   26   27 1   
    61   26   30 ar  
    62   27   28 2   
    63   27   62 1   
    64   28   29 1   
    65   29   63 1   
    66   30   31 ar  
    67   30   64 1   
    68   31   65 1   
    69   32   33 1   
    70   33   66 1   
    71   33   67 1   
    72   33   68 1   
@<TRIPOS>SUBSTRUCTURE
     1 AS0         1 TEMP              0 ****  ****    0 ROOT
