@<TRIPOS>MOLECULE
AS0
   68    72     1     0     0
SMALL
bcc


@<TRIPOS>ATOM
      1 C1         -0.3230    0.1560    9.2330 c3        1 AS0      0.110700
      2 C3         -1.5020    1.0140    7.3770 c3        1 AS0      0.105400
      3 C4         -1.5910    2.2270    6.4410 c3        1 AS0      0.161800
      4 C5         -2.8510    2.0700    5.5430 c3        1 AS0     -0.109400
      5 C6         -2.3770    1.6600    4.1490 c3        1 AS0     -0.070400
      6 O2         -0.4920    1.2550    8.3520 os        1 AS0     -0.408600
      7 C7         -0.8910    1.3660    4.3090 c3        1 AS0     -0.067700
      8 C8         -0.0110    1.4610    3.0790 c3        1 AS0     -0.018500
      9 C9         -0.5760    0.5720    1.9800 c3        1 AS0     -0.073400
     10 C10         0.3970    0.4510    0.8300 c3        1 AS0     -0.055200
     11 C11         1.6900   -0.1050    1.3170 ce        1 AS0      0.002800
     12 C12         2.3490   -1.0450    0.6110 cf        1 AS0     -0.258200
     13 C13         3.6130   -1.6370    1.0640 c         1 AS0      0.568300
     14 O14         4.2620   -2.4250    0.3650 o         1 AS0     -0.538100
     15 C15         4.0560   -1.2550    2.4480 c3        1 AS0     -0.178400
     16 C16         3.6510    0.1590    2.8110 c3        1 AS0     -0.037200
     17 C17         2.1980    0.4210    2.5870 ce        1 AS0     -0.105200
     18 C18         1.4130    1.1300    3.4380 c2        1 AS0     -0.062400
     19 C19         1.9570    1.6430    4.7460 c3        1 AS0      0.014800
     20 C20         0.9410    1.8490    5.8790 c3        1 AS0     -0.055400
     21 C21        -0.4160    2.3310    5.4120 c3        1 AS0     -0.026000
     22 C22        -0.3270    3.7760    4.9420 c3        1 AS0     -0.082100
     23 C23         2.8190    2.8610    4.5680 ca        1 AS0     -0.055300
     24 C24         3.6770    3.2330    5.6150 ca        1 AS0     -0.136000
     25 C25         4.5040    4.3430    5.4950 ca        1 AS0     -0.099500
     26 C26         4.4980    5.1100    4.3190 ca        1 AS0     -0.136900
     27 C27         5.3900    6.2690    4.2470 ce        1 AS0      0.406800
     28 N28         5.4910    7.0210    3.1830 n2        1 AS0     -0.444200
     29 O29         6.3390    8.0220    3.2870 oh        1 AS0     -0.357500
     30 C30         3.6460    4.7400    3.2720 ca        1 AS0     -0.099500
     31 C31         2.8170    3.6270    3.3980 ca        1 AS0     -0.136000
     32 O32        -1.6350    3.4540    7.1630 os        1 AS0     -0.398600
     33 C33        -2.5700    3.4880    8.2280 c3        1 AS0      0.113700
     34 H11         0.0020   -0.7540    8.6700 h1        1 AS0      0.034033
     35 H12A       -1.2710   -0.0580    9.7860 h1        1 AS0      0.034033
     36 H13         0.4770    0.4880    9.9400 h1        1 AS0      0.034033
     37 H31A       -1.2580    0.0890    6.7900 h1        1 AS0      0.033200
     38 H32        -2.4870    0.8620    7.9000 h1        1 AS0      0.033200
     39 H51        -3.3910    3.0490    5.5020 hc        1 AS0      0.052700
     40 H52        -3.5500    1.3080    5.9640 hc        1 AS0      0.052700
     41 H61        -2.9270    0.7620    3.7780 hc        1 AS0      0.045700
     42 H62        -2.5410    2.4880    3.4150 hc        1 AS0      0.045700
     43 H7         -0.7940    0.3110    4.7020 hc        1 AS0      0.049700
     44 H8         -0.0160    2.5250    2.6960 hc        1 AS0      0.068700
     45 H91        -1.5430    1.0090    1.6180 hc        1 AS0      0.049700
     46 H92        -0.8000   -0.4460    2.3930 hc        1 AS0      0.049700
     47 H101        0.5850    1.4620    0.3760 hc        1 AS0      0.058200
     48 H102       -0.0400   -0.2010    0.0280 hc        1 AS0      0.058200
     49 H12         1.9630   -1.4200   -0.3500 ha        1 AS0      0.149000
     50 H151        3.5910   -1.9840    3.1650 hc        1 AS0      0.072700
     51 H152        5.1690   -1.3620    2.5320 hc        1 AS0      0.072700
     52 H161        4.2300    0.8860    2.1750 hc        1 AS0      0.059700
     53 H162        3.9570    0.3490    3.8720 hc        1 AS0      0.059700
     54 H19         2.6440    0.8320    5.1500 hc        1 AS0      0.060700
     55 H201        0.8200    0.8670    6.4110 hc        1 AS0      0.059200
     56 H202        1.3550    2.5760    6.6270 hc        1 AS0      0.059200
     57 H221       -0.0830    4.4390    5.8090 hc        1 AS0      0.045033
     58 H222        0.4760    3.8970    4.1760 hc        1 AS0      0.045033
     59 H223       -1.3020    4.1050    4.5090 hc        1 AS0      0.045033
     60 H24         3.6930    2.6400    6.5420 ha        1 AS0      0.137500
     61 H25         5.1690    4.6200    6.3270 ha        1 AS0      0.141500
     62 H27         5.9800    6.4670    5.1670 h4        1 AS0      0.003800
     63 HO29        6.2940    8.4720    2.4190 ho        1 AS0      0.439000
     64 H30         3.6230    5.3250    2.3390 ha        1 AS0      0.141500
     65 H31         2.1570    3.3490    2.5610 ha        1 AS0      0.137500
     66 H331       -2.2100    2.8590    9.0800 h1        1 AS0      0.035033
     67 H332       -3.5790    3.1450    7.8920 h1        1 AS0      0.035033
     68 H333       -2.6010    4.5660    8.5270 h1        1 AS0      0.035033
@<TRIPOS>BOND
     1    1    6 1   
     2    1   34 1   
     3    1   35 1   
     4    1   36 1   
     5    2    3 1   
     6    2    6 1   
     7    2   37 1   
     8    2   38 1   
     9    3    4 1   
    10    3   21 1   
    11    3   32 1   
    12    4    5 1   
    13    4   39 1   
    14    4   40 1   
    15    5    7 1   
    16    5   41 1   
    17    5   42 1   
    18    7    8 1   
    19    7   21 1   
    20    7   43 1   
    21    8    9 1   
    22    8   18 1   
    23    8   44 1   
    24    9   10 1   
    25    9   45 1   
    26    9   46 1   
    27   10   11 1   
    28   10   47 1   
    29   10   48 1   
    30   11   12 2   
    31   11   17 1   
    32   12   13 1   
    33   12   49 1   
    34   13   14 2   
    35   13   15 1   
    36   15   16 1   
    37   15   50 1   
    38   15   51 1   
    39   16   17 1   
    40   16   52 1   
    41   16   53 1   
    42   17   18 2   
    43   18   19 1   
    44   19   20 1   
    45   19   23 1   
    46   19   54 1   
    47   20   21 1   
    48   20   55 1   
    49   20   56 1   
    50   21   22 1   
    51   22   57 1   
    52   22   58 1   
    53   22   59 1   
    54   23   24 ar  
    55   23   31 ar  
    56   24   25 ar  
    57   24   60 1   
    58   25   26 ar  
    59   25   61 1   
    60   26   27 1   
    61   26   30 ar  
    62   27   28 2   
    63   27   62 1   
    64   28   29 1   
    65   29   63 1   
    66   30   31 ar  
    67   30   64 1   
    68   31   65 1   
    69   32   33 1   
    70   33   66 1   
    71   33   67 1   
    72   33   68 1   
@<TRIPOS>SUBSTRUCTURE
     1 AS0         1 TEMP              0 ****  ****    0 ROOT
