@<TRIPOS>MOLECULE
AS0
   68    67     1     0     0
SMALL
bcc


@<TRIPOS>ATOM
      1 C1         -4.4680    0.3860   -4.0320 c3        1 AS0     -0.074000
      2 C3         -2.5570   -0.7040   -2.9680 c3        1 AS0     -0.040000
      3 C4         -1.0430   -0.4320   -3.0420 c3        1 AS0      0.093000
      4 C5         -0.7800    0.9880   -3.5590 c3        1 AS0     -0.176000
      5 C6          0.6710    1.4670   -2.7310 c3        1 AS0     -0.151000
      6 O2         -3.1870   -0.3050   -4.2140 os        1 AS0     -0.285000
      7 C7          0.8930    0.2950   -1.5930 c3        1 AS0     -0.105000
      8 C8          1.5250    0.6550   -0.2040 c3        1 AS0     -0.061000
      9 C9          2.7320    1.3810   -0.4580 c3        1 AS0     -0.152000
     10 C10         3.5270    1.7560    0.6990 c3        1 AS0     -0.138000
     11 C11         3.5870    0.6150    1.9950 c2        1 AS0      0.007000
     12 C12         4.5810    0.6540    2.7890 c2        1 AS0     -0.239000
     13 C13         4.8870   -0.4120    3.6260 c1        1 AS0      0.261000
     14 O14         5.8630   -0.3430    4.3290 o         1 AS0     -0.299000
     15 C15         4.0630   -1.6710    3.6400 c2        1 AS0     -0.164000
     16 C16         2.8930   -1.7080    2.7000 c2        1 AS0     -0.164000
     17 C17         2.6920   -0.5770    1.9130 c1        1 AS0     -0.100000
     18 C18         1.6620   -0.6500    0.6930 c2        1 AS0     -0.053000
     19 C19         0.3520   -1.4420    0.8160 c3        1 AS0     -0.037000
     20 C20        -0.2950   -1.7090   -0.7540 c3        1 AS0     -0.135000
     21 C21        -0.3740   -0.4420   -1.5190 c3        1 AS0     -0.036000
     22 C22        -1.2730    0.4260   -0.7000 c3        1 AS0     -0.212000
     23 C23        -0.4800   -0.6040    1.3570 c2        1 AS0     -0.048000
     24 C24        -0.0070    0.3900    2.2040 c2        1 AS0     -0.136000
     25 C25        -0.8980    1.1510    2.9420 c1        1 AS0     -0.093000
     26 C26        -2.2620    0.9220    2.8380 c1        1 AS0     -0.081000
     27 C27        -3.2270    1.6930    3.7210 c2        1 AS0     -0.088000
     28 N28        -3.2490    1.4740    5.0340 n1        1 AS0     -0.059000
     29 O29        -2.4020    0.5520    5.5920 o         1 AS0     -0.256000
     30 C30        -2.7330   -0.0600    2.0020 c1        1 AS0     -0.105000
     31 C31        -1.8380   -0.8300    1.2550 c1        1 AS0     -0.143000
     32 O32        -0.4700   -1.3040   -3.7950 os        1 AS0     -0.282000
     33 C33        -1.3030   -1.8080   -4.8250 c3        1 AS0     -0.074000
     34 H11        -5.1490   -0.2580   -3.7350 h1        1 AS0      0.073000
     35 H12A       -4.7530    0.7980   -4.8980 h1        1 AS0      0.073000
     36 H13        -4.3670    1.0890   -3.3530 h1        1 AS0      0.073000
     37 H31A       -2.7120   -1.6720   -2.8150 h1        1 AS0      0.079000
     38 H32        -2.9510   -0.1810   -2.2160 h1        1 AS0      0.079000
     39 H51        -0.6370    0.9820   -4.5170 hc        1 AS0      0.097000
     40 H52        -1.5200    1.5800   -3.3250 hc        1 AS0      0.097000
     41 H61         1.4270    1.4910   -3.3520 hc        1 AS0      0.083000
     42 H62         0.5510    2.3280   -2.3110 hc        1 AS0      0.083000
     43 H7          1.5170   -0.3180   -1.9900 hc        1 AS0      0.109000
     44 H8          0.9200    1.2490    0.2450 hc        1 AS0      0.102000
     45 H91         3.2950    0.8350   -1.0480 hc        1 AS0      0.090500
     46 H92         2.4920    2.2040   -0.9400 hc        1 AS0      0.090500
     47 H101        3.1690    2.5980    1.0520 hc        1 AS0      0.097000
     48 H102        4.4490    1.9200    0.3940 hc        1 AS0      0.097000
     49 H12         5.1540    1.4360    2.7900 ha        1 AS0      0.149000
     50 H151        3.6850   -1.9880    4.5150 ha        1 AS0      0.105250
     51 H152        4.7190   -2.3950    3.4580 ha        1 AS0      0.105250
     52 H161        2.9800   -2.5000    2.1520 ha        1 AS0      0.105250
     53 H162        2.0580   -1.9130    3.1870 ha        1 AS0      0.105250
     54 H19         0.3420   -2.2050    1.4460 hc        1 AS0      0.103000
     55 H201       -1.2060   -2.0940   -0.6700 hc        1 AS0      0.099500
     56 H202        0.2800   -2.3420   -1.2380 hc        1 AS0      0.099500
     57 H221       -2.0700   -0.0680   -0.4630 hc        1 AS0      0.081000
     58 H222       -0.8170    0.6940    0.0940 hc        1 AS0      0.081000
     59 H223       -1.5250    1.2300   -1.2240 hc        1 AS0      0.081000
     60 H24         0.9600    0.5540    2.2800 ha        1 AS0      0.139000
     61 H25        -0.5490    1.8850    3.5660 ha        1 AS0      0.155000
     62 H27        -3.8330    2.3530    3.3250 h4        1 AS0      0.156000
     63 HO29       -2.6180    0.4300    6.4420 ho        1 AS0      0.237000
     64 H30        -3.7270   -0.2260    1.9280 ha        1 AS0      0.132000
     65 H31        -2.1770   -1.5380    0.6520 ha        1 AS0      0.135000
     66 H331       -1.5340   -2.7260   -4.6340 h1        1 AS0      0.078333
     67 H332       -2.1070   -1.2780   -4.8760 h1        1 AS0      0.078333
     68 H333       -0.8310   -1.7630   -5.6730 h1        1 AS0      0.078333
@<TRIPOS>BOND
     1    1    6 1   
     2    1   34 1   
     3    1   35 1   
     4    1   36 1   
     5    2    3 1   
     6    2    6 1   
     7    2   37 1   
     8    2   38 1   
     9    3    4 1   
    10    3   21 1   
    11    3   32 1   
    12    4    5 1   
    13    4   39 1   
    14    4   40 1   
    15    5    7 1   
    16    5   41 1   
    17    5   42 1   
    18    7    8 1   
    19    7   21 1   
    20    7   43 1   
    21    8    9 1   
    22    8   18 1   
    23    8   44 1   
    24    9   10 1   
    25    9   45 1   
    26    9   46 1   
    27   10   11 1   
    28   10   47 1   
    29   10   48 1   
    30   11   12 1   
    31   11   17 1   
    32   12   13 1   
    33   12   49 1   
    34   13   14 1   
    35   15   16 1   
    36   15   50 1   
    37   15   51 1   
    38   16   52 1   
    39   16   53 1   
    40   17   18 1   
    41   18   19 1   
    42   19   20 1   
    43   19   23 1   
    44   19   54 1   
    45   20   21 1   
    46   20   55 1   
    47   20   56 1   
    48   21   22 1   
    49   22   57 1   
    50   22   58 1   
    51   22   59 1   
    52   23   24 1   
    53   23   31 1   
    54   24   25 1   
    55   24   60 1   
    56   25   61 1   
    57   26   27 1   
    58   26   30 1   
    59   27   28 1   
    60   27   62 1   
    61   29   63 1   
    62   30   64 1   
    63   31   65 1   
    64   32   33 1   
    65   33   66 1   
    66   33   67 1   
    67   33   68 1   
@<TRIPOS>SUBSTRUCTURE
     1 AS0         1 TEMP              0 ****  ****    0 ROOT
