@<TRIPOS>MOLECULE
AS1
   35    34     1     0     0
SMALL
bcc


@<TRIPOS>ATOM
      1 O51        -0.1670    0.5240    0.1520 o         1 AS1     -0.858300
      2 O52         1.3950   -0.6020   -0.9690 o         1 AS1     -0.858300
      3 C5          0.9790   -0.0140    0.0690 c         1 AS1      0.888600
      4 C4          1.9460    0.0880    1.2930 c3        1 AS1      0.030500
      5 N4          1.4570    0.9450    2.3660 n3        1 AS1     -0.897800
      6 C3          2.3170   -1.3280    1.7460 c3        1 AS1     -0.068400
      7 C2          3.4480   -1.3410    2.7530 c3        1 AS1     -0.084400
      8 C1          3.8370   -2.7780    3.1160 c3        1 AS1      0.178800
      9 N2          4.9960   -2.8630    3.9760 nh        1 AS1     -0.855200
     10 C           5.2460   -4.1470    4.6290 c2        1 AS1      0.770100
     11 N3          4.9600   -5.3030    4.0700 n2        1 AS1     -0.888100
     12 N1          5.7910   -4.0430    5.9440 nh        1 AS1     -0.743200
     13 CA          6.4910   -5.1780    6.5480 c3        1 AS1      0.089500
     14 CG          7.9850   -5.2720    6.0940 c         1 AS1      0.889600
     15 OG2         8.5970   -4.2060    5.7710 o         1 AS1     -0.874300
     16 OG1         8.5490   -6.4050    6.0940 o         1 AS1     -0.874300
     17 CB          6.5180   -5.0520    8.0800 c3        1 AS1     -0.161400
     18 CD          5.1890   -5.2070    8.8200 c         1 AS1      0.910600
     19 OD1         4.5160   -6.2770    8.7130 o         1 AS1     -0.885800
     20 OD2         4.8350   -4.2790    9.6170 o         1 AS1     -0.885800
     21 H4          2.8850    0.5840    0.9070 h1        1 AS1      0.041700
     22 HN41        0.7570    1.5570    1.9760 hn        1 AS1      0.328800
     23 HN42        0.9930    0.3800    3.0540 hn        1 AS1      0.328800
     24 H31         2.6140   -1.9000    0.8270 hc        1 AS1      0.044200
     25 H32         1.4180   -1.8370    2.1810 hc        1 AS1      0.044200
     26 H21         3.1430   -0.7900    3.6800 hc        1 AS1      0.038700
     27 H22         4.3330   -0.8040    2.3230 hc        1 AS1      0.038700
     28 H11         4.0800   -3.3280    2.1610 h1        1 AS1      0.024700
     29 H12         2.9330   -3.2840    3.5690 h1        1 AS1      0.024700
     30 HN2         5.0440   -2.0860    4.6040 hn        1 AS1      0.377800
     31 HN3         4.4630   -5.2320    3.2080 hn        1 AS1      0.347400
     32 HN1         6.3850   -3.2320    6.0310 hn        1 AS1      0.388800
     33 HA          5.9620   -6.1350    6.2860 h1        1 AS1      0.092700
     34 HB1         6.9770   -4.0720    8.3680 hc        1 AS1      0.026700
     35 HB2         7.1940   -5.8720    8.4410 hc        1 AS1      0.026700
@<TRIPOS>BOND
     1    1    3 1   
     2    2    3 1   
     3    3    4 1   
     4    4    5 1   
     5    4    6 1   
     6    4   21 1   
     7    5   22 1   
     8    5   23 1   
     9    6    7 1   
    10    6   24 1   
    11    6   25 1   
    12    7    8 1   
    13    7   26 1   
    14    7   27 1   
    15    8    9 1   
    16    8   28 1   
    17    8   29 1   
    18    9   10 1   
    19    9   30 1   
    20   10   11 2   
    21   10   12 1   
    22   11   31 1   
    23   12   13 1   
    24   12   32 1   
    25   13   14 1   
    26   13   17 1   
    27   13   33 1   
    28   14   15 1   
    29   14   16 1   
    30   17   18 1   
    31   17   34 1   
    32   17   35 1   
    33   18   19 1   
    34   18   20 1   
@<TRIPOS>SUBSTRUCTURE
     1 AS1         1 TEMP              0 ****  ****    0 ROOT
