@<TRIPOS>MOLECULE
AS1
   35    33     1     0     0
SMALL
bcc


@<TRIPOS>ATOM
      1 O51        -0.0730    5.9700    2.3480 o         1 AS1     -0.859800
      2 O52        -2.0510    5.8510    1.4680 o         1 AS1     -0.859800
      3 C5         -0.8290    5.6010    1.4160 c         1 AS1      0.889600
      4 C4         -0.2910    4.7600    0.3140 c3        1 AS1      0.032500
      5 N4          0.8240    5.4370   -0.3070 n3        1 AS1     -0.898800
      6 C3          0.1740    3.4200    0.8820 c3        1 AS1     -0.071400
      7 C2         -0.1490    2.2950   -0.1230 c3        1 AS1     -0.081400
      8 C1          0.0600    0.9230    0.5570 c3        1 AS1      0.187800
      9 N2         -0.0360   -0.1140   -0.4260 nh        1 AS1     -0.811000
     10 C          -0.2940   -1.4520   -0.0260 c2        1 AS1      0.345000
     11 N3         -1.2380   -1.7050    0.8440 n1        1 AS1     -0.350000
     12 N1          0.4770   -2.5230   -0.5760 nh        1 AS1     -0.646000
     13 CA         -0.0340   -3.8500   -0.5490 c3        1 AS1      0.074500
     14 CG         -0.4240   -4.2760   -1.9680 c         1 AS1      0.882600
     15 OG2         0.4370   -4.2510   -2.8950 o         1 AS1     -0.873800
     16 OG1        -1.5790   -4.7240   -2.1940 o         1 AS1     -0.873800
     17 CB          1.0110   -4.7740   -0.0210 c3        1 AS1     -0.163400
     18 CD          0.5000   -6.1850   -0.0690 c         1 AS1      0.912600
     19 OD1        -0.3580   -6.5710    0.7660 o         1 AS1     -0.885300
     20 OD2         0.8480   -6.9470   -1.0110 o         1 AS1     -0.885300
     21 H4         -0.9950    4.6060   -0.3560 h1        1 AS1      0.043700
     22 HN41        0.6650    5.5260   -1.2060 hn        1 AS1      0.327800
     23 HN42        0.9250    6.2770    0.0730 hn        1 AS1      0.327800
     24 H31         1.1440    3.4490    1.0420 hc        1 AS1      0.040200
     25 H32        -0.2990    3.2430    1.7390 hc        1 AS1      0.040200
     26 H21        -1.0900    2.3770   -0.4180 hc        1 AS1      0.042200
     27 H22         0.4450    2.3690   -0.8990 hc        1 AS1      0.042200
     28 H11         0.9490    0.8960    0.9750 h1        1 AS1      0.012700
     29 H12        -0.6290    0.7890    1.2450 h1        1 AS1      0.012700
     30 HN2         0.0760    0.0840   -1.3080 hn        1 AS1      0.437800
     31 HN3        -1.7340   -1.0170    1.1970 DU        1 AS1      0.101000
     32 HN1         1.3350   -2.3680   -0.8690 hn        1 AS1      0.364800
     33 HA         -0.8140   -3.8840    0.0240 h1        1 AS1      0.083700
     34 HB1         1.2220   -4.5330    0.9060 hc        1 AS1      0.028700
     35 HB2         1.8220   -4.7000   -0.5720 hc        1 AS1      0.028700
@<TRIPOS>BOND
     1    1    3 1   
     2    2    3 1   
     3    3    4 1   
     4    4    5 1   
     5    4    6 1   
     6    4   21 1   
     7    5   22 1   
     8    5   23 1   
     9    6    7 1   
    10    6   24 1   
    11    6   25 1   
    12    7    8 1   
    13    7   26 1   
    14    7   27 1   
    15    8    9 1   
    16    8   28 1   
    17    8   29 1   
    18    9   10 1   
    19    9   30 1   
    20   10   11 2   
    21   10   12 1   
    22   12   13 1   
    23   12   32 1   
    24   13   14 1   
    25   13   17 1   
    26   13   33 1   
    27   14   15 1   
    28   14   16 1   
    29   17   18 1   
    30   17   34 1   
    31   17   35 1   
    32   18   19 1   
    33   18   20 1   
@<TRIPOS>SUBSTRUCTURE
     1 AS1         1 TEMP              0 ****  ****    0 ROOT
