@<TRIPOS>MOLECULE
AS1
   35    34     1     0     0
SMALL
bcc


@<TRIPOS>ATOM
      1 O51         7.1740    0.6130   -0.6910 o         1 AS1     -0.859300
      2 O52         6.5540   -1.4230   -0.0360 o         1 AS1     -0.859300
      3 C5          6.3610   -0.1780   -0.1230 c         1 AS1      0.889600
      4 C4          5.0770    0.4140    0.5420 c3        1 AS1      0.030500
      5 N4          5.0890    1.8680    0.6540 n3        1 AS1     -0.899800
      6 C3          3.8450   -0.1490   -0.1780 c3        1 AS1     -0.068400
      7 C2          2.5530    0.1550    0.5510 c3        1 AS1     -0.087400
      8 C1          1.3490   -0.4250   -0.2020 c3        1 AS1      0.185800
      9 N2          0.0950   -0.1900    0.4860 nh        1 AS1     -0.799200
     10 C          -1.1290   -0.5350   -0.2210 c2        1 AS1      0.745100
     11 N3         -1.0700   -1.3100   -1.2740 n2        1 AS1     -0.923100
     12 N1         -2.2960    0.0940    0.3430 nh        1 AS1     -0.805200
     13 CA         -3.5960   -0.2420   -0.2270 c3        1 AS1      0.079500
     14 CG         -3.9420   -1.7620   -0.1340 c         1 AS1      0.879600
     15 OG2        -4.1110   -2.2920    1.0030 o         1 AS1     -0.865800
     16 OG1        -4.0350   -2.4130   -1.2180 o         1 AS1     -0.865800
     17 CB         -4.7330    0.5360    0.4460 c3        1 AS1     -0.157400
     18 CD         -4.8100    2.0290    0.1280 c         1 AS1      0.907600
     19 OD1        -4.8880    2.4210   -1.0760 o         1 AS1     -0.884800
     20 OD2        -4.8810    2.8480    1.1000 o         1 AS1     -0.884800
     21 H4          5.0640    0.0240    1.6030 h1        1 AS1      0.041700
     22 HN41        6.0380    2.1800    0.5260 hn        1 AS1      0.328300
     23 HN42        4.5530    2.2630   -0.0980 hn        1 AS1      0.328300
     24 H31         3.7960    0.2580   -1.2220 hc        1 AS1      0.044200
     25 H32         3.9870   -1.2590   -0.2580 hc        1 AS1      0.044200
     26 H21         2.6010   -0.2770    1.5840 hc        1 AS1      0.033700
     27 H22         2.4290    1.2640    0.6610 hc        1 AS1      0.033700
     28 H11         1.3500    0.0030   -1.2470 h1        1 AS1      0.037200
     29 H12         1.4800   -1.5390   -0.3000 h1        1 AS1      0.037200
     30 HN2         0.0510    0.7510    0.8300 hn        1 AS1      0.371800
     31 HN3        -1.9560   -1.6120   -1.6310 hn        1 AS1      0.432400
     32 HN1        -2.3210    0.0290    1.3420 hn        1 AS1      0.384800
     33 HA         -3.5730    0.0560   -1.3160 h1        1 AS1      0.069700
     34 HB1        -5.6890    0.0720    0.0870 hc        1 AS1      0.028200
     35 HB2        -4.6860    0.3950    1.5560 hc        1 AS1      0.028200
@<TRIPOS>BOND
     1    1    3 1   
     2    2    3 1   
     3    3    4 1   
     4    4    5 1   
     5    4    6 1   
     6    4   21 1   
     7    5   22 1   
     8    5   23 1   
     9    6    7 1   
    10    6   24 1   
    11    6   25 1   
    12    7    8 1   
    13    7   26 1   
    14    7   27 1   
    15    8    9 1   
    16    8   28 1   
    17    8   29 1   
    18    9   10 1   
    19    9   30 1   
    20   10   11 2   
    21   10   12 1   
    22   11   31 1   
    23   12   13 1   
    24   12   32 1   
    25   13   14 1   
    26   13   17 1   
    27   13   33 1   
    28   14   15 1   
    29   14   16 1   
    30   17   18 1   
    31   17   34 1   
    32   17   35 1   
    33   18   19 1   
    34   18   20 1   
@<TRIPOS>SUBSTRUCTURE
     1 AS1         1 TEMP              0 ****  ****    0 ROOT
