@<TRIPOS>MOLECULE
AS2
   14    12     1     0     0
SMALL
bcc


@<TRIPOS>ATOM
      1 O          -2.2460    0.4260   -1.0160 o         1 AS2     -0.577000
      2 C          -1.0030    0.3840   -1.1870 c1        1 AS2      0.303000
      3 OXT        -0.5400    0.3040   -2.3310 os        1 AS2     -0.573000
      4 CA         -0.0820    0.5370   -0.0150 c3        1 AS2     -0.126000
      5 N           0.8830    1.5940   -0.2850 n3        1 AS2     -0.319000
      6 CB          0.6410   -0.7520    0.2220 c3        1 AS2     -0.209000
      7 CG         -0.1670   -1.6150    1.1250 c2        1 AS2      0.182000
      8 OD2        -0.9270   -2.4480    0.6550 o         1 AS2     -0.368000
      9 HA         -0.5990    0.7670    0.7730 h1        1 AS2      0.084000
     10 HN          1.4070    1.7230    0.4550 hn        1 AS2      0.127500
     11 HNA         0.4390    2.3700   -0.4830 hn        1 AS2      0.127500
     12 HB          0.7770   -1.2060   -0.6220 hc        1 AS2      0.095000
     13 HBA         1.5090   -0.5680    0.6360 hc        1 AS2      0.095000
     14 HG         -0.0910   -1.5170    2.0750 h4        1 AS2      0.157000
@<TRIPOS>BOND
     1    1    2 1   
     2    2    4 1   
     3    4    5 1   
     4    4    6 1   
     5    4    9 1   
     6    5   10 1   
     7    5   11 1   
     8    6    7 1   
     9    6   12 1   
    10    6   13 1   
    11    7    8 1   
    12    7   14 1   
@<TRIPOS>SUBSTRUCTURE
     1 AS2         1 TEMP              0 ****  ****    0 ROOT
