@<TRIPOS>MOLECULE
AS2
   14    13     1     0     0
SMALL
bcc


@<TRIPOS>ATOM
      1 O           2.3990   -0.6890   -0.3250 o         1 AS2     -0.838300
      2 C           1.4800    0.1230   -0.0240 c         1 AS2      0.890600
      3 OXT         1.6160    1.3760    0.0410 o         1 AS2     -0.838300
      4 CA          0.0700   -0.4630    0.3240 c3        1 AS2      0.017500
      5 N          -0.0660   -1.8980    0.1140 n3        1 AS2     -0.894800
      6 CB         -0.9840    0.3490   -0.4290 c3        1 AS2     -0.186400
      7 CG         -2.3620    0.0940    0.0760 c         1 AS2      0.584900
      8 OD2        -3.3860    0.2500   -0.5990 o         1 AS2     -0.596100
      9 HA         -0.0730   -0.2880    1.4310 h1        1 AS2      0.040700
     10 HN         -0.0590   -2.0790   -0.8740 hn        1 AS2      0.334800
     11 HNA         0.7650   -2.3310    0.4840 hn        1 AS2      0.334800
     12 HB         -0.7330    1.4370   -0.2760 hc        1 AS2      0.084700
     13 HBA        -0.9290    0.1490   -1.5310 hc        1 AS2      0.084700
     14 HG         -2.4310   -0.2460    1.1360 h4        1 AS2     -0.017800
@<TRIPOS>BOND
     1    1    2 1   
     2    2    3 1   
     3    2    4 1   
     4    4    5 1   
     5    4    6 1   
     6    4    9 1   
     7    5   10 1   
     8    5   11 1   
     9    6    7 1   
    10    6   12 1   
    11    6   13 1   
    12    7    8 2   
    13    7   14 1   
@<TRIPOS>SUBSTRUCTURE
     1 AS2         1 TEMP              0 ****  ****    0 ROOT
