@<TRIPOS>MOLECULE
AS3
   26    26     1     0     0
SMALL
bcc


@<TRIPOS>ATOM
      1 N8         -0.1500   -0.1230   -0.1150 n4        1 AS3     -0.818300
      2 C1          1.3300   -0.0730   -0.0610 ca        1 AS3      0.447200
      3 N6          1.8750   -0.0940    1.1870 nb        1 AS3     -0.667000
      4 C5          3.2220   -0.0480    1.2680 ca        1 AS3      0.472600
      5 C9          3.8700   -0.0650    2.6250 c3        1 AS3     -0.144700
      6 C10         3.7530    1.2840    3.3090 c3        1 AS3     -0.075400
      7 C11         4.4640    1.2710    4.6390 c3        1 AS3     -0.099100
      8 C4          4.0430    0.0180    0.1120 ca        1 AS3     -0.199300
      9 C3          3.4630    0.0370   -1.1570 ca        1 AS3      0.000700
     10 C7          4.2940    0.0900   -2.3800 c3        1 AS3     -0.080800
     11 C2          2.0590   -0.0100   -1.2600 ca        1 AS3     -0.216300
     12 HN81       -0.4520   -0.1250   -1.0930 hn        1 AS3      0.469800
     13 HN82       -0.4870   -0.9750    0.3520 hn        1 AS3      0.469800
     14 H91         4.9530   -0.3360    2.5020 hc        1 AS3      0.078200
     15 H92         3.3970   -0.8550    3.2690 hc        1 AS3      0.078200
     16 H101        2.6710    1.5370    3.4630 hc        1 AS3      0.048200
     17 H102        4.1940    2.0810    2.6540 hc        1 AS3      0.048200
     18 H111        4.3680    2.2690    5.1330 hc        1 AS3      0.047367
     19 H112        4.0250    0.4990    5.3160 hc        1 AS3      0.047367
     20 H113        5.5500    1.0470    4.5060 hc        1 AS3      0.047367
     21 H4          5.1390    0.0570    0.2260 ha        1 AS3      0.182000
     22 H71         4.5480   -0.9510   -2.7100 hc        1 AS3      0.076033
     23 H72         3.7550    0.6020   -3.2150 hc        1 AS3      0.076033
     24 H73         5.2520    0.6370   -2.1870 hc        1 AS3      0.076033
     25 H2          1.5800    0.0050   -2.2510 ha        1 AS3      0.166000
     26 H83        -0.5430    0.6950    0.3670 hn        1 AS3      0.469800
@<TRIPOS>BOND
     1    1    2 1   
     2    1   12 1   
     3    1   13 1   
     4    1   26 1   
     5    2    3 ar  
     6    2   11 ar  
     7    3    4 ar  
     8    4    5 1   
     9    4    8 ar  
    10    5    6 1   
    11    5   14 1   
    12    5   15 1   
    13    6    7 1   
    14    6   16 1   
    15    6   17 1   
    16    7   18 1   
    17    7   19 1   
    18    7   20 1   
    19    8    9 ar  
    20    8   21 1   
    21    9   10 1   
    22    9   11 ar  
    23   10   22 1   
    24   10   23 1   
    25   10   24 1   
    26   11   25 1   
@<TRIPOS>SUBSTRUCTURE
     1 AS3         1 TEMP              0 ****  ****    0 ROOT
