@<TRIPOS>MOLECULE
AS3
   25    25     1     0     0
SMALL
bcc


@<TRIPOS>ATOM
      1 N8         -1.7000   -2.6970    0.1400 nh        1 AS3     -0.923500
      2 C1         -1.2660   -1.3700   -0.0210 ca        1 AS3      0.630200
      3 N6          0.0550   -1.1330   -0.2980 nb        1 AS3     -0.729000
      4 C5          0.4690    0.1520   -0.3410 ca        1 AS3      0.453600
      5 C9          1.9200    0.4240   -0.6340 c3        1 AS3     -0.129700
      6 C10         2.8110    0.0010    0.5180 c3        1 AS3     -0.077400
      7 C11         4.2520    0.3440    0.2430 c3        1 AS3     -0.094100
      8 C4         -0.3930    1.2480   -0.1390 ca        1 AS3     -0.294300
      9 C3         -1.7470    1.0070    0.1220 ca        1 AS3     -0.006300
     10 C7         -2.6790    2.1410    0.3240 c3        1 AS3     -0.060800
     11 C2         -2.2000   -0.3090    0.1810 ca        1 AS3     -0.301300
     12 HN81       -2.6430   -2.8420   -0.1420 hn        1 AS3      0.399800
     13 HN82       -1.0720   -3.4000   -0.1860 hn        1 AS3      0.399800
     14 H91         2.0520    1.5220   -0.8290 hc        1 AS3      0.052700
     15 H92         2.2280   -0.1210   -1.5660 hc        1 AS3      0.052700
     16 H101        2.7100   -1.1040    0.6830 hc        1 AS3      0.050200
     17 H102        2.4740    0.5100    1.4590 hc        1 AS3      0.050200
     18 H111        4.3780    1.4450    0.1010 hc        1 AS3      0.032367
     19 H112        4.8950    0.0230    1.0970 hc        1 AS3      0.032367
     20 H113        4.6110   -0.1710   -0.6810 hc        1 AS3      0.032367
     21 H4         -0.0090    2.2740   -0.1850 ha        1 AS3      0.141000
     22 H71        -2.8610    2.6620   -0.6490 hc        1 AS3      0.048700
     23 H72        -3.6620    1.7930    0.7270 hc        1 AS3      0.048700
     24 H73        -2.2430    2.8810    1.0410 hc        1 AS3      0.048700
     25 H2         -3.2550   -0.5270    0.3930 ha        1 AS3      0.141000
@<TRIPOS>BOND
     1    1    2 1   
     2    1   12 1   
     3    1   13 1   
     4    2    3 ar  
     5    2   11 ar  
     6    3    4 ar  
     7    4    5 1   
     8    4    8 ar  
     9    5    6 1   
    10    5   14 1   
    11    5   15 1   
    12    6    7 1   
    13    6   16 1   
    14    6   17 1   
    15    7   18 1   
    16    7   19 1   
    17    7   20 1   
    18    8    9 ar  
    19    8   21 1   
    20    9   10 1   
    21    9   11 ar  
    22   10   22 1   
    23   10   23 1   
    24   10   24 1   
    25   11   25 1   
@<TRIPOS>SUBSTRUCTURE
     1 AS3         1 TEMP              0 ****  ****    0 ROOT
