@<TRIPOS>MOLECULE
AS3
   25    23     1     0     0
SMALL
bcc


@<TRIPOS>ATOM
      1 N8         -3.4300    0.2300   -0.8450 n3        1 AS3     -0.321000
      2 C1         -2.0120    0.2810   -0.8720 c2        1 AS3      0.110000
      3 N6         -1.3070    0.2770    0.2950 n1        1 AS3     -0.203000
      4 C5          0.0550    0.3150    0.2700 c1        1 AS3      0.031000
      5 C9          0.8320    0.3870    1.5650 c3        1 AS3     -0.114000
      6 C10         0.8330   -0.9720    2.2300 c3        1 AS3     -0.155000
      7 C11         1.5630   -0.8870    3.5530 c3        1 AS3     -0.212000
      8 C4          0.7250    0.3570   -0.9430 c1        1 AS3     -0.228000
      9 C3          0.0200    0.3620   -2.1120 c1        1 AS3      0.001000
     10 C7          0.7490    0.4740   -3.4340 c3        1 AS3     -0.186000
     11 C2         -1.3440    0.3240   -2.0860 c2        1 AS3     -0.237000
     12 HN81       -3.8800    0.4160   -0.0700 hn        1 AS3      0.195000
     13 HN82       -3.8940    0.0120   -1.6010 hn        1 AS3      0.195000
     14 H91         1.7530    0.6590    1.3780 hc        1 AS3      0.094000
     15 H92         0.4130    1.0410    2.1600 hc        1 AS3      0.094000
     16 H101       -0.0890   -1.2600    2.3850 hc        1 AS3      0.088000
     17 H102        1.2830   -1.6190    1.6500 hc        1 AS3      0.088000
     18 H111        2.4110   -0.4120    3.4280 hc        1 AS3      0.072667
     19 H112        1.7410   -1.7910    3.8870 hc        1 AS3      0.072667
     20 H113        1.0100   -0.4020    4.2010 hc        1 AS3      0.072667
     21 H4          1.7000    0.3850   -0.9610 ha        1 AS3      0.141000
     22 H71         1.6980    0.2660   -3.3030 hc        1 AS3      0.088000
     23 H72         0.3610   -0.1570   -4.0750 hc        1 AS3      0.088000
     24 H73         0.6590    1.3870   -3.7790 hc        1 AS3      0.088000
     25 H2         -1.8490    0.3270   -2.9210 ha        1 AS3      0.141000
@<TRIPOS>BOND
     1    1    2 1   
     2    1   12 1   
     3    1   13 1   
     4    2    3 1   
     5    2   11 1   
     6    4    5 1   
     7    4    8 1   
     8    5    6 1   
     9    5   14 1   
    10    5   15 1   
    11    6    7 1   
    12    6   16 1   
    13    6   17 1   
    14    7   18 1   
    15    7   19 1   
    16    7   20 1   
    17    8   21 1   
    18    9   10 1   
    19    9   11 1   
    20   10   22 1   
    21   10   23 1   
    22   10   24 1   
    23   11   25 1   
@<TRIPOS>SUBSTRUCTURE
     1 AS3         1 TEMP              0 ****  ****    0 ROOT
