@<TRIPOS>MOLECULE
AS3
   25    25     1     0     0
SMALL
bcc


@<TRIPOS>ATOM
      1 N8         -0.1060    0.0180   -0.1030 nv        1 AS3     -0.923500
      2 C1          1.2970   -0.0390   -0.0380 ca        1 AS3      0.630200
      3 N6          1.9010   -0.0780    1.1910 nb        1 AS3     -0.729000
      4 C5          3.2510   -0.0220    1.2310 ca        1 AS3      0.453600
      5 C9          3.9270   -0.0510    2.5760 c3        1 AS3     -0.129700
      6 C10         3.6830    1.2280    3.3520 c3        1 AS3     -0.077400
      7 C11         4.4230    1.2160    4.6640 c3        1 AS3     -0.094100
      8 C4          4.0550    0.0500    0.0760 ca        1 AS3     -0.293300
      9 C3          3.4390    0.0660   -1.1800 ca        1 AS3     -0.006300
     10 C7          4.2570    0.1210   -2.4130 c3        1 AS3     -0.060800
     11 C2          2.0480    0.0190   -1.2500 ca        1 AS3     -0.302300
     12 HN81       -0.5880   -0.2090    0.7400 hn        1 AS3      0.399300
     13 HN82       -0.4820   -0.4270   -0.9100 hn        1 AS3      0.399300
     14 H91         3.5510   -0.9270    3.1700 hc        1 AS3      0.052700
     15 H92         5.0300   -0.1970    2.4260 hc        1 AS3      0.052700
     16 H101        2.5830    1.3500    3.5380 hc        1 AS3      0.050200
     17 H102        4.0150    2.1070    2.7390 hc        1 AS3      0.050200
     18 H111        5.5240    1.1220    4.4990 hc        1 AS3      0.032367
     19 H112        4.0900    0.3570    5.2970 hc        1 AS3      0.032367
     20 H113        4.2300    2.1620    5.2250 hc        1 AS3      0.032367
     21 H4          5.1480    0.0920    0.1620 ha        1 AS3      0.141000
     22 H71         5.1200    0.8190   -2.2820 hc        1 AS3      0.048700
     23 H72         4.6620   -0.8960   -2.6450 hc        1 AS3      0.048700
     24 H73         3.6510    0.4660   -3.2870 hc        1 AS3      0.048700
     25 H2          1.5380    0.0400   -2.2220 ha        1 AS3      0.141000
@<TRIPOS>BOND
     1    1    2 1   
     2    1   12 1   
     3    1   13 1   
     4    2    3 ar  
     5    2   11 ar  
     6    3    4 ar  
     7    4    5 1   
     8    4    8 ar  
     9    5    6 1   
    10    5   14 1   
    11    5   15 1   
    12    6    7 1   
    13    6   16 1   
    14    6   17 1   
    15    7   18 1   
    16    7   19 1   
    17    7   20 1   
    18    8    9 ar  
    19    8   21 1   
    20    9   10 1   
    21    9   11 ar  
    22   10   22 1   
    23   10   23 1   
    24   10   24 1   
    25   11   25 1   
@<TRIPOS>SUBSTRUCTURE
     1 AS3         1 TEMP              0 ****  ****    0 ROOT
