@<TRIPOS>MOLECULE
AS3
   25    25     1     0     0
SMALL
bcc


@<TRIPOS>ATOM
      1 N8         -0.1060    0.0240   -0.1050 nh        1 AS3     -0.923500
      2 C1          1.2970   -0.0350   -0.0390 ca        1 AS3      0.630200
      3 N6          1.9010   -0.0750    1.1900 nb        1 AS3     -0.729000
      4 C5          3.2510   -0.0220    1.2310 ca        1 AS3      0.453600
      5 C9          3.9260   -0.0530    2.5760 c3        1 AS3     -0.129700
      6 C10         3.6830    1.2260    3.3520 c3        1 AS3     -0.077400
      7 C11         4.4230    1.2120    4.6650 c3        1 AS3     -0.094100
      8 C4          4.0550    0.0490    0.0770 ca        1 AS3     -0.293300
      9 C3          3.4390    0.0660   -1.1800 ca        1 AS3     -0.006300
     10 C7          4.2580    0.1200   -2.4130 c3        1 AS3     -0.060800
     11 C2          2.0490    0.0220   -1.2510 ca        1 AS3     -0.302300
     12 HN81       -0.4830   -0.4200   -0.9120 hn        1 AS3      0.399300
     13 HN82       -0.5880   -0.2020    0.7380 hn        1 AS3      0.399300
     14 H91         3.5480   -0.9280    3.1690 hc        1 AS3      0.052700
     15 H92         5.0280   -0.2000    2.4260 hc        1 AS3      0.052700
     16 H101        2.5830    1.3490    3.5390 hc        1 AS3      0.050200
     17 H102        4.0160    2.1060    2.7400 hc        1 AS3      0.050200
     18 H111        5.5230    1.1180    4.5000 hc        1 AS3      0.032367
     19 H112        4.0890    0.3540    5.2970 hc        1 AS3      0.032367
     20 H113        4.2310    2.1590    5.2260 hc        1 AS3      0.032367
     21 H4          5.1490    0.0890    0.1630 ha        1 AS3      0.141000
     22 H71         3.6590    0.4930   -3.2800 hc        1 AS3      0.048700
     23 H72         4.6360   -0.9040   -2.6620 hc        1 AS3      0.048700
     24 H73         5.1390    0.7940   -2.2730 hc        1 AS3      0.048700
     25 H2          1.5400    0.0440   -2.2230 ha        1 AS3      0.141000
@<TRIPOS>BOND
     1    1    2 1   
     2    1   12 1   
     3    1   13 1   
     4    2    3 ar  
     5    2   11 ar  
     6    3    4 ar  
     7    4    5 1   
     8    4    8 ar  
     9    5    6 1   
    10    5   14 1   
    11    5   15 1   
    12    6    7 1   
    13    6   16 1   
    14    6   17 1   
    15    7   18 1   
    16    7   19 1   
    17    7   20 1   
    18    8    9 ar  
    19    8   21 1   
    20    9   10 1   
    21    9   11 ar  
    22   10   22 1   
    23   10   23 1   
    24   10   24 1   
    25   11   25 1   
@<TRIPOS>SUBSTRUCTURE
     1 AS3         1 TEMP              0 ****  ****    0 ROOT
