@<TRIPOS>MOLECULE
AS4
   54    57     1     0     0
SMALL
bcc


@<TRIPOS>ATOM
      1 C1          0.0320   -0.2470   -0.0250 c3        1 AS4     -0.045700
      2 C5         -1.7190   -1.3060    1.3630 c3        1 AS4     -0.105400
      3 C6          0.2810   -2.6630    0.8300 c         1 AS4      0.595900
      4 C7         -2.8640   -1.2140   -2.4080 c3        1 AS4     -0.007800
      5 C8         -2.4530   -0.2720   -3.5150 c2        1 AS4     -0.029400
      6 C9         -3.3320    0.3310   -4.3340 ce        1 AS4     -0.266200
      7 C10        -4.7820    0.1170   -4.2580 c         1 AS4      0.569300
      8 C15        -2.5630   -2.6360   -2.8740 c3        1 AS4     -0.081100
      9 C16         1.8840   -0.1010    1.5260 c3        1 AS4     -0.076400
     10 C17         0.6400   -0.6510    2.2480 c3        1 AS4     -0.154700
     11 C18         0.9660   -1.6160    3.3500 c         1 AS4      0.531100
     12 C19         0.0070   -1.6110    4.5210 c3        1 AS4      0.030400
     13 C20         1.5330    0.0040    0.0380 c3        1 AS4     -0.077400
     14 C          -0.2210   -1.2570    1.1160 c3        1 AS4     -0.156000
     15 C2         -0.5880   -0.7170   -1.3280 c3        1 AS4     -0.056700
     16 C3         -2.1040   -0.8360   -1.1170 c3        1 AS4     -0.038700
     17 C4         -2.4490   -1.7380    0.0810 c3        1 AS4      0.144100
     18 O          -2.1160   -3.0840   -0.2330 oh        1 AS4     -0.591800
     19 O1          1.0480   -2.9690   -0.0780 o         1 AS4     -0.506100
     20 O2         -5.5910    0.7970   -4.9010 o         1 AS4     -0.535100
     21 C11        -5.2140   -1.0180   -3.3730 c3        1 AS4     -0.181400
     22 C12        -4.3690   -1.0840   -2.1220 c3        1 AS4     -0.070400
     23 C13        -0.9870   -0.0950   -3.7170 c3        1 AS4     -0.055200
     24 C14        -0.2830    0.2800   -2.4330 c3        1 AS4     -0.069400
     25 O3          1.9550   -2.3550    3.3580 o         1 AS4     -0.516100
     26 O4          0.0510   -2.8080    5.2630 oh        1 AS4     -0.588800
     27 H1         -0.4800    0.7190    0.2610 hc        1 AS4      0.043700
     28 H51        -1.9590   -2.0300    2.1850 hc        1 AS4      0.052700
     29 H52        -2.0870   -0.2960    1.6740 hc        1 AS4      0.052700
     30 H6         -0.1080   -3.4230    1.5470 h4        1 AS4     -0.004800
     31 H9         -2.9980    1.0200   -5.1280 ha        1 AS4      0.149000
     32 H151       -3.0760   -3.3790   -2.2180 hc        1 AS4      0.046700
     33 H152       -1.4660   -2.8370   -2.8350 hc        1 AS4      0.046700
     34 H153       -2.9200   -2.7800   -3.9220 hc        1 AS4      0.046700
     35 H161        2.1570    0.8970    1.9460 hc        1 AS4      0.061200
     36 H162        2.7530   -0.7910    1.6740 hc        1 AS4      0.061200
     37 H17         0.0650    0.2060    2.6980 hc        1 AS4      0.068700
     38 H191        0.2570   -0.7360    5.1830 h1        1 AS4      0.067700
     39 H192       -1.0560   -1.5210    4.1680 h1        1 AS4      0.067700
     40 H201        2.0830   -0.7730   -0.5510 hc        1 AS4      0.061200
     41 H202        1.7940    1.0090   -0.3730 hc        1 AS4      0.061200
     42 H2         -0.1700   -1.7240   -1.6050 hc        1 AS4      0.092700
     43 H3         -2.4740    0.1930   -0.8230 hc        1 AS4      0.050700
     44 H4         -3.5590   -1.6700    0.2750 h1        1 AS4      0.037700
     45 HO         -2.4120   -3.6240    0.5110 ho        1 AS4      0.399000
     46 H111       -6.2950   -0.8990   -3.0980 hc        1 AS4      0.072700
     47 H112       -5.1140   -1.9700   -3.9600 hc        1 AS4      0.072700
     48 H121       -4.5530   -0.1600   -1.5120 hc        1 AS4      0.046700
     49 H122       -4.7000   -1.9650   -1.5100 hc        1 AS4      0.046700
     50 H131       -0.7870    0.6910   -4.4940 hc        1 AS4      0.059700
     51 H132       -0.5710   -1.0660   -4.1040 hc        1 AS4      0.059700
     52 H141       -0.6000    1.3080   -2.1150 hc        1 AS4      0.047700
     53 H142        0.8250    0.3080   -2.6060 hc        1 AS4      0.047700
     54 HO4         0.9800   -3.0620    5.3590 ho        1 AS4      0.422000
@<TRIPOS>BOND
     1    1   13 1   
     2    1   14 1   
     3    1   15 1   
     4    1   27 1   
     5    2   14 1   
     6    2   17 1   
     7    2   28 1   
     8    2   29 1   
     9    3   14 1   
    10    3   19 2   
    11    3   30 1   
    12    4    5 1   
    13    4    8 1   
    14    4   16 1   
    15    4   22 1   
    16    5    6 2   
    17    5   23 1   
    18    6    7 1   
    19    6   31 1   
    20    7   20 2   
    21    7   21 1   
    22    8   32 1   
    23    8   33 1   
    24    8   34 1   
    25    9   10 1   
    26    9   13 1   
    27    9   35 1   
    28    9   36 1   
    29   10   11 1   
    30   10   14 1   
    31   10   37 1   
    32   11   12 1   
    33   11   25 2   
    34   12   26 1   
    35   12   38 1   
    36   12   39 1   
    37   13   40 1   
    38   13   41 1   
    39   15   16 1   
    40   15   24 1   
    41   15   42 1   
    42   16   17 1   
    43   16   43 1   
    44   17   18 1   
    45   17   44 1   
    46   18   45 1   
    47   21   22 1   
    48   21   46 1   
    49   21   47 1   
    50   22   48 1   
    51   22   49 1   
    52   23   24 1   
    53   23   50 1   
    54   23   51 1   
    55   24   52 1   
    56   24   53 1   
    57   26   54 1   
@<TRIPOS>SUBSTRUCTURE
     1 AS4         1 TEMP              0 ****  ****    0 ROOT
