@<TRIPOS>MOLECULE
AS4
   54    57     1     0     0
SMALL
bcc


@<TRIPOS>ATOM
      1 C1         -0.9340   -1.2210    0.5190 c3        1 AS4     -0.045700
      2 C5         -1.2230    1.2150    0.8230 c3        1 AS4     -0.105400
      3 C6         -2.1980    0.2040   -1.2150 c         1 AS4      0.595900
      4 C7          2.4580    0.4340   -0.3500 c3        1 AS4     -0.007800
      5 C8          3.2750   -0.8250   -0.1810 c2        1 AS4     -0.029400
      6 C9          4.5430   -0.8280    0.2640 ce        1 AS4     -0.266200
      7 C10         5.2790    0.3960    0.6040 c         1 AS4      0.569300
      8 C15         2.3970    0.7490   -1.8420 c3        1 AS4     -0.081100
      9 C16        -3.2110   -2.0240    0.6910 c3        1 AS4     -0.076400
     10 C17        -3.1690   -0.5090    0.9620 c3        1 AS4     -0.154700
     11 C18        -4.4110    0.2120    0.5240 c         1 AS4      0.531100
     12 C19        -4.7900    1.4160    1.3580 c3        1 AS4      0.030400
     13 C20        -1.8040   -2.4430    0.2520 c3        1 AS4     -0.077400
     14 C          -1.8810   -0.0300    0.2530 c3        1 AS4     -0.156000
     15 C2          0.3770   -1.0640   -0.2310 c3        1 AS4     -0.056700
     16 C3          1.0600    0.2150    0.2710 c3        1 AS4     -0.038700
     17 C4          0.1400    1.4440    0.1520 c3        1 AS4      0.144100
     18 O          -0.0460    1.7600   -1.2220 oh        1 AS4     -0.591800
     19 O1         -1.9720   -0.5910   -2.1220 o         1 AS4     -0.506100
     20 O2          6.3810    0.3750    1.1670 o         1 AS4     -0.535100
     21 C11         4.6160    1.6770    0.1850 c3        1 AS4     -0.181400
     22 C12         3.1200    1.6080    0.3880 c3        1 AS4     -0.070400
     23 C13         2.6220   -2.0940   -0.6130 c3        1 AS4     -0.055200
     24 C14         1.2610   -2.2730    0.0210 c3        1 AS4     -0.069400
     25 O3         -5.1210   -0.1390   -0.4230 o         1 AS4     -0.516100
     26 O4         -5.6240    2.3160    0.6650 oh        1 AS4     -0.588800
     27 H1         -0.6910   -1.2200    1.6230 hc        1 AS4      0.043700
     28 H51        -1.8710    2.1140    0.6560 hc        1 AS4      0.052700
     29 H52        -1.0760    1.0980    1.9270 hc        1 AS4      0.052700
     30 H6         -2.6830    1.1880   -1.4080 h4        1 AS4     -0.004800
     31 H9          5.1080   -1.7670    0.3830 ha        1 AS4      0.149000
     32 H151        3.4120    0.6490   -2.2970 hc        1 AS4      0.046700
     33 H152        1.6970    0.0530   -2.3620 hc        1 AS4      0.046700
     34 H153        2.0350    1.7930   -2.0070 hc        1 AS4      0.046700
     35 H161       -3.9550   -2.2520   -0.1140 hc        1 AS4      0.061200
     36 H162       -3.5210   -2.5680    1.6150 hc        1 AS4      0.061200
     37 H17        -3.0410   -0.3350    2.0670 hc        1 AS4      0.068700
     38 H191       -5.3030    1.0550    2.2920 h1        1 AS4      0.068200
     39 H192       -3.8790    2.0130    1.6380 h1        1 AS4      0.068200
     40 H201       -1.7920   -2.6980   -0.8390 hc        1 AS4      0.061200
     41 H202       -1.4440   -3.3300    0.8250 hc        1 AS4      0.061200
     42 H2          0.1730   -0.9710   -1.3340 hc        1 AS4      0.092700
     43 H3          1.2260    0.0820    1.3820 hc        1 AS4      0.050700
     44 H4          0.6380    2.3170    0.6660 h1        1 AS4      0.037700
     45 HO         -0.5670    2.5730   -1.2510 ho        1 AS4      0.399000
     46 H111        4.8540    1.8490   -0.8990 hc        1 AS4      0.072700
     47 H112        5.0420    2.5360    0.7670 hc        1 AS4      0.072700
     48 H121        2.6640    2.5680    0.0290 hc        1 AS4      0.046700
     49 H122        2.9080    1.5230    1.4870 hc        1 AS4      0.046700
     50 H131        2.5150   -2.0650   -1.7330 hc        1 AS4      0.059700
     51 H132        3.2690   -2.9770   -0.3600 hc        1 AS4      0.059700
     52 H141        0.7660   -3.1860   -0.4040 hc        1 AS4      0.047700
     53 H142        1.3770   -2.4350    1.1250 hc        1 AS4      0.047700
     54 HO4        -6.2820    1.7950    0.1820 ho        1 AS4      0.422000
@<TRIPOS>BOND
     1    1   13 1   
     2    1   14 1   
     3    1   15 1   
     4    1   27 1   
     5    2   14 1   
     6    2   17 1   
     7    2   28 1   
     8    2   29 1   
     9    3   14 1   
    10    3   19 2   
    11    3   30 1   
    12    4    5 1   
    13    4    8 1   
    14    4   16 1   
    15    4   22 1   
    16    5    6 2   
    17    5   23 1   
    18    6    7 1   
    19    6   31 1   
    20    7   20 2   
    21    7   21 1   
    22    8   32 1   
    23    8   33 1   
    24    8   34 1   
    25    9   10 1   
    26    9   13 1   
    27    9   35 1   
    28    9   36 1   
    29   10   11 1   
    30   10   14 1   
    31   10   37 1   
    32   11   12 1   
    33   11   25 2   
    34   12   26 1   
    35   12   38 1   
    36   12   39 1   
    37   13   40 1   
    38   13   41 1   
    39   15   16 1   
    40   15   24 1   
    41   15   42 1   
    42   16   17 1   
    43   16   43 1   
    44   17   18 1   
    45   17   44 1   
    46   18   45 1   
    47   21   22 1   
    48   21   46 1   
    49   21   47 1   
    50   22   48 1   
    51   22   49 1   
    52   23   24 1   
    53   23   50 1   
    54   23   51 1   
    55   24   52 1   
    56   24   53 1   
    57   26   54 1   
@<TRIPOS>SUBSTRUCTURE
     1 AS4         1 TEMP              0 ****  ****    0 ROOT
