@<TRIPOS>MOLECULE
AS4
   54    55     1     0     0
SMALL
bcc


@<TRIPOS>ATOM
      1 C1          1.3170    0.9820    0.5830 c3        1 AS4     -0.097000
      2 C5         -0.4380   -0.2300    2.0010 c3        1 AS4     -0.177000
      3 C6          1.5420   -1.4770    1.2460 c1        1 AS4      0.191000
      4 C7         -1.5550    0.1580   -2.0910 c3        1 AS4     -0.008000
      5 C8         -1.4340    0.7780   -2.6440 c2        1 AS4     -0.030000
      6 C9         -1.7510    0.2750   -4.1550 c1        1 AS4     -0.242000
      7 C10        -3.4540   -0.9540   -4.1420 c1        1 AS4      0.260000
      8 C15        -0.6400   -1.0140   -2.5480 c3        1 AS4     -0.208000
      9 C16         3.1490    0.7420    1.9490 c3        1 AS4     -0.159000
     10 C17         1.7640    0.3360    2.7770 c3        1 AS4     -0.149000
     11 C18         2.0610   -0.6730    3.8030 c2        1 AS4      0.195000
     12 C19         2.1720   -0.2550    5.2910 c3        1 AS4     -0.066000
     13 C20         2.6110    0.8560    0.4190 c3        1 AS4     -0.158000
     14 C           1.0100   -0.1160    1.7060 c2        1 AS4     -0.112000
     15 C2          0.4680    0.7400   -0.7470 c3        1 AS4     -0.091000
     16 C3         -1.0520    0.5820   -0.4290 c3        1 AS4     -0.121000
     17 C4         -1.3540   -0.4370    0.5810 c3        1 AS4      0.045000
     18 O          -1.0920   -1.6630    0.0620 oh        1 AS4     -0.326000
     19 O1          1.0370   -2.4970    1.6610 o         1 AS4     -0.287000
     20 O2         -3.7870   -1.5630   -5.1700 o         1 AS4     -0.299000
     21 C11        -3.8910   -0.7090   -3.7680 c3        1 AS4     -0.208000
     22 C12        -3.2010   -0.4770   -2.0790 c3        1 AS4     -0.152000
     23 C13        -0.3480    1.9620   -2.2220 c3        1 AS4     -0.134000
     24 C14         0.7010    1.6480   -1.5770 c3        1 AS4     -0.148000
     25 O3          2.2060   -1.8290    3.4880 o         1 AS4     -0.285000
     26 O4          2.7200   -1.3390    6.0520 oh        1 AS4     -0.311000
     27 H1          1.1220    1.8600    0.9320 hc        1 AS4      0.098000
     28 H51        -0.7380    0.5840    2.4600 hc        1 AS4      0.099500
     29 H52        -0.5830   -0.9900    2.5810 hc        1 AS4      0.099500
     30 H6          2.3260   -1.5230    0.6440 ha        1 AS4      0.119000
     31 H9         -1.5780    0.8730   -4.9240 ha        1 AS4      0.147000
     32 H151       -1.1260   -1.5740   -3.2170 hc        1 AS4      0.085667
     33 H152       -0.4000   -1.5650   -1.7720 hc        1 AS4      0.085667
     34 H153        0.1640   -0.6570   -2.9500 hc        1 AS4      0.085667
     35 H161        3.8310    0.0290    2.0310 hc        1 AS4      0.103000
     36 H162        3.5030    1.6100    2.2620 hc        1 AS4      0.103000
     37 H17         1.3020    1.0190    3.2930 hc        1 AS4      0.114000
     38 H191        1.2640   -0.0250    5.6420 h1        1 AS4      0.111500
     39 H192        2.7680    0.5390    5.3680 h1        1 AS4      0.111500
     40 H201        2.8250    0.0260   -0.0940 hc        1 AS4      0.092500
     41 H202        2.9780    1.6350   -0.0160 hc        1 AS4      0.092500
     42 H2          0.7710   -0.0960   -1.1370 hc        1 AS4      0.095000
     43 H3         -1.4320    1.4390   -0.1710 hc        1 AS4      0.092000
     44 H4         -2.2970   -0.3870    0.8050 h1        1 AS4      0.110000
     45 HO         -1.7010   -2.2140    0.3080 ho        1 AS4      0.220000
     46 H111       -4.7450   -1.1760   -3.8050 hc        1 AS4      0.114500
     47 H112       -4.1530    0.1630   -4.1140 hc        1 AS4      0.114500
     48 H121       -3.2040   -1.3370   -1.6160 hc        1 AS4      0.097000
     49 H122       -3.7790    0.1520   -1.5850 hc        1 AS4      0.097000
     50 H131       -0.0430    2.6070   -2.9160 hc        1 AS4      0.097500
     51 H132       -0.9090    2.5660   -1.6750 hc        1 AS4      0.097500
     52 H141        1.3890    1.3390   -2.2110 hc        1 AS4      0.088000
     53 H142        1.0310    2.4310   -1.1070 hc        1 AS4      0.088000
     54 HO4         2.6540   -1.1540    6.9340 ho        1 AS4      0.221000
@<TRIPOS>BOND
     1    1   13 1   
     2    1   14 1   
     3    1   15 1   
     4    1   27 1   
     5    2   14 1   
     6    2   17 1   
     7    2   28 1   
     8    2   29 1   
     9    3   19 1   
    10    3   30 1   
    11    4    5 1   
    12    4    8 1   
    13    4   16 1   
    14    4   22 1   
    15    5    6 1   
    16    5   23 1   
    17    6   31 1   
    18    7   20 1   
    19    7   21 1   
    20    8   32 1   
    21    8   33 1   
    22    8   34 1   
    23    9   10 1   
    24    9   13 1   
    25    9   35 1   
    26    9   36 1   
    27   10   11 1   
    28   10   14 1   
    29   10   37 1   
    30   11   12 1   
    31   11   25 1   
    32   12   26 1   
    33   12   38 1   
    34   12   39 1   
    35   13   40 1   
    36   13   41 1   
    37   15   16 1   
    38   15   24 1   
    39   15   42 1   
    40   16   17 1   
    41   16   43 1   
    42   17   18 1   
    43   17   44 1   
    44   18   45 1   
    45   21   22 1   
    46   21   46 1   
    47   21   47 1   
    48   22   48 1   
    49   22   49 1   
    50   23   24 1   
    51   23   50 1   
    52   23   51 1   
    53   24   52 1   
    54   24   53 1   
    55   26   54 1   
@<TRIPOS>SUBSTRUCTURE
     1 AS4         1 TEMP              0 ****  ****    0 ROOT
