@<TRIPOS>MOLECULE
AS4
   54    57     1     0     0
SMALL
bcc


@<TRIPOS>ATOM
      1 C1          0.0350   -0.2420   -0.0300 c3        1 AS4     -0.045700
      2 C5         -1.7150   -1.2920    1.3640 c3        1 AS4     -0.105400
      3 C6          0.2790   -2.6570    0.8320 c         1 AS4      0.595900
      4 C7         -2.8680   -1.2090   -2.4040 c3        1 AS4     -0.007800
      5 C8         -2.4570   -0.2720   -3.5150 c2        1 AS4     -0.029400
      6 C9         -3.3360    0.3310   -4.3340 ce        1 AS4     -0.266200
      7 C10        -4.7860    0.1210   -4.2550 c         1 AS4      0.569300
      8 C15        -2.5710   -2.6330   -2.8660 c3        1 AS4     -0.081100
      9 C16         1.8910   -0.0960    1.5170 c3        1 AS4     -0.076400
     10 C17         0.6470   -0.6400    2.2430 c3        1 AS4     -0.154700
     11 C18         0.9720   -1.6030    3.3480 c         1 AS4      0.531100
     12 C19         0.0160   -1.5910    4.5210 c3        1 AS4      0.030400
     13 C20         1.5370    0.0050    0.0290 c3        1 AS4     -0.077400
     14 C          -0.2180   -1.2480    1.1140 c3        1 AS4     -0.156000
     15 C2         -0.5890   -0.7150   -1.3310 c3        1 AS4     -0.056700
     16 C3         -2.1050   -0.8290   -1.1160 c3        1 AS4     -0.038700
     17 C4         -2.4500   -1.7260    0.0860 c3        1 AS4      0.144100
     18 O          -2.1210   -3.0740   -0.2240 oh        1 AS4     -0.591800
     19 O1          1.0440   -2.9670   -0.0770 o         1 AS4     -0.506100
     20 O2         -5.5940    0.8020   -4.8980 o         1 AS4     -0.535100
     21 C11        -5.2190   -1.0090   -3.3650 c3        1 AS4     -0.181400
     22 C12        -4.3720   -1.0740   -2.1150 c3        1 AS4     -0.070400
     23 C13        -0.9910   -0.0990   -3.7200 c3        1 AS4     -0.055200
     24 C14        -0.2830    0.2780   -2.4390 c3        1 AS4     -0.069400
     25 O3          1.9590   -2.3450    3.3560 o         1 AS4     -0.516100
     26 O4          0.0580   -2.7870    5.2670 oh        1 AS4     -0.588800
     27 H1         -0.4740    0.7270    0.2540 hc        1 AS4      0.043700
     28 H51        -1.9560   -2.0120    2.1890 hc        1 AS4      0.052700
     29 H52        -2.0810   -0.2800    1.6740 hc        1 AS4      0.052700
     30 H6         -0.1100   -3.4130    1.5520 h4        1 AS4     -0.004800
     31 H9         -3.0020    1.0160   -5.1310 ha        1 AS4      0.149000
     32 H151       -3.0860   -3.3730   -2.2070 hc        1 AS4      0.046700
     33 H152       -1.4750   -2.8370   -2.8280 hc        1 AS4      0.046700
     34 H153       -2.9320   -2.7790   -3.9130 hc        1 AS4      0.046700
     35 H161        2.1680    0.9030    1.9320 hc        1 AS4      0.061200
     36 H162        2.7590   -0.7880    1.6650 hc        1 AS4      0.061200
     37 H17         0.0750    0.2200    2.6920 hc        1 AS4      0.068700
     38 H191       -1.0470   -1.4990    4.1690 h1        1 AS4      0.067700
     39 H192        0.2700   -0.7150    5.1790 h1        1 AS4      0.067700
     40 H201        1.8000    1.0080   -0.3860 hc        1 AS4      0.061200
     41 H202        2.0830   -0.7750   -0.5580 hc        1 AS4      0.061200
     42 H2         -0.1740   -1.7240   -1.6050 hc        1 AS4      0.092700
     43 H3         -2.4710    0.2020   -0.8250 hc        1 AS4      0.050700
     44 H4         -3.5590   -1.6540    0.2810 h1        1 AS4      0.037700
     45 HO         -2.4160   -3.6110    0.5220 ho        1 AS4      0.399000
     46 H111       -5.1230   -1.9640   -3.9490 hc        1 AS4      0.072700
     47 H112       -6.2990   -0.8870   -3.0880 hc        1 AS4      0.072700
     48 H121       -4.7040   -1.9520   -1.5000 hc        1 AS4      0.046700
     49 H122       -4.5520   -0.1470   -1.5080 hc        1 AS4      0.046700
     50 H131       -0.5780   -1.0730   -4.1060 hc        1 AS4      0.059700
     51 H132       -0.7900    0.6830   -4.5000 hc        1 AS4      0.059700
     52 H141       -0.5960    1.3080   -2.1230 hc        1 AS4      0.047700
     53 H142        0.8250    0.3020   -2.6150 hc        1 AS4      0.047700
     54 HO4         0.9870   -3.0420    5.3610 ho        1 AS4      0.422000
@<TRIPOS>BOND
     1    1   13 1   
     2    1   14 1   
     3    1   15 1   
     4    1   27 1   
     5    2   14 1   
     6    2   17 1   
     7    2   28 1   
     8    2   29 1   
     9    3   14 1   
    10    3   19 2   
    11    3   30 1   
    12    4    5 1   
    13    4    8 1   
    14    4   16 1   
    15    4   22 1   
    16    5    6 2   
    17    5   23 1   
    18    6    7 1   
    19    6   31 1   
    20    7   20 2   
    21    7   21 1   
    22    8   32 1   
    23    8   33 1   
    24    8   34 1   
    25    9   10 1   
    26    9   13 1   
    27    9   35 1   
    28    9   36 1   
    29   10   11 1   
    30   10   14 1   
    31   10   37 1   
    32   11   12 1   
    33   11   25 2   
    34   12   26 1   
    35   12   38 1   
    36   12   39 1   
    37   13   40 1   
    38   13   41 1   
    39   15   16 1   
    40   15   24 1   
    41   15   42 1   
    42   16   17 1   
    43   16   43 1   
    44   17   18 1   
    45   17   44 1   
    46   18   45 1   
    47   21   22 1   
    48   21   46 1   
    49   21   47 1   
    50   22   48 1   
    51   22   49 1   
    52   23   24 1   
    53   23   50 1   
    54   23   51 1   
    55   24   52 1   
    56   24   53 1   
    57   26   54 1   
@<TRIPOS>SUBSTRUCTURE
     1 AS4         1 TEMP              0 ****  ****    0 ROOT
