@<TRIPOS>MOLECULE
AS5
   58    59     1     0     0
SMALL
bcc


@<TRIPOS>ATOM
      1 O7B        -0.2490   -1.4790   -0.2260 o         1 AS5     -0.439100
      2 C7B         0.4020   -0.4630   -0.0320 c         1 AS5      0.577100
      3 C8B         0.1500    0.6310    0.9460 c3        1 AS5     -0.191100
      4 N2B         1.6430   -0.3080   -0.8920 n4        1 AS5     -0.685800
      5 C2B         1.3150   -0.0830   -2.3350 c3        1 AS5      0.100500
      6 C3B         2.5180    0.5310   -3.0910 c3        1 AS5      0.090100
      7 O3B         2.8030    1.7500   -2.4270 oh        1 AS5     -0.620800
      8 C4B         2.0960    0.7580   -4.5570 c3        1 AS5      0.094100
      9 C5B         1.7020   -0.6000   -5.1510 c3        1 AS5      0.133100
     10 C6B         1.1790   -0.4780   -6.5850 c3        1 AS5      0.139400
     11 O6B         1.1910   -1.7970   -7.1090 oh        1 AS5     -0.636800
     12 O5B         0.6280   -1.2010   -4.4100 os        1 AS5     -0.400600
     13 C1B         0.8510   -1.3870   -3.0420 c3        1 AS5      0.328900
     14 O4A         1.9020   -2.3330   -2.9280 os        1 AS5     -0.463600
     15 C4A         1.5040   -3.7090   -2.9140 c3        1 AS5      0.094100
     16 C3A         1.6620   -4.2730   -4.3430 c3        1 AS5      0.115100
     17 O3A         0.5070   -3.9570   -5.0940 oh        1 AS5     -0.640800
     18 C2A         1.8130   -5.8180   -4.3730 c3        1 AS5      0.089500
     19 N2A         0.4970   -6.5200   -4.1910 n4        1 AS5     -0.682800
     20 C7A         0.4650   -7.9390   -4.7460 c         1 AS5      0.559100
     21 O7A         1.5420   -8.4630   -4.9650 o         1 AS5     -0.398100
     22 C8A        -0.9020   -8.4950   -4.9520 c3        1 AS5     -0.191100
     23 C5A         2.4430   -4.3780   -1.8920 c3        1 AS5      0.086100
     24 C6A         2.0370   -4.0670   -0.4430 c3        1 AS5      0.133400
     25 O6A         2.7530   -2.9400    0.0260 oh        1 AS5     -0.648800
     26 O5A         2.3720   -5.7980   -2.0270 os        1 AS5     -0.404600
     27 C1A         2.8280   -6.2390   -3.2950 c3        1 AS5      0.100400
     28 O4B         0.9760    1.6140   -4.6240 oh        1 AS5     -0.573800
     29 H8B1        0.1130    1.6290    0.4390 hc        1 AS5      0.122367
     30 H8B2       -0.8370    0.4430    1.4490 hc        1 AS5      0.122367
     31 H8B3        0.9520    0.6470    1.7300 hc        1 AS5      0.122367
     32 H2B         2.1960    0.4960   -0.5630 hn        1 AS5      0.484300
     33 HA          0.4570    0.6590   -2.3990 hx        1 AS5      0.149700
     34 H1B        -0.1310   -1.7550   -2.6230 h2        1 AS5      0.123700
     35 H3B         3.5330    2.1800   -2.8950 ho        1 AS5      0.453000
     36 H4B         2.9650    1.1860   -5.1320 h1        1 AS5      0.083700
     37 H5B         2.5920   -1.2900   -5.1140 h1        1 AS5      0.073700
     38 HB          1.2850    2.5100   -4.4270 ho        1 AS5      0.432000
     39 H6B1        1.8690    0.1820   -7.1750 h1        1 AS5      0.072700
     40 H6B2        0.1400   -0.0540   -6.5850 h1        1 AS5      0.072700
     41 H6B         0.7940   -1.7540   -7.9890 ho        1 AS5      0.440000
     42 H4A         0.4300   -3.8140   -2.5950 h1        1 AS5      0.074700
     43 H3A         2.5900   -3.8380   -4.8110 h1        1 AS5      0.100700
     44 H5A         3.4990   -4.0290   -2.0760 h1        1 AS5      0.081700
     45 HC          0.6380   -3.0920   -5.5230 ho        1 AS5      0.486000
     46 H2A         2.2040   -6.1150   -5.3930 hx        1 AS5      0.137700
     47 HD         -0.2340   -5.9670   -4.6620 hn        1 AS5      0.471800
     48 H1A1        3.8290   -5.8030   -3.5530 h1        1 AS5      0.110200
     49 H1A2        2.9160   -7.3570   -3.2000 h1        1 AS5      0.110200
     50 H8A1       -1.5460   -8.3700   -4.0460 hc        1 AS5      0.121033
     51 H8A2       -1.3930   -7.9970   -5.8290 hc        1 AS5      0.121033
     52 H8A3       -0.8070   -9.5930   -5.1780 hc        1 AS5      0.121033
     53 H6A1        0.9550   -3.7670   -0.3800 h1        1 AS5      0.085200
     54 H6A2        2.2190   -4.9650    0.2060 h1        1 AS5      0.085200
     55 H6A         3.6270   -3.2370    0.3120 ho        1 AS5      0.441000
     56 H3B1        3.4070   -0.1570   -3.0520 h1        1 AS5      0.078700
     57 H2B2        2.2180   -1.1670   -0.8200 hn        1 AS5      0.484300
     58 H2A2        0.2860   -6.5570   -3.1860 hn        1 AS5      0.471800
@<TRIPOS>BOND
     1    1    2 2   
     2    2    3 1   
     3    2    4 1   
     4    3   29 1   
     5    3   30 1   
     6    3   31 1   
     7    4    5 1   
     8    4   32 1   
     9    4   57 1   
    10    5    6 1   
    11    5   13 1   
    12    5   33 1   
    13    6    7 1   
    14    6    8 1   
    15    6   56 1   
    16    7   35 1   
    17    8    9 1   
    18    8   28 1   
    19    8   36 1   
    20    9   10 1   
    21    9   12 1   
    22    9   37 1   
    23   10   11 1   
    24   10   39 1   
    25   10   40 1   
    26   11   41 1   
    27   12   13 1   
    28   13   14 1   
    29   13   34 1   
    30   14   15 1   
    31   15   16 1   
    32   15   23 1   
    33   15   42 1   
    34   16   17 1   
    35   16   18 1   
    36   16   43 1   
    37   17   45 1   
    38   18   19 1   
    39   18   27 1   
    40   18   46 1   
    41   19   20 1   
    42   19   47 1   
    43   19   58 1   
    44   20   21 2   
    45   20   22 1   
    46   22   50 1   
    47   22   51 1   
    48   22   52 1   
    49   23   24 1   
    50   23   26 1   
    51   23   44 1   
    52   24   25 1   
    53   24   53 1   
    54   24   54 1   
    55   25   55 1   
    56   26   27 1   
    57   27   48 1   
    58   27   49 1   
    59   28   38 1   
@<TRIPOS>SUBSTRUCTURE
     1 AS5         1 TEMP              0 ****  ****    0 ROOT
