@<TRIPOS>MOLECULE
AS5
   58    59     1     0     0
SMALL
bcc


@<TRIPOS>ATOM
      1 O7B        -0.2250   -1.5170   -0.1970 o         1 AS5     -0.439100
      2 C7B         0.4300   -0.5060    0.0070 c         1 AS5      0.577100
      3 C8B         0.1870    0.5760    1.0000 c3        1 AS5     -0.191100
      4 N2B         1.6670   -0.3430   -0.8580 ny        1 AS5     -0.685800
      5 C2B         1.3310   -0.0960   -2.2960 c3        1 AS5      0.100500
      6 C3B         2.5320    0.5240   -3.0500 c3        1 AS5      0.090100
      7 O3B         2.8260    1.7320   -2.3700 oh        1 AS5     -0.620800
      8 C4B         2.1020    0.7740   -4.5110 c3        1 AS5      0.094100
      9 C5B         1.6980   -0.5740   -5.1220 c3        1 AS5      0.133100
     10 C6B         1.1680   -0.4280   -6.5500 c3        1 AS5      0.139400
     11 O6B         1.1700   -1.7390   -7.0940 oh        1 AS5     -0.636800
     12 O5B         0.6270   -1.1810   -4.3830 os        1 AS5     -0.400600
     13 C1B         0.8570   -1.3880   -3.0190 c3        1 AS5      0.328900
     14 O4A         1.9060   -2.3390   -2.9260 os        1 AS5     -0.463600
     15 C4A         1.5020   -3.7130   -2.9290 c3        1 AS5      0.094100
     16 C3A         1.6480   -4.2580   -4.3680 c3        1 AS5      0.115100
     17 O3A         0.4900   -3.9260   -5.1060 oh        1 AS5     -0.640800
     18 C2A         1.7930   -5.8030   -4.4210 c3        1 AS5      0.089500
     19 N2A         0.4760   -6.5020   -4.2400 ny        1 AS5     -0.682800
     20 C7A         0.4340   -7.9120   -4.8160 c         1 AS5      0.559100
     21 O7A         1.5080   -8.4370   -5.0500 o         1 AS5     -0.398100
     22 C8A        -0.9360   -8.4610   -5.0200 c3        1 AS5     -0.191100
     23 C5A         2.4460   -4.4010   -1.9230 c3        1 AS5      0.086100
     24 C6A         2.0500   -4.1100   -0.4670 c3        1 AS5      0.133400
     25 O6A         2.7730   -2.9930    0.0130 oh        1 AS5     -0.648800
     26 O5A         2.3680   -5.8190   -2.0790 os        1 AS5     -0.404600
     27 C1A         2.8130   -6.2430   -3.3570 c3        1 AS5      0.100400
     28 O4B         0.9850    1.6360   -4.5580 oh        1 AS5     -0.573800
     29 H8B1        0.1510    1.5810    0.5070 hc        1 AS5      0.122367
     30 H8B2       -0.7980    0.3850    1.5060 hc        1 AS5      0.122367
     31 H8B3        0.9930    0.5790    1.7800 hc        1 AS5      0.122367
     32 H2B         2.2390   -1.2060   -0.8020 hn        1 AS5      0.484300
     33 HA          0.4760    0.6510   -2.3440 hx        1 AS5      0.149700
     34 H1B        -0.1230   -1.7580   -2.5990 h2        1 AS5      0.123700
     35 H3B         3.5550    2.1660   -2.8360 ho        1 AS5      0.453000
     36 H4B         2.9690    1.2060   -5.0840 h1        1 AS5      0.083700
     37 H5B         2.5860   -1.2680   -5.1000 h1        1 AS5      0.073700
     38 HB          1.3000    2.5280   -4.3500 ho        1 AS5      0.432000
     39 H6B1        0.1310    0.0010   -6.5370 h1        1 AS5      0.072700
     40 H6B2        1.8560    0.2370   -7.1350 h1        1 AS5      0.072700
     41 H6B         0.7680   -1.6820   -7.9710 ho        1 AS5      0.440000
     42 H4A         0.4300   -3.8190   -2.6040 h1        1 AS5      0.074700
     43 H3A         2.5750   -3.8190   -4.8350 h1        1 AS5      0.100700
     44 H5A         3.5020   -4.0540   -2.1090 h1        1 AS5      0.081700
     45 HC          0.6220   -3.0550   -5.5230 ho        1 AS5      0.486000
     46 H2A         2.1760   -6.0860   -5.4480 hx        1 AS5      0.137700
     47 HD          0.2710   -6.5530   -3.2350 hn        1 AS5      0.471800
     48 H1A1        3.8150   -5.8070   -3.6150 h1        1 AS5      0.110200
     49 H1A2        2.8980   -7.3620   -3.2790 h1        1 AS5      0.110200
     50 H8A1       -1.4330   -7.9460   -5.8830 hc        1 AS5      0.121033
     51 H8A2       -0.8470   -9.5550   -5.2640 hc        1 AS5      0.121033
     52 H8A3       -1.5720   -8.3490   -4.1060 hc        1 AS5      0.121033
     53 H6A1        0.9700   -3.8070   -0.3930 h1        1 AS5      0.085200
     54 H6A2        2.2340   -5.0190    0.1670 h1        1 AS5      0.085200
     55 H6A         3.6480   -3.2970    0.2890 ho        1 AS5      0.441000
     56 H3B1        3.4190   -0.1680   -3.0260 h1        1 AS5      0.078700
     57 H2B2        2.2250    0.4530   -0.5210 hn        1 AS5      0.484300
     58 H2A2       -0.2570   -5.9390   -4.6980 hn        1 AS5      0.471800
@<TRIPOS>BOND
     1    1    2 2   
     2    2    3 1   
     3    2    4 1   
     4    3   29 1   
     5    3   30 1   
     6    3   31 1   
     7    4    5 1   
     8    4   32 1   
     9    4   57 1   
    10    5    6 1   
    11    5   13 1   
    12    5   33 1   
    13    6    7 1   
    14    6    8 1   
    15    6   56 1   
    16    7   35 1   
    17    8    9 1   
    18    8   28 1   
    19    8   36 1   
    20    9   10 1   
    21    9   12 1   
    22    9   37 1   
    23   10   11 1   
    24   10   39 1   
    25   10   40 1   
    26   11   41 1   
    27   12   13 1   
    28   13   14 1   
    29   13   34 1   
    30   14   15 1   
    31   15   16 1   
    32   15   23 1   
    33   15   42 1   
    34   16   17 1   
    35   16   18 1   
    36   16   43 1   
    37   17   45 1   
    38   18   19 1   
    39   18   27 1   
    40   18   46 1   
    41   19   20 1   
    42   19   47 1   
    43   19   58 1   
    44   20   21 2   
    45   20   22 1   
    46   22   50 1   
    47   22   51 1   
    48   22   52 1   
    49   23   24 1   
    50   23   26 1   
    51   23   44 1   
    52   24   25 1   
    53   24   53 1   
    54   24   54 1   
    55   25   55 1   
    56   26   27 1   
    57   27   48 1   
    58   27   49 1   
    59   28   38 1   
@<TRIPOS>SUBSTRUCTURE
     1 AS5         1 TEMP              0 ****  ****    0 ROOT
