@<TRIPOS>MOLECULE
AS5
   56    57     1     0     0
SMALL
bcc


@<TRIPOS>ATOM
      1 O7B         3.1350    1.7680   -1.8620 o         1 AS5     -0.631100
      2 C7B         3.3480    2.0760   -0.6690 c         1 AS5      0.661100
      3 C8B         3.7020    3.4830   -0.2660 c3        1 AS5     -0.176100
      4 N2B         3.2280    1.1250    0.3270 n         1 AS5     -0.559900
      5 C2B         2.8100   -0.2190    0.0430 c3        1 AS5      0.064700
      6 C3B         2.9660   -1.1640    1.2610 c3        1 AS5      0.107100
      7 O3B         4.2920   -1.1650    1.7400 oh        1 AS5     -0.589800
      8 C4B         2.5190   -2.5840    0.8660 c3        1 AS5      0.085100
      9 C5B         1.0790   -2.5450    0.3510 c3        1 AS5      0.066100
     10 C6B         0.6240   -3.9070   -0.1810 c3        1 AS5      0.145400
     11 O6B        -0.7790   -4.0320   -0.1480 oh        1 AS5     -0.598800
     12 O5B         0.9760   -1.6450   -0.7600 os        1 AS5     -0.439600
     13 C1B         1.3440   -0.3120   -0.4780 c3        1 AS5      0.305900
     14 O4A         0.4780    0.1550    0.5390 os        1 AS5     -0.439600
     15 C4A        -0.8160    0.5810    0.1020 c3        1 AS5      0.129100
     16 C3A        -1.8420   -0.1470    0.9930 c3        1 AS5      0.117100
     17 O3A        -1.8340   -1.5040    0.5910 oh        1 AS5     -0.607800
     18 C2A        -3.2540    0.4870    0.8830 c3        1 AS5      0.035700
     19 N2A        -3.9250    0.2390   -0.3680 n         1 AS5     -0.561900
     20 C7A        -4.6040   -0.9460   -0.5960 c         1 AS5      0.664100
     21 O7A        -4.7350   -1.7870    0.3170 o         1 AS5     -0.621100
     22 C8A        -5.2060   -1.1520   -1.9630 c3        1 AS5     -0.172100
     23 C5A        -0.8850    2.1030    0.3210 c3        1 AS5      0.074100
     24 C6A        -0.1060    2.8660   -0.7560 c3        1 AS5      0.130400
     25 O6A         0.2190    4.1660   -0.3130 oh        1 AS5     -0.600800
     26 O5A        -2.2240    2.5930    0.2240 os        1 AS5     -0.424600
     27 C1A        -3.1060    1.9940    1.1610 c3        1 AS5      0.120400
     28 O4B         3.4260   -3.1320   -0.0740 oh        1 AS5     -0.598800
     29 H8B1        4.2480    3.9700   -1.1100 hc        1 AS5      0.074033
     30 H8B2        2.7480    4.0420   -0.0820 hc        1 AS5      0.074033
     31 H8B3        4.3370    3.5230    0.6500 hc        1 AS5      0.074033
     32 H2B         3.3510    1.3750    1.2780 hn        1 AS5      0.326500
     33 HA          3.4510   -0.6110   -0.8060 h1        1 AS5      0.078700
     34 H1B         1.2250    0.2370   -1.4560 h2        1 AS5      0.106700
     35 H3B         4.8280   -1.6580    1.1020 ho        1 AS5      0.419000
     36 H4B         2.6000   -3.2600    1.7630 h1        1 AS5      0.097700
     37 H5B         0.3840   -2.1930    1.1660 h1        1 AS5      0.095700
     38 HB          3.1690   -2.8080   -0.9480 ho        1 AS5      0.415000
     39 H6B1        1.0060   -4.0530   -1.2270 h1        1 AS5      0.056200
     40 H6B2        1.0120   -4.7240    0.4840 h1        1 AS5      0.056200
     41 H6B        -1.1470   -3.2500   -0.5830 ho        1 AS5      0.422000
     42 H4A        -0.9930    0.3160   -0.9740 h1        1 AS5      0.075700
     43 H3A        -1.5100   -0.0770    2.0680 h1        1 AS5      0.054700
     44 H5A        -0.4730    2.3490    1.3400 h1        1 AS5      0.068700
     45 HC         -2.5910   -1.9400    1.0130 ho        1 AS5      0.436000
     46 H2A        -3.8900    0.0290    1.7010 h1        1 AS5      0.091700
     47 HD         -3.6670    0.8130   -1.1350 hn        1 AS5      0.316500
     48 H1A1       -4.0730    2.5460    1.0230 h1        1 AS5      0.066200
     49 H1A2       -2.7260    2.1380    2.2070 h1        1 AS5      0.066200
     50 H8A1       -4.4020   -1.1970   -2.7370 hc        1 AS5      0.070033
     51 H8A2       -5.7660   -2.1190   -1.9650 hc        1 AS5      0.070033
     52 H8A3       -5.9090   -0.3220   -2.2130 hc        1 AS5      0.070033
     53 H6A1        0.8840    2.3650   -0.9420 h1        1 AS5      0.064700
     54 H6A2       -0.7010    2.9090   -1.7060 h1        1 AS5      0.064700
     55 H6A        -0.6140    4.6320   -0.1660 ho        1 AS5      0.411000
     56 H3B1        2.3410   -0.7940    2.1210 h1        1 AS5      0.095700
@<TRIPOS>BOND
     1    1    2 2   
     2    2    3 1   
     3    2    4 1   
     4    3   29 1   
     5    3   30 1   
     6    3   31 1   
     7    4    5 1   
     8    4   32 1   
     9    5    6 1   
    10    5   13 1   
    11    5   33 1   
    12    6    7 1   
    13    6    8 1   
    14    6   56 1   
    15    7   35 1   
    16    8    9 1   
    17    8   28 1   
    18    8   36 1   
    19    9   10 1   
    20    9   12 1   
    21    9   37 1   
    22   10   11 1   
    23   10   39 1   
    24   10   40 1   
    25   11   41 1   
    26   12   13 1   
    27   13   14 1   
    28   13   34 1   
    29   14   15 1   
    30   15   16 1   
    31   15   23 1   
    32   15   42 1   
    33   16   17 1   
    34   16   18 1   
    35   16   43 1   
    36   17   45 1   
    37   18   19 1   
    38   18   27 1   
    39   18   46 1   
    40   19   20 1   
    41   19   47 1   
    42   20   21 2   
    43   20   22 1   
    44   22   50 1   
    45   22   51 1   
    46   22   52 1   
    47   23   24 1   
    48   23   26 1   
    49   23   44 1   
    50   24   25 1   
    51   24   53 1   
    52   24   54 1   
    53   25   55 1   
    54   26   27 1   
    55   27   48 1   
    56   27   49 1   
    57   28   38 1   
@<TRIPOS>SUBSTRUCTURE
     1 AS5         1 TEMP              0 ****  ****    0 ROOT
