@<TRIPOS>MOLECULE
AS5
   58    59     1     0     0
SMALL
bcc


@<TRIPOS>ATOM
      1 O7B        -0.2300   -1.5000   -0.2070 o         1 AS5     -0.439100
      2 C7B         0.4200   -0.4840   -0.0100 c         1 AS5      0.577100
      3 C8B         0.1720    0.6030    0.9740 c3        1 AS5     -0.191100
      4 N2B         1.6560   -0.3230   -0.8770 n4        1 AS5     -0.685800
      5 C2B         1.3180   -0.0880   -2.3170 c3        1 AS5      0.100500
      6 C3B         2.5170    0.5320   -3.0750 c3        1 AS5      0.090100
      7 O3B         2.8050    1.7460   -2.4050 oh        1 AS5     -0.620800
      8 C4B         2.0860    0.7680   -4.5380 c3        1 AS5      0.094100
      9 C5B         1.6880   -0.5860   -5.1380 c3        1 AS5      0.133100
     10 C6B         1.1570   -0.4540   -6.5680 c3        1 AS5      0.139400
     11 O6B         1.1650   -1.7690   -7.1010 oh        1 AS5     -0.636800
     12 O5B         0.6200   -1.1920   -4.3950 os        1 AS5     -0.400600
     13 C1B         0.8510   -1.3870   -3.0300 c3        1 AS5      0.328900
     14 O4A         1.9040   -2.3330   -2.9290 os        1 AS5     -0.463600
     15 C4A         1.5070   -3.7090   -2.9210 c3        1 AS5      0.094100
     16 C3A         1.6550   -4.2640   -4.3560 c3        1 AS5      0.115100
     17 O3A         0.4950   -3.9440   -5.0960 oh        1 AS5     -0.640800
     18 C2A         1.8070   -5.8090   -4.3970 c3        1 AS5      0.089500
     19 N2A         0.4940   -6.5120   -4.2110 n4        1 AS5     -0.682800
     20 C7A         0.4580   -7.9280   -4.7750 c         1 AS5      0.559100
     21 O7A         1.5350   -8.4490   -5.0070 o         1 AS5     -0.398100
     22 C8A        -0.9090   -8.4850   -4.9720 c3        1 AS5     -0.191100
     23 C5A         2.4540   -4.3850   -1.9110 c3        1 AS5      0.086100
     24 C6A         2.0570   -4.0850   -0.4570 c3        1 AS5      0.133400
     25 O6A         2.7750   -2.9600    0.0150 oh        1 AS5     -0.648800
     26 O5A         2.3830   -5.8040   -2.0560 os        1 AS5     -0.404600
     27 C1A         2.8300   -6.2360   -3.3300 c3        1 AS5      0.100400
     28 O4B         0.9650    1.6250   -4.5920 oh        1 AS5     -0.573800
     29 H8B1       -0.8120    0.4120    1.4820 hc        1 AS5      0.122367
     30 H8B2        0.9780    0.6160    1.7540 hc        1 AS5      0.122367
     31 H8B3        0.1310    1.6050    0.4740 hc        1 AS5      0.122367
     32 H2B         2.2320   -1.1820   -0.8140 hn        1 AS5      0.484300
     33 HA          0.4610    0.6540   -2.3700 hx        1 AS5      0.149700
     34 H1B        -0.1280   -1.7590   -2.6060 h2        1 AS5      0.123700
     35 H3B         3.5320    2.1800   -2.8750 ho        1 AS5      0.453000
     36 H4B         2.9510    1.2000   -5.1150 h1        1 AS5      0.083700
     37 H5B         2.5790   -1.2760   -5.1110 h1        1 AS5      0.073700
     38 HB          1.2750    2.5190   -4.3910 ho        1 AS5      0.432000
     39 H6B1        0.1180   -0.0300   -6.5580 h1        1 AS5      0.072700
     40 H6B2        1.8420    0.2100   -7.1580 h1        1 AS5      0.072700
     41 H6B         0.7630   -1.7210   -7.9790 ho        1 AS5      0.440000
     42 H4A         0.4360   -3.8180   -2.5950 h1        1 AS5      0.074700
     43 H3A         2.5800   -3.8240   -4.8270 h1        1 AS5      0.100700
     44 H5A         3.5080   -4.0340   -2.1000 h1        1 AS5      0.081700
     45 HC          0.6230   -3.0750   -5.5200 ho        1 AS5      0.486000
     46 H2A         2.1910   -6.0980   -5.4220 hx        1 AS5      0.137700
     47 HD         -0.2420   -5.9570   -4.6730 hn        1 AS5      0.471800
     48 H1A1        3.8290   -5.7970   -3.5920 h1        1 AS5      0.110200
     49 H1A2        2.9200   -7.3540   -3.2440 h1        1 AS5      0.110200
     50 H8A1       -0.8140   -9.5810   -5.2090 hc        1 AS5      0.121033
     51 H8A2       -1.5440   -8.3700   -4.0580 hc        1 AS5      0.121033
     52 H8A3       -1.4110   -7.9800   -5.8380 hc        1 AS5      0.121033
     53 H6A1        2.2460   -4.9870    0.1840 h1        1 AS5      0.085200
     54 H6A2        0.9760   -3.7860   -0.3840 h1        1 AS5      0.085200
     55 H6A         3.6520   -3.2570    0.2920 ho        1 AS5      0.441000
     56 H3B1        3.4070   -0.1560   -3.0470 h1        1 AS5      0.078700
     57 H2B2        2.2110    0.4790   -0.5460 hn        1 AS5      0.484300
     58 H2A2        0.2890   -6.5560   -3.2050 hn        1 AS5      0.471800
@<TRIPOS>BOND
     1    1    2 2   
     2    2    3 1   
     3    2    4 1   
     4    3   29 1   
     5    3   30 1   
     6    3   31 1   
     7    4    5 1   
     8    4   32 1   
     9    4   57 1   
    10    5    6 1   
    11    5   13 1   
    12    5   33 1   
    13    6    7 1   
    14    6    8 1   
    15    6   56 1   
    16    7   35 1   
    17    8    9 1   
    18    8   28 1   
    19    8   36 1   
    20    9   10 1   
    21    9   12 1   
    22    9   37 1   
    23   10   11 1   
    24   10   39 1   
    25   10   40 1   
    26   11   41 1   
    27   12   13 1   
    28   13   14 1   
    29   13   34 1   
    30   14   15 1   
    31   15   16 1   
    32   15   23 1   
    33   15   42 1   
    34   16   17 1   
    35   16   18 1   
    36   16   43 1   
    37   17   45 1   
    38   18   19 1   
    39   18   27 1   
    40   18   46 1   
    41   19   20 1   
    42   19   47 1   
    43   19   58 1   
    44   20   21 2   
    45   20   22 1   
    46   22   50 1   
    47   22   51 1   
    48   22   52 1   
    49   23   24 1   
    50   23   26 1   
    51   23   44 1   
    52   24   25 1   
    53   24   53 1   
    54   24   54 1   
    55   25   55 1   
    56   26   27 1   
    57   27   48 1   
    58   27   49 1   
    59   28   38 1   
@<TRIPOS>SUBSTRUCTURE
     1 AS5         1 TEMP              0 ****  ****    0 ROOT
