@<TRIPOS>MOLECULE
AS5
   56    56     1     0     0
SMALL
bcc


@<TRIPOS>ATOM
      1 O7B        -2.2230    1.2890    4.0180 o         1 AS5     -0.398000
      2 C7B        -1.0190    1.3910    4.0150 c1        1 AS5      0.308000
      3 C8B        -0.2540    1.4150    5.3360 c2        1 AS5     -0.237000
      4 N2B        -0.3120    1.5540    2.7660 n3        1 AS5     -0.354000
      5 C2B        -1.0570    1.5970    1.5120 c3        1 AS5     -0.045000
      6 C3B        -1.2250    3.0110    1.1010 c3        1 AS5     -0.007000
      7 O3B        -1.7640    3.7690    2.2290 oh        1 AS5     -0.343000
      8 C4B         0.0530    3.6280    0.6840 c3        1 AS5      0.006000
      9 C5B         0.7790    2.7980   -0.3550 c3        1 AS5     -0.001000
     10 C6B         0.0030    2.8530   -1.6560 c3        1 AS5     -0.034000
     11 O6B         0.3620    4.0580   -2.3770 oh        1 AS5     -0.320000
     12 O5B         0.9350    1.3910    0.0560 os        1 AS5     -0.302000
     13 C1B        -0.3170    0.7750    0.4660 c3        1 AS5      0.158000
     14 O4A        -0.0410   -0.5160    1.0050 os        1 AS5     -0.281000
     15 C4A        -0.0290   -1.4880   -0.0410 c3        1 AS5      0.026000
     16 C3A         1.3400   -2.0890   -0.1170 c3        1 AS5      0.006000
     17 O3A         2.3110   -1.0180   -0.4910 oh        1 AS5     -0.350000
     18 C2A         1.4470   -3.1660   -1.0790 c3        1 AS5     -0.039000
     19 N2A         1.3150   -2.5660   -2.4930 n         1 AS5     -0.373000
     20 C7A         2.0760   -3.1100   -3.5720 c2        1 AS5      0.311000
     21 O7A         2.8470   -4.0690   -3.3710 o         1 AS5     -0.392000
     22 C8A         1.9390   -2.5340   -4.9500 c3        1 AS5     -0.240000
     23 C5A        -1.1790   -2.5310    0.2360 c3        1 AS5     -0.036000
     24 C6A        -2.3720   -1.9710    0.0770 c3        1 AS5     -0.009000
     25 O6A        -3.3610   -2.9700    0.0260 oh        1 AS5     -0.321000
     26 O5A        -0.9130   -3.6600   -0.8900 os        1 AS5     -0.281000
     27 C1A         0.4660   -4.1750   -0.9350 c3        1 AS5     -0.030000
     28 O4B        -0.2220    4.9290    0.1290 oh        1 AS5     -0.344000
     29 H8B1        0.3030    2.1960    5.3690 ha        1 AS5      0.109667
     30 H8B2        0.3040    0.6130    5.4060 ha        1 AS5      0.109667
     31 H8B3       -0.8920    1.4360    6.0810 ha        1 AS5      0.109667
     32 H2B         0.5820    1.7110    2.7670 hn        1 AS5      0.247000
     33 HA         -1.9620    1.1930    1.6590 h1        1 AS5      0.125000
     34 H1B        -0.8780    0.6770   -0.3030 h2        1 AS5      0.107000
     35 H3B        -1.0970    4.3010    2.5920 ho        1 AS5      0.246000
     36 H4B         0.6380    3.7330    1.4820 h1        1 AS5      0.108000
     37 H5B         1.6510    3.1750   -0.5000 h1        1 AS5      0.141000
     38 HB         -0.0390    5.5400    0.7190 ho        1 AS5      0.236000
     39 H6B1       -0.9680    2.8600   -1.4620 h1        1 AS5      0.091500
     40 H6B2        0.2250    2.0590   -2.2090 h1        1 AS5      0.091500
     41 H6B         0.1330    3.9720   -3.2360 ho        1 AS5      0.222000
     42 H4A        -0.2160   -1.0400   -0.8810 h1        1 AS5      0.131000
     43 H3A         1.5760   -2.4310    0.7580 h1        1 AS5      0.101000
     44 H5A        -1.0920   -2.9060    1.1200 h1        1 AS5      0.110000
     45 HC          3.0840   -1.2030   -0.1590 ho        1 AS5      0.236000
     46 H2A         2.3610   -3.5870   -0.9920 h1        1 AS5      0.128000
     47 HD          0.7830   -1.8690   -2.6320 hn        1 AS5      0.235000
     48 H1A1        0.6470   -4.6740   -0.0900 h1        1 AS5      0.106500
     49 H1A2        0.5410   -4.7820   -1.6700 h1        1 AS5      0.106500
     50 H8A1        2.1290   -1.5490   -4.9210 hc        1 AS5      0.109333
     51 H8A2        1.0100   -2.6850   -5.2840 hc        1 AS5      0.109333
     52 H8A3        2.5700   -2.9680   -5.5440 hc        1 AS5      0.109333
     53 H6A1       -2.3830   -1.4570   -0.7660 h1        1 AS5      0.100000
     54 H6A2       -2.5560   -1.3600    0.8420 h1        1 AS5      0.100000
     55 H6A        -4.1640   -2.6050    0.1860 ho        1 AS5      0.209000
     56 H3B1       -1.8740    3.0550    0.3390 h1        1 AS5      0.088000
@<TRIPOS>BOND
     1    1    2 1   
     2    2    4 1   
     3    3   29 1   
     4    3   30 1   
     5    3   31 1   
     6    4    5 1   
     7    4   32 1   
     8    5    6 1   
     9    5   13 1   
    10    5   33 1   
    11    6    7 1   
    12    6    8 1   
    13    6   56 1   
    14    7   35 1   
    15    8    9 1   
    16    8   28 1   
    17    8   36 1   
    18    9   10 1   
    19    9   12 1   
    20    9   37 1   
    21   10   11 1   
    22   10   39 1   
    23   10   40 1   
    24   11   41 1   
    25   12   13 1   
    26   13   14 1   
    27   13   34 1   
    28   14   15 1   
    29   15   16 1   
    30   15   23 1   
    31   15   42 1   
    32   16   17 1   
    33   16   18 1   
    34   16   43 1   
    35   17   45 1   
    36   18   19 1   
    37   18   27 1   
    38   18   46 1   
    39   19   20 1   
    40   19   47 1   
    41   20   21 1   
    42   20   22 1   
    43   22   50 1   
    44   22   51 1   
    45   22   52 1   
    46   23   24 1   
    47   23   26 1   
    48   23   44 1   
    49   24   25 1   
    50   24   53 1   
    51   24   54 1   
    52   25   55 1   
    53   26   27 1   
    54   27   48 1   
    55   27   49 1   
    56   28   38 1   
@<TRIPOS>SUBSTRUCTURE
     1 AS5         1 TEMP              0 ****  ****    0 ROOT
