@<TRIPOS>MOLECULE
AS6
   71    74     1     0     0
SMALL
bcc


@<TRIPOS>ATOM
      1 C1         -0.3460   -0.2850   -1.4760 c3        1 AS6     -0.134100
      2 C2          1.1270   -0.1840   -1.0870 c3        1 AS6      0.157500
      3 C3          1.2430    0.1230    0.3930 c3        1 AS6     -0.134100
      4 N1          1.8550   -1.4610   -1.5310 n4        1 AS6     -0.558500
      5 C4          3.3110   -1.2980   -1.7760 ca        1 AS6      0.562200
      6 C5          4.0130   -0.1250   -1.4340 ca        1 AS6     -0.287600
      7 C6          5.3960   -0.0870   -1.7510 ca        1 AS6      0.488200
      8 N2          6.0390   -1.1000   -2.3460 nb        1 AS6     -0.619000
      9 C7          5.2630   -2.2010   -2.6470 ca        1 AS6      0.754900
     10 N3          5.9600   -3.3450   -3.3190 n4        1 AS6     -0.607100
     11 C8          6.3290   -3.0340   -4.7120 ca        1 AS6     -0.030400
     12 C9          5.5250   -3.5420   -5.7490 ca        1 AS6     -0.192000
     13 C10         5.9320   -3.3740   -7.0960 ca        1 AS6      0.214600
     14 C11         7.1300   -2.6210   -7.3250 ca        1 AS6     -0.041000
     15 C12         7.8800   -2.1030   -6.2870 ca        1 AS6     -0.271500
     16 C13         7.4910   -2.3040   -4.9570 ca        1 AS6     -0.066000
     17 S1          9.3780   -1.2880   -6.5980 sy        1 AS6      1.389300
     18 O1         10.0210   -1.1710   -5.3640 o         1 AS6     -0.626300
     19 O2          9.9950   -1.9400   -7.6580 o         1 AS6     -0.626300
     20 C14         8.7830    0.2010   -7.0880 c3        1 AS6     -0.386300
     21 N4          5.2430   -3.9640   -8.1420 nh        1 AS6     -0.637000
     22 C15         3.9420   -4.5450   -7.8720 c3        1 AS6      0.164300
     23 C16         3.2760   -5.2230   -9.0780 c3        1 AS6      0.116900
     24 O3          3.4070   -4.4380  -10.2510 os        1 AS6     -0.384600
     25 C17         4.7730   -4.2720  -10.6000 c3        1 AS6      0.116900
     26 C18         5.5560   -3.5450   -9.4980 c3        1 AS6      0.164300
     27 N5          3.9320   -2.3540   -2.3980 nb        1 AS6     -0.670000
     28 C19         1.5230   -2.6510   -0.7150 ca        1 AS6     -0.045400
     29 C20         0.5260   -3.4910   -1.2670 ca        1 AS6     -0.105000
     30 C21         0.1100   -4.6350   -0.5950 ca        1 AS6     -0.052300
     31 C22        -0.9540   -5.5230   -1.1600 c3        1 AS6      0.165700
     32 O4         -1.2480   -5.0960   -2.4820 oh        1 AS6     -0.620800
     33 C23         0.6910   -4.9580    0.6410 ca        1 AS6     -0.068000
     34 C24         1.6720   -4.1370    1.1760 ca        1 AS6     -0.116000
     35 C25         2.1140   -2.9710    0.5210 ca        1 AS6     -0.035300
     36 C26         3.1510   -2.1870    1.2320 c3        1 AS6     -0.077800
     37 H11C       -0.8530   -1.1290   -0.9450 hc        1 AS6      0.085033
     38 H12C       -0.8480    0.6710   -1.1770 hc        1 AS6      0.085033
     39 H13C       -0.4770   -0.4130   -2.5790 hc        1 AS6      0.085033
     40 H2          1.5980    0.6490   -1.6920 hx        1 AS6      0.090700
     41 H31C        2.3010    0.2840    0.7110 hc        1 AS6      0.085033
     42 H32C        0.7990   -0.6950    1.0150 hc        1 AS6      0.085033
     43 H33C        0.6710    1.0660    0.5970 hc        1 AS6      0.085033
     44 H5          3.5540    0.7410   -0.9280 ha        1 AS6      0.211000
     45 H6          6.0170    0.8060   -1.5060 h4        1 AS6      0.102100
     46 H3          5.3490   -4.1780   -3.3060 hn        1 AS6      0.489300
     47 H9          4.5980   -4.0860   -5.5100 ha        1 AS6      0.152000
     48 H13         8.1280   -1.9050   -4.1440 ha        1 AS6      0.192000
     49 H11         7.4970   -2.4650   -8.3590 ha        1 AS6      0.182000
     50 H141        8.0210    0.1440   -7.9040 h1        1 AS6      0.131367
     51 H142        9.6050    0.8490   -7.5020 h1        1 AS6      0.131367
     52 H143        8.3230    0.7990   -6.2630 h1        1 AS6      0.131367
     53 H151        4.0650   -5.3340   -7.0740 h1        1 AS6      0.053950
     54 H152        3.2480   -3.7450   -7.4810 h1        1 AS6      0.053950
     55 H181        5.3700   -2.4360   -9.5960 h1        1 AS6      0.053950
     56 H182        6.6510   -3.7460   -9.6870 h1        1 AS6      0.053950
     57 H161        3.7120   -6.2440   -9.2430 h1        1 AS6      0.079200
     58 H162        2.1690   -5.2980   -8.9050 h1        1 AS6      0.079200
     59 H171        4.7550   -3.6410  -11.5290 h1        1 AS6      0.079200
     60 H172        5.2380   -5.2690  -10.8200 h1        1 AS6      0.079200
     61 H20         0.0470   -3.2620   -2.2390 ha        1 AS6      0.174000
     62 H221       -1.8750   -5.4570   -0.5160 h1        1 AS6      0.066200
     63 H222       -0.5900   -6.5880   -1.1760 h1        1 AS6      0.066200
     64 H23         0.3660   -5.8620    1.1840 ha        1 AS6      0.178000
     65 H4         -1.9890   -5.6360   -2.7880 ho        1 AS6      0.437000
     66 H24         2.1230   -4.3940    2.1510 ha        1 AS6      0.174000
     67 H261        3.9300   -2.8750    1.6550 hc        1 AS6      0.062367
     68 H262        2.6840   -1.6400    2.0930 hc        1 AS6      0.062367
     69 H263        3.6700   -1.4410    0.5870 hc        1 AS6      0.062367
     70 H111        1.4500   -1.6580   -2.4730 hn        1 AS6      0.468800
     71 H32         6.8260   -3.5470   -2.7900 hn        1 AS6      0.489300
@<TRIPOS>BOND
     1    1    2 1   
     2    1   37 1   
     3    1   38 1   
     4    1   39 1   
     5    2    3 1   
     6    2    4 1   
     7    2   40 1   
     8    3   41 1   
     9    3   42 1   
    10    3   43 1   
    11    4    5 1   
    12    4   28 1   
    13    4   70 1   
    14    5    6 ar  
    15    5   27 ar  
    16    6    7 ar  
    17    6   44 1   
    18    7    8 ar  
    19    7   45 1   
    20    8    9 ar  
    21    9   10 1   
    22    9   27 ar  
    23   10   11 1   
    24   10   46 1   
    25   10   71 1   
    26   11   12 ar  
    27   11   16 ar  
    28   12   13 ar  
    29   12   47 1   
    30   13   14 ar  
    31   13   21 1   
    32   14   15 ar  
    33   14   49 1   
    34   15   16 ar  
    35   15   17 1   
    36   16   48 1   
    37   17   18 2   
    38   17   19 2   
    39   17   20 1   
    40   20   50 1   
    41   20   51 1   
    42   20   52 1   
    43   21   22 1   
    44   21   26 1   
    45   22   23 1   
    46   22   53 1   
    47   22   54 1   
    48   23   24 1   
    49   23   57 1   
    50   23   58 1   
    51   24   25 1   
    52   25   26 1   
    53   25   59 1   
    54   25   60 1   
    55   26   55 1   
    56   26   56 1   
    57   28   29 ar  
    58   28   35 ar  
    59   29   30 ar  
    60   29   61 1   
    61   30   31 1   
    62   30   33 ar  
    63   31   32 1   
    64   31   62 1   
    65   31   63 1   
    66   32   65 1   
    67   33   34 ar  
    68   33   64 1   
    69   34   35 ar  
    70   34   66 1   
    71   35   36 1   
    72   36   67 1   
    73   36   68 1   
    74   36   69 1   
@<TRIPOS>SUBSTRUCTURE
     1 AS6         1 TEMP              0 ****  ****    0 ROOT
