@<TRIPOS>MOLECULE
AS6
   69    72     1     0     0
SMALL
bcc


@<TRIPOS>ATOM
      1 C1         -0.1420   -0.4270    0.4190 c3        1 AS6     -0.112600
      2 C2          1.2750   -0.1040   -0.0560 c3        1 AS6      0.244500
      3 C3          2.0730    0.4160    1.1450 c3        1 AS6     -0.112600
      4 N1          1.9170   -1.2120   -0.7530 nh        1 AS6     -0.680700
      5 C4          2.9630   -0.9740   -1.6420 ca        1 AS6      0.743200
      6 C5          3.4850    0.3470   -1.8430 ca        1 AS6     -0.471600
      7 C6          4.5000    0.4930   -2.7920 ca        1 AS6      0.481200
      8 N2          5.0270   -0.5170   -3.5030 nb        1 AS6     -0.775000
      9 C7          4.5000   -1.7720   -3.2320 ca        1 AS6      0.893900
     10 N3          5.0710   -2.9120   -3.8520 nu        1 AS6     -0.708300
     11 C8          5.7980   -2.8000   -5.0600 ca        1 AS6      0.137600
     12 C9          5.3710   -3.5140   -6.2000 ca        1 AS6     -0.162000
     13 C10         6.1280   -3.5020   -7.3880 ca        1 AS6      0.128600
     14 C11         7.3060   -2.7240   -7.4230 ca        1 AS6     -0.061000
     15 C12         7.7210   -1.9970   -6.3090 ca        1 AS6     -0.346500
     16 C13         6.9860   -2.0510   -5.1230 ca        1 AS6     -0.029000
     17 S1          9.1290   -1.0790   -6.3810 sy        1 AS6      1.394300
     18 O1          9.8620   -1.2020   -5.1940 o         1 AS6     -0.657300
     19 O2          9.8070   -1.3350   -7.5830 o         1 AS6     -0.657300
     20 C14         8.4540    0.4720   -6.4520 c3        1 AS6     -0.361300
     21 N4          5.7930   -4.3000   -8.5130 nh        1 AS6     -0.631000
     22 C15         4.7200   -5.2640   -8.3300 c3        1 AS6      0.148300
     23 C16         4.5560   -6.1760   -9.5540 c3        1 AS6      0.123900
     24 O3          4.4020   -5.4230  -10.7500 os        1 AS6     -0.412600
     25 C17         5.4920   -4.5340  -10.9650 c3        1 AS6      0.123900
     26 C18         5.6890   -3.5820   -9.7770 c3        1 AS6      0.148300
     27 N5          3.4720   -2.0370   -2.3490 nb        1 AS6     -0.803000
     28 C19         1.4960   -2.5460   -0.4770 ca        1 AS6      0.143600
     29 C20         0.3560   -3.0560   -1.1290 ca        1 AS6     -0.119000
     30 C21        -0.0920   -4.3540   -0.8730 ca        1 AS6     -0.096300
     31 C22        -1.2990   -4.8450   -1.6020 c3        1 AS6      0.178700
     32 O4         -1.7300   -6.0710   -1.0290 oh        1 AS6     -0.598800
     33 C23         0.6000   -5.1610    0.0330 ca        1 AS6     -0.093000
     34 C24         1.7370   -4.6710    0.6660 ca        1 AS6     -0.134000
     35 C25         2.2080   -3.3760    0.4230 ca        1 AS6     -0.055300
     36 C26         3.4480   -2.9180    1.0930 c3        1 AS6     -0.057800
     37 H11C       -0.1410   -1.2620    1.1600 hc        1 AS6      0.047367
     38 H12C       -0.5670    0.4840    0.9050 hc        1 AS6      0.047367
     39 H13C       -0.7960   -0.7130   -0.4390 hc        1 AS6      0.047367
     40 H2          1.1850    0.7420   -0.8070 h1        1 AS6      0.053700
     41 H31C        1.9910   -0.2860    2.0090 hc        1 AS6      0.047367
     42 H32C        1.6550    1.4050    1.4510 hc        1 AS6      0.047367
     43 H33C        3.1520    0.5470    0.8920 hc        1 AS6      0.047367
     44 H5          3.1260    1.2140   -1.2820 ha        1 AS6      0.154000
     45 H6          4.9310    1.4900   -3.0030 h4        1 AS6      0.023100
     46 H3          4.5120   -3.7410   -3.7840 hn        1 AS6      0.438800
     47 H9          4.4340   -4.0930   -6.1470 ha        1 AS6      0.139000
     48 H13         7.3550   -1.5080   -4.2350 ha        1 AS6      0.171000
     49 H11         7.9330   -2.6970   -8.3340 ha        1 AS6      0.166000
     50 H141        8.0030    0.7040   -7.4470 h1        1 AS6      0.116367
     51 H142        7.6510    0.6390   -5.6910 h1        1 AS6      0.116367
     52 H143        9.2290    1.2580   -6.2650 h1        1 AS6      0.116367
     53 H151        4.9690   -5.9050   -7.4390 h1        1 AS6      0.048200
     54 H152        3.7310   -4.7520   -8.1370 h1        1 AS6      0.048200
     55 H181        6.6370   -3.0000   -9.9450 h1        1 AS6      0.048200
     56 H182        4.8270   -2.8530   -9.7570 h1        1 AS6      0.048200
     57 H161        5.4330   -6.8680   -9.6530 h1        1 AS6      0.058700
     58 H162        3.6050   -6.7640   -9.4670 h1        1 AS6      0.058700
     59 H171        5.2040   -3.9510  -11.8780 h1        1 AS6      0.058700
     60 H172        6.4260   -5.1240  -11.1590 h1        1 AS6      0.058700
     61 H20        -0.1910   -2.4320   -1.8540 ha        1 AS6      0.135000
     62 H221       -1.0450   -5.0030   -2.6880 h1        1 AS6      0.031200
     63 H222       -2.1270   -4.0860   -1.5320 h1        1 AS6      0.031200
     64 H23         0.2400   -6.1820    0.2380 ha        1 AS6      0.155000
     65 H4         -2.4960   -6.3530   -1.5430 ho        1 AS6      0.403000
     66 H24         2.2840   -5.3180    1.3700 ha        1 AS6      0.136000
     67 H261        3.2830   -1.9430    1.6160 hc        1 AS6      0.049367
     68 H262        3.8000   -3.6660    1.8460 hc        1 AS6      0.049367
     69 H263        4.2600   -2.7750    0.3350 hc        1 AS6      0.049367
@<TRIPOS>BOND
     1    1    2 1   
     2    1   37 1   
     3    1   38 1   
     4    1   39 1   
     5    2    3 1   
     6    2    4 1   
     7    2   40 1   
     8    3   41 1   
     9    3   42 1   
    10    3   43 1   
    11    4    5 1   
    12    4   28 1   
    13    5    6 ar  
    14    5   27 ar  
    15    6    7 ar  
    16    6   44 1   
    17    7    8 ar  
    18    7   45 1   
    19    8    9 ar  
    20    9   10 1   
    21    9   27 ar  
    22   10   11 1   
    23   10   46 1   
    24   11   12 ar  
    25   11   16 ar  
    26   12   13 ar  
    27   12   47 1   
    28   13   14 ar  
    29   13   21 1   
    30   14   15 ar  
    31   14   49 1   
    32   15   16 ar  
    33   15   17 1   
    34   16   48 1   
    35   17   18 2   
    36   17   19 2   
    37   17   20 1   
    38   20   50 1   
    39   20   51 1   
    40   20   52 1   
    41   21   22 1   
    42   21   26 1   
    43   22   23 1   
    44   22   53 1   
    45   22   54 1   
    46   23   24 1   
    47   23   57 1   
    48   23   58 1   
    49   24   25 1   
    50   25   26 1   
    51   25   59 1   
    52   25   60 1   
    53   26   55 1   
    54   26   56 1   
    55   28   29 ar  
    56   28   35 ar  
    57   29   30 ar  
    58   29   61 1   
    59   30   31 1   
    60   30   33 ar  
    61   31   32 1   
    62   31   62 1   
    63   31   63 1   
    64   32   65 1   
    65   33   34 ar  
    66   33   64 1   
    67   34   35 ar  
    68   34   66 1   
    69   35   36 1   
    70   36   67 1   
    71   36   68 1   
    72   36   69 1   
@<TRIPOS>SUBSTRUCTURE
     1 AS6         1 TEMP              0 ****  ****    0 ROOT
