@<TRIPOS>MOLECULE
AS6
   69    72     1     0     0
SMALL
bcc


@<TRIPOS>ATOM
      1 C1          6.3330    0.5070    1.9760 c3        1 AS6     -0.112600
      2 C2          5.1560    1.4210    1.6340 c3        1 AS6      0.244500
      3 C3          5.7140    2.7150    1.0340 c3        1 AS6     -0.112600
      4 N1          4.1460    0.7760    0.8040 nh        1 AS6     -0.680700
      5 C4          2.8360    1.2510    0.7900 ca        1 AS6      0.743200
      6 C5          2.4590    2.4220    1.5280 ca        1 AS6     -0.471600
      7 C6          1.1130    2.7910    1.4920 ca        1 AS6      0.481200
      8 N2          0.1640    2.1390    0.8010 nb        1 AS6     -0.775000
      9 C7          0.6040    1.0370    0.0820 ca        1 AS6      0.893900
     10 N3         -0.3030    0.3550   -0.7660 nh        1 AS6     -0.708300
     11 C8         -1.7000    0.4290   -0.5530 ca        1 AS6      0.137600
     12 C9         -2.4340   -0.7530   -0.3210 ca        1 AS6     -0.162000
     13 C10        -3.8380   -0.7240   -0.2040 ca        1 AS6      0.128600
     14 C11        -4.4900    0.5270   -0.2840 ca        1 AS6     -0.061000
     15 C12        -3.7690    1.7020   -0.4900 ca        1 AS6     -0.346500
     16 C13        -2.3820    1.6550   -0.6470 ca        1 AS6     -0.029000
     17 S1         -4.5730    3.1770   -0.5810 sy        1 AS6      1.394300
     18 O1         -4.0300    3.9750   -1.5950 o         1 AS6     -0.657300
     19 O2         -5.9610    2.9650   -0.6050 o         1 AS6     -0.657300
     20 C14        -4.1430    3.8290    0.9210 c3        1 AS6     -0.361300
     21 N4         -4.6190   -1.9030   -0.0890 nh        1 AS6     -0.631000
     22 C15        -3.9170   -3.1650   -0.2630 c3        1 AS6      0.148300
     23 C16        -4.8840   -4.3580   -0.2780 c3        1 AS6      0.123900
     24 O3         -5.7240   -4.3650    0.8690 os        1 AS6     -0.412600
     25 C17        -6.4650   -3.1570    0.9950 c3        1 AS6      0.123900
     26 C18        -5.5450   -1.9300    1.0370 c3        1 AS6      0.148300
     27 N5          1.8970    0.5520    0.0690 nb        1 AS6     -0.803000
     28 C19         4.5240   -0.3160   -0.0310 ca        1 AS6      0.143600
     29 C20         4.6100   -1.6090    0.5230 ca        1 AS6     -0.119000
     30 C21         4.9900   -2.6980   -0.2630 ca        1 AS6     -0.096300
     31 C22         5.0530   -4.0470    0.3750 c3        1 AS6      0.178700
     32 O4          5.6890   -4.9590   -0.5090 oh        1 AS6     -0.598800
     33 C23         5.2820   -2.5100   -1.6160 ca        1 AS6     -0.093000
     34 C24         5.1810   -1.2400   -2.1750 ca        1 AS6     -0.134000
     35 C25         4.7980   -0.1340   -1.4090 ca        1 AS6     -0.055300
     36 C26         4.6670    1.1890   -2.0620 c3        1 AS6     -0.057800
     37 H11C        7.0330    1.0690    2.6400 hc        1 AS6      0.047367
     38 H12C        5.9880   -0.4090    2.5120 hc        1 AS6      0.047367
     39 H13C        6.8840    0.1960    1.0560 hc        1 AS6      0.047367
     40 H2          4.6480    1.6830    2.6150 h1        1 AS6      0.053700
     41 H31C        6.4210    2.4920    0.1990 hc        1 AS6      0.047367
     42 H32C        4.8990    3.3710    0.6440 hc        1 AS6      0.047367
     43 H33C        6.2690    3.2690    1.8290 hc        1 AS6      0.047367
     44 H5          3.1810    3.0200    2.0920 ha        1 AS6      0.154000
     45 H6          0.7590    3.6750    2.0550 h4        1 AS6      0.023100
     46 H3          0.0170   -0.5420   -1.0760 hn        1 AS6      0.438800
     47 H9         -1.8930   -1.7100   -0.2400 ha        1 AS6      0.139000
     48 H13        -1.8320    2.5900   -0.8580 ha        1 AS6      0.171000
     49 H11        -5.5910    0.5910   -0.2070 ha        1 AS6      0.166000
     50 H141       -3.0510    3.7390    1.1450 h1        1 AS6      0.116367
     51 H142       -4.3830    4.9220    0.9700 h1        1 AS6      0.116367
     52 H143       -4.6840    3.3500    1.7730 h1        1 AS6      0.116367
     53 H151       -3.3740   -3.1350   -1.2480 h1        1 AS6      0.048200
     54 H152       -3.1610   -3.3360    0.5590 h1        1 AS6      0.048200
     55 H181       -4.9870   -1.9340    2.0180 h1        1 AS6      0.048200
     56 H182       -6.1860   -1.0060    1.0020 h1        1 AS6      0.048200
     57 H161       -5.5120   -4.3480   -1.2070 h1        1 AS6      0.058700
     58 H162       -4.3070   -5.3170   -0.2110 h1        1 AS6      0.058700
     59 H171       -7.1980   -3.0750    0.1490 h1        1 AS6      0.058700
     60 H172       -7.0080   -3.2610    1.9700 h1        1 AS6      0.058700
     61 H20         4.3710   -1.7700    1.5860 ha        1 AS6      0.135000
     62 H221        5.6320   -3.9920    1.3390 h1        1 AS6      0.031200
     63 H222        4.0100   -4.4050    0.6010 h1        1 AS6      0.031200
     64 H23         5.5880   -3.3700   -2.2320 ha        1 AS6      0.155000
     65 H4          5.6880   -5.8120   -0.0610 ho        1 AS6      0.403000
     66 H24         5.4020   -1.1020   -3.2450 ha        1 AS6      0.136000
     67 H261        5.2530    1.9670   -1.5120 hc        1 AS6      0.049367
     68 H262        5.0320    1.1560   -3.1180 hc        1 AS6      0.049367
     69 H263        3.5920    1.5040   -2.0730 hc        1 AS6      0.049367
@<TRIPOS>BOND
     1    1    2 1   
     2    1   37 1   
     3    1   38 1   
     4    1   39 1   
     5    2    3 1   
     6    2    4 1   
     7    2   40 1   
     8    3   41 1   
     9    3   42 1   
    10    3   43 1   
    11    4    5 1   
    12    4   28 1   
    13    5    6 ar  
    14    5   27 ar  
    15    6    7 ar  
    16    6   44 1   
    17    7    8 ar  
    18    7   45 1   
    19    8    9 ar  
    20    9   10 1   
    21    9   27 ar  
    22   10   11 1   
    23   10   46 1   
    24   11   12 ar  
    25   11   16 ar  
    26   12   13 ar  
    27   12   47 1   
    28   13   14 ar  
    29   13   21 1   
    30   14   15 ar  
    31   14   49 1   
    32   15   16 ar  
    33   15   17 1   
    34   16   48 1   
    35   17   18 2   
    36   17   19 2   
    37   17   20 1   
    38   20   50 1   
    39   20   51 1   
    40   20   52 1   
    41   21   22 1   
    42   21   26 1   
    43   22   23 1   
    44   22   53 1   
    45   22   54 1   
    46   23   24 1   
    47   23   57 1   
    48   23   58 1   
    49   24   25 1   
    50   25   26 1   
    51   25   59 1   
    52   25   60 1   
    53   26   55 1   
    54   26   56 1   
    55   28   29 ar  
    56   28   35 ar  
    57   29   30 ar  
    58   29   61 1   
    59   30   31 1   
    60   30   33 ar  
    61   31   32 1   
    62   31   62 1   
    63   31   63 1   
    64   32   65 1   
    65   33   34 ar  
    66   33   64 1   
    67   34   35 ar  
    68   34   66 1   
    69   35   36 1   
    70   36   67 1   
    71   36   68 1   
    72   36   69 1   
@<TRIPOS>SUBSTRUCTURE
     1 AS6         1 TEMP              0 ****  ****    0 ROOT
