@<TRIPOS>MOLECULE
AS6
   69    65     1     0     0
SMALL
bcc


@<TRIPOS>ATOM
      1 C1         -1.6650   -0.6410    4.3660 c3        1 AS6     -0.228500
      2 C2         -2.6700   -0.8360    3.2300 c3        1 AS6      0.032000
      3 C3         -4.0370   -1.1440    3.8100 c3        1 AS6     -0.228500
      4 N1         -2.7420    0.3730    2.4350 n3        1 AS6     -0.219000
      5 C4         -1.8700    0.5360    1.2740 c2        1 AS6      0.203000
      6 C5         -1.4560    1.7840    0.9010 c1        1 AS6     -0.319000
      7 C6         -0.5690    1.9300   -0.1280 c1        1 AS6      0.011000
      8 N2         -0.1010    0.8380   -0.7790 n1        1 AS6     -0.244000
      9 C7         -0.5110   -0.4030   -0.4080 c1        1 AS6      0.172000
     10 N3         -0.0590   -1.5650   -1.1460 n3        1 AS6     -0.229000
     11 C8          1.0970   -1.4720   -1.9910 c2        1 AS6      0.051000
     12 C9          2.3010   -2.0140   -1.5740 c2        1 AS6     -0.136000
     13 C10         3.4020   -2.0110   -2.4330 c1        1 AS6      0.041000
     14 C11         3.2900   -1.4670   -3.6990 c1        1 AS6     -0.083000
     15 C12         2.0790   -0.9220   -4.1180 c1        1 AS6     -0.791000
     16 C13         0.9850   -0.9250   -3.2650 c1        1 AS6     -0.020000
     17 S1          1.9420   -0.1970   -5.7420 s4        1 AS6      2.074800
     18 O1          2.6680   -0.9620   -6.7190 o         1 AS6     -0.546400
     19 O2          0.5970   -0.3010   -6.2490 o         1 AS6     -0.546400
     20 C14         2.4920    1.5010   -5.7100 c2        1 AS6     -0.940000
     21 N4          4.6360   -2.6270   -2.0210 n3        1 AS6     -0.225000
     22 C15         5.1880   -3.4850   -3.1700 c3        1 AS6     -0.091500
     23 C16         6.5520   -4.0670   -2.8630 c3        1 AS6     -0.049000
     24 O3          7.1220   -3.4310   -1.9360 os        1 AS6     -0.268000
     25 C17         7.1220   -2.1810   -1.7560 c3        1 AS6     -0.049000
     26 C18         5.7680   -1.5830   -2.0530 c3        1 AS6     -0.091500
     27 N5         -1.4020   -0.5510    0.6260 n2        1 AS6     -0.285000
     28 C19        -3.6650    1.4490    2.8180 c2        1 AS6      0.027000
     29 C20        -3.2550    2.4260    3.7180 c2        1 AS6     -0.135000
     30 C21        -4.0820    3.5140    3.9900 c1        1 AS6     -0.085000
     31 C22        -3.6240    4.6000    4.9760 c2        1 AS6      0.020000
     32 O4         -4.5830    4.7320    6.0140 oh        1 AS6     -0.326000
     33 C23        -5.3150    3.6230    3.3610 c2        1 AS6     -0.091000
     34 C24        -5.7250    2.6460    2.4590 c1        1 AS6     -0.137000
     35 C25        -4.9000    1.5590    2.1870 c1        1 AS6     -0.048000
     36 C26        -5.3080    0.5520    1.1610 c3        1 AS6     -0.179000
     37 H11C       -0.8310   -0.2880    4.0060 hc        1 AS6      0.083167
     38 H12C       -1.4930   -1.5070    4.8040 hc        1 AS6      0.083167
     39 H13C       -2.0320   -0.0080    5.0250 hc        1 AS6      0.083167
     40 H2         -2.3810   -1.5810    2.6640 h1        1 AS6      0.120000
     41 H31C       -4.7010   -1.1520    3.0940 hc        1 AS6      0.083167
     42 H32C       -4.2750   -0.4570    4.4670 hc        1 AS6      0.083167
     43 H33C       -4.0160   -2.0230    4.2480 hc        1 AS6      0.083167
     44 H5         -1.7940    2.5710    1.3700 ha        1 AS6      0.164000
     45 H6         -0.2720    2.8240   -0.3960 ha        1 AS6      0.162000
     46 H3         -0.4850   -2.3620   -1.0440 hn        1 AS6      0.232000
     47 H9          2.3800   -2.3950   -0.6860 ha        1 AS6      0.142000
     48 H13         0.1360   -0.5430   -3.5590 ha        1 AS6      0.172000
     49 H11         4.0560   -1.4650   -4.2960 ha        1 AS6      0.160000
     50 H141        1.8160    2.0550   -5.2680 ha        1 AS6      0.156333
     51 H142        2.6260    1.8190   -6.6290 ha        1 AS6      0.156333
     52 H143        3.3360    1.5600   -5.2180 ha        1 AS6      0.156333
     53 H151        4.5640   -4.2190   -3.3450 h1        1 AS6      0.101750
     54 H152        5.2560   -2.9320   -3.9710 h1        1 AS6      0.101750
     55 H181        5.5780   -0.8920   -1.3900 h1        1 AS6      0.101750
     56 H182        5.7930   -1.1720   -2.9380 h1        1 AS6      0.101750
     57 H161        6.4490   -5.0000   -2.5940 h1        1 AS6      0.094750
     58 H162        7.1110   -4.0250   -3.6740 h1        1 AS6      0.094750
     59 H171        7.7910   -1.7710   -2.3460 h1        1 AS6      0.094750
     60 H172        7.3570   -1.9920   -0.8300 h1        1 AS6      0.094750
     61 H20        -2.3720    2.3720    4.1270 ha        1 AS6      0.138000
     62 H221       -3.5350    5.4510    4.5050 h4        1 AS6      0.072500
     63 H222       -2.7580    4.3480    5.3620 h4        1 AS6      0.072500
     64 H23        -5.8950    4.3860    3.5510 ha        1 AS6      0.158000
     65 H4         -4.3320    5.3930    6.5740 ho        1 AS6      0.204000
     66 H24        -6.5920    2.7230    2.0160 ha        1 AS6      0.138000
     67 H261       -5.9460   -0.0670    1.5500 hc        1 AS6      0.090000
     68 H262       -5.7210    1.0120    0.3960 hc        1 AS6      0.090000
     69 H263       -4.5190    0.0580    0.8570 hc        1 AS6      0.090000
@<TRIPOS>BOND
     1    1    2 1   
     2    1   37 1   
     3    1   38 1   
     4    1   39 1   
     5    2    3 1   
     6    2    4 1   
     7    2   40 1   
     8    3   41 1   
     9    3   42 1   
    10    3   43 1   
    11    4    5 1   
    12    4   28 1   
    13    5    6 1   
    14    5   27 1   
    15    6   44 1   
    16    7    8 1   
    17    7   45 1   
    18    9   10 1   
    19    9   27 1   
    20   10   11 1   
    21   10   46 1   
    22   11   12 1   
    23   11   16 1   
    24   12   13 1   
    25   12   47 1   
    26   13   21 1   
    27   14   15 1   
    28   14   49 1   
    29   15   17 1   
    30   16   48 1   
    31   17   18 1   
    32   17   19 1   
    33   20   50 1   
    34   20   51 1   
    35   20   52 1   
    36   21   22 1   
    37   21   26 1   
    38   22   23 1   
    39   22   53 1   
    40   22   54 1   
    41   23   24 1   
    42   23   57 1   
    43   23   58 1   
    44   24   25 1   
    45   25   26 1   
    46   25   59 1   
    47   25   60 1   
    48   26   55 1   
    49   26   56 1   
    50   28   29 1   
    51   28   35 1   
    52   29   30 1   
    53   29   61 1   
    54   30   33 1   
    55   31   32 1   
    56   31   62 1   
    57   31   63 1   
    58   32   65 1   
    59   33   34 1   
    60   33   64 1   
    61   34   66 1   
    62   35   36 1   
    63   36   67 1   
    64   36   68 1   
    65   36   69 1   
@<TRIPOS>SUBSTRUCTURE
     1 AS6         1 TEMP              0 ****  ****    0 ROOT
