@<TRIPOS>MOLECULE
AS6
   69    72     1     0     0
SMALL
bcc


@<TRIPOS>ATOM
      1 C1         -0.1370   -0.4230    0.4220 c3        1 AS6     -0.112600
      2 C2          1.2830   -0.1060   -0.0480 c3        1 AS6      0.244500
      3 C3          2.0830    0.4030    1.1560 c3        1 AS6     -0.112600
      4 N1          1.9200   -1.2150   -0.7500 nh        1 AS6     -0.680700
      5 C4          2.9690   -0.9790   -1.6360 ca        1 AS6      0.743200
      6 C5          3.4990    0.3390   -1.8300 ca        1 AS6     -0.471600
      7 C6          4.5160    0.4840   -2.7770 ca        1 AS6      0.481200
      8 N2          5.0380   -0.5260   -3.4920 nb        1 AS6     -0.775000
      9 C7          4.5030   -1.7790   -3.2280 ca        1 AS6      0.893900
     10 N3          5.0680   -2.9190   -3.8520 nh        1 AS6     -0.708300
     11 C8          5.7980   -2.8070   -5.0580 ca        1 AS6      0.137600
     12 C9          5.3690   -3.5120   -6.2020 ca        1 AS6     -0.162000
     13 C10         6.1280   -3.5000   -7.3890 ca        1 AS6      0.128600
     14 C11         7.3110   -2.7280   -7.4180 ca        1 AS6     -0.061000
     15 C12         7.7290   -2.0090   -6.3000 ca        1 AS6     -0.346500
     16 C13         6.9910   -2.0640   -5.1160 ca        1 AS6     -0.029000
     17 S1          9.1420   -1.0990   -6.3650 sy        1 AS6      1.394300
     18 O1          9.8720   -1.2320   -5.1770 o         1 AS6     -0.657300
     19 O2          9.8210   -1.3540   -7.5670 o         1 AS6     -0.657300
     20 C14         8.4770    0.4570   -6.4290 c3        1 AS6     -0.361300
     21 N4          5.7910   -4.2910   -8.5180 nh        1 AS6     -0.631000
     22 C15         4.7110   -5.2480   -8.3410 c3        1 AS6      0.147800
     23 C16         4.5440   -6.1540   -9.5690 c3        1 AS6      0.123900
     24 O3          4.3970   -5.3940  -10.7630 os        1 AS6     -0.412600
     25 C17         5.4920   -4.5110  -10.9710 c3        1 AS6      0.123900
     26 C18         5.6930   -3.5650   -9.7790 c3        1 AS6      0.147800
     27 N5          3.4720   -2.0420   -2.3470 nb        1 AS6     -0.803000
     28 C19         1.4910   -2.5480   -0.4800 ca        1 AS6      0.143600
     29 C20         0.3490   -3.0480   -1.1370 ca        1 AS6     -0.119000
     30 C21        -0.1070   -4.3450   -0.8870 ca        1 AS6     -0.096300
     31 C22        -1.3160   -4.8260   -1.6200 c3        1 AS6      0.178700
     32 O4         -1.7560   -6.0510   -1.0520 oh        1 AS6     -0.598800
     33 C23         0.5790   -5.1600    0.0160 ca        1 AS6     -0.093000
     34 C24         1.7180   -4.6800    0.6530 ca        1 AS6     -0.134000
     35 C25         2.1970   -3.3860    0.4170 ca        1 AS6     -0.055300
     36 C26         3.4380   -2.9380    1.0900 c3        1 AS6     -0.058800
     37 H11C       -0.5560    0.4880    0.9120 hc        1 AS6      0.047367
     38 H12C       -0.1410   -1.2610    1.1600 hc        1 AS6      0.047367
     39 H13C       -0.7910   -0.7020   -0.4380 hc        1 AS6      0.047367
     40 H2          1.2000    0.7430   -0.7960 h1        1 AS6      0.053700
     41 H31C        3.1630    0.5290    0.9050 hc        1 AS6      0.047367
     42 H32C        1.9950   -0.3020    2.0160 hc        1 AS6      0.047367
     43 H33C        1.6690    1.3930    1.4650 hc        1 AS6      0.047367
     44 H5          3.1440    1.2060   -1.2660 ha        1 AS6      0.154000
     45 H6          4.9530    1.4790   -2.9830 h4        1 AS6      0.023100
     46 H3          4.5050   -3.7450   -3.7890 hn        1 AS6      0.438800
     47 H9          4.4290   -4.0860   -6.1530 ha        1 AS6      0.139000
     48 H13         7.3620   -1.5270   -4.2240 ha        1 AS6      0.171000
     49 H11         7.9400   -2.7010   -8.3280 ha        1 AS6      0.166000
     50 H141        7.6730    0.6250   -5.6700 h1        1 AS6      0.116367
     51 H142        8.0290    0.6960   -7.4240 h1        1 AS6      0.116367
     52 H143        9.2560    1.2370   -6.2370 h1        1 AS6      0.116367
     53 H151        4.9550   -5.8950   -7.4530 h1        1 AS6      0.048200
     54 H152        3.7260   -4.7320   -8.1480 h1        1 AS6      0.048200
     55 H181        4.8360   -2.8310   -9.7570 h1        1 AS6      0.048200
     56 H182        6.6450   -2.9890   -9.9420 h1        1 AS6      0.048200
     57 H161        5.4170   -6.8510   -9.6710 h1        1 AS6      0.058700
     58 H162        3.5890   -6.7360   -9.4870 h1        1 AS6      0.058700
     59 H171        5.2090   -3.9220  -11.8820 h1        1 AS6      0.058700
     60 H172        6.4230   -5.1050  -11.1670 h1        1 AS6      0.058700
     61 H20        -0.1930   -2.4180   -1.8590 ha        1 AS6      0.135000
     62 H221       -1.0600   -4.9830   -2.7050 h1        1 AS6      0.031200
     63 H222       -2.1390   -4.0620   -1.5500 h1        1 AS6      0.031200
     64 H23         0.2130   -6.1790    0.2160 ha        1 AS6      0.155000
     65 H4         -2.5220   -6.3270   -1.5680 ho        1 AS6      0.403000
     66 H24         2.2610   -5.3320    1.3550 ha        1 AS6      0.136000
     67 H261        3.2780   -1.9650    1.6180 hc        1 AS6      0.049367
     68 H262        4.2520   -2.7970    0.3350 hc        1 AS6      0.049367
     69 H263        3.7840   -3.6910    1.8410 hc        1 AS6      0.049367
@<TRIPOS>BOND
     1    1    2 1   
     2    1   37 1   
     3    1   38 1   
     4    1   39 1   
     5    2    3 1   
     6    2    4 1   
     7    2   40 1   
     8    3   41 1   
     9    3   42 1   
    10    3   43 1   
    11    4    5 1   
    12    4   28 1   
    13    5    6 ar  
    14    5   27 ar  
    15    6    7 ar  
    16    6   44 1   
    17    7    8 ar  
    18    7   45 1   
    19    8    9 ar  
    20    9   10 1   
    21    9   27 ar  
    22   10   11 1   
    23   10   46 1   
    24   11   12 ar  
    25   11   16 ar  
    26   12   13 ar  
    27   12   47 1   
    28   13   14 ar  
    29   13   21 1   
    30   14   15 ar  
    31   14   49 1   
    32   15   16 ar  
    33   15   17 1   
    34   16   48 1   
    35   17   18 2   
    36   17   19 2   
    37   17   20 1   
    38   20   50 1   
    39   20   51 1   
    40   20   52 1   
    41   21   22 1   
    42   21   26 1   
    43   22   23 1   
    44   22   53 1   
    45   22   54 1   
    46   23   24 1   
    47   23   57 1   
    48   23   58 1   
    49   24   25 1   
    50   25   26 1   
    51   25   59 1   
    52   25   60 1   
    53   26   55 1   
    54   26   56 1   
    55   28   29 ar  
    56   28   35 ar  
    57   29   30 ar  
    58   29   61 1   
    59   30   31 1   
    60   30   33 ar  
    61   31   32 1   
    62   31   62 1   
    63   31   63 1   
    64   32   65 1   
    65   33   34 ar  
    66   33   64 1   
    67   34   35 ar  
    68   34   66 1   
    69   35   36 1   
    70   36   67 1   
    71   36   68 1   
    72   36   69 1   
@<TRIPOS>SUBSTRUCTURE
     1 AS6         1 TEMP              0 ****  ****    0 ROOT
