@<TRIPOS>MOLECULE
AS7
   30    30     1     0     0
SMALL
bcc


@<TRIPOS>ATOM
      1 C           4.3970   -1.1570   -0.5560 c         1 AS7      0.894600
      2 N           3.5040    0.6730    0.9750 n3        1 AS7     -0.904800
      3 O           5.5160   -0.9570   -0.0080 o         1 AS7     -0.831800
      4 C1         -0.6560    1.6240    0.5810 c3        1 AS7      0.137300
      5 C2         -1.9310    0.8310    0.4440 ca        1 AS7     -0.069300
      6 C3         -2.7630    0.6260    1.5480 ca        1 AS7     -0.125500
      7 C4         -3.9620   -0.0690    1.4060 ca        1 AS7     -0.096000
      8 C5         -4.3330   -0.5690    0.1510 ca        1 AS7     -0.039000
      9 C6         -3.4960   -0.3720   -0.9580 ca        1 AS7     -0.096000
     10 C7         -2.3020    0.3270   -0.8080 ca        1 AS7     -0.125500
     11 C8         -5.5580   -1.2740    0.0030 cg        1 AS7      0.250800
     12 N9         -6.5630   -1.8490   -0.1170 n1        1 AS7     -0.397800
     13 CA          3.1670   -0.3380   -0.0190 c3        1 AS7      0.001500
     14 CB          2.4280    0.2190   -1.2300 c3        1 AS7     -0.130400
     15 CG          1.1190    0.9320   -0.9850 c         1 AS7      0.667100
     16 OD1         0.5360    1.5420   -1.9140 o         1 AS7     -0.675100
     17 ND2         0.5370    0.8990    0.2680 n         1 AS7     -0.567900
     18 OXT         4.1760   -1.9790   -1.4850 o         1 AS7     -0.831800
     19 H           4.1970    0.2690    1.5860 hn        1 AS7      0.339300
     20 H2          3.9520    1.4430    0.5120 hn        1 AS7      0.339300
     21 H1         -0.7390    2.5120   -0.1150 h1        1 AS7      0.057700
     22 H1A        -0.5760    2.0090    1.6390 h1        1 AS7      0.057700
     23 H3         -2.4720    1.0120    2.5370 ha        1 AS7      0.156000
     24 H4         -4.6140   -0.2290    2.2770 ha        1 AS7      0.137000
     25 H6         -3.7830   -0.7700   -1.9420 ha        1 AS7      0.137000
     26 H7         -1.6330    0.4930   -1.6720 ha        1 AS7      0.156000
     27 HA          2.5100   -1.0960    0.5000 h1        1 AS7      0.041700
     28 HB          3.0890    0.9370   -1.7860 hc        1 AS7      0.090200
     29 HBA         2.2220   -0.6470   -1.9210 hc        1 AS7      0.090200
     30 HND2        1.0020    0.4350    1.0130 hn        1 AS7      0.338500
@<TRIPOS>BOND
     1    1    3 1   
     2    1   13 1   
     3    1   18 1   
     4    2   13 1   
     5    2   19 1   
     6    2   20 1   
     7    4    5 1   
     8    4   17 1   
     9    4   21 1   
    10    4   22 1   
    11    5    6 ar  
    12    5   10 ar  
    13    6    7 ar  
    14    6   23 1   
    15    7    8 ar  
    16    7   24 1   
    17    8    9 ar  
    18    8   11 1   
    19    9   10 ar  
    20    9   25 1   
    21   10   26 1   
    22   11   12 3   
    23   13   14 1   
    24   13   27 1   
    25   14   15 1   
    26   14   28 1   
    27   14   29 1   
    28   15   16 2   
    29   15   17 1   
    30   17   30 1   
@<TRIPOS>SUBSTRUCTURE
     1 AS7         1 TEMP              0 ****  ****    0 ROOT
