@<TRIPOS>MOLECULE
AS7
   30    27     1     0     0
SMALL
bcc


@<TRIPOS>ATOM
      1 C          -3.3000   -1.3890   -2.4860 c1        1 AS7      0.302000
      2 N          -4.0520    0.7550   -3.1990 n3        1 AS7     -0.318000
      3 O          -4.2750   -1.5650   -1.7440 o         1 AS7     -0.570500
      4 C1          1.3920   -0.1480   -0.3970 c3        1 AS7      0.019000
      5 C2          1.9130   -0.0870    1.0200 c2        1 AS7     -0.058000
      6 C3          2.2510    1.1390    1.5800 c1        1 AS7     -0.119000
      7 C4          2.7460    1.2010    2.8800 c1        1 AS7     -0.097000
      8 C5          2.9010    0.0400    3.6170 c1        1 AS7     -0.039000
      9 C6          2.5610   -1.1960    3.0560 c1        1 AS7     -0.099000
     10 C7          2.0670   -1.2530    1.7560 c2        1 AS7     -0.130000
     11 C8          3.3540    0.1140    5.0680 c1        1 AS7     -0.075000
     12 N9          3.7040    0.1690    6.1870 n1        1 AS7     -0.080000
     13 CA         -2.8930   -0.0210   -2.8520 c2        1 AS7     -0.125000
     14 CB         -2.1790    0.6250   -1.6730 c3        1 AS7     -0.157000
     15 CG         -0.7070    0.1400   -1.6350 c2        1 AS7      0.308000
     16 OD1        -0.1300   -0.1300   -2.6710 o         1 AS7     -0.447000
     17 ND2        -0.0170    0.0660   -0.4060 n         1 AS7     -0.382000
     18 OXT        -2.7550   -2.3740   -3.0490 o         1 AS7     -0.570500
     19 H          -4.0940    1.4940   -2.6660 hn        1 AS7      0.130500
     20 H2         -3.9920    1.0040   -4.0380 hn        1 AS7      0.130500
     21 H1          1.8360    0.5570   -0.9400 h1        1 AS7      0.094000
     22 H1A         1.5850   -1.0070   -0.7710 h1        1 AS7      0.094000
     23 H3          2.2400    1.9290    1.0380 ha        1 AS7      0.177000
     24 H4          2.8900    2.0890    3.3150 ha        1 AS7      0.136000
     25 H6          2.7370   -2.0010    3.5340 ha        1 AS7      0.133000
     26 H7          1.7910   -2.1450    1.3580 ha        1 AS7      0.140000
     27 HA         -2.2780   -0.0580   -3.6340 h4        1 AS7      0.090000
     28 HB         -2.1990    1.6030   -1.7720 hc        1 AS7      0.108500
     29 HBA        -2.6270    0.3730   -0.8390 hc        1 AS7      0.108500
     30 HND2       -0.4720    0.0760    0.3650 hn        1 AS7      0.297000
@<TRIPOS>BOND
     1    1    3 1   
     2    1   18 1   
     3    2   13 1   
     4    2   19 1   
     5    2   20 1   
     6    4    5 1   
     7    4   17 1   
     8    4   21 1   
     9    4   22 1   
    10    5    6 1   
    11    5   10 1   
    12    6   23 1   
    13    7    8 1   
    14    7   24 1   
    15    8   11 1   
    16    9   10 1   
    17    9   25 1   
    18   10   26 1   
    19   11   12 1   
    20   13   14 1   
    21   13   27 1   
    22   14   15 1   
    23   14   28 1   
    24   14   29 1   
    25   15   16 1   
    26   15   17 1   
    27   17   30 1   
@<TRIPOS>SUBSTRUCTURE
     1 AS7         1 TEMP              0 ****  ****    0 ROOT
