@<TRIPOS>MOLECULE
AS8
   11    10     1     0     0
SMALL
bcc


@<TRIPOS>ATOM
      1 O1S         0.0320    0.3050   -0.1130 o         1 AS8     -0.735200
      2 O2S         1.7680   -0.1100    1.4130 o         1 AS8     -0.735200
      3 O3S         1.7370   -1.2030   -0.6890 o         1 AS8     -0.735200
      4 C1M         3.6490    2.8790   -1.5050 c3        1 AS8     -0.161100
      5 C1          3.4380    1.5620   -0.8160 c         1 AS8      0.714100
      6 O2          4.3490    0.8090   -0.4380 o         1 AS8     -0.608000
      7 O1          2.1740    1.2320   -0.6260 os        1 AS8     -0.605800
      8 S           1.3280   -0.1430    0.1010 s6        1 AS8      1.724300
      9 H1M1        3.1830    3.6920   -0.8990 hc        1 AS8      0.047367
     10 H1M2        3.1590    2.8550   -2.5070 hc        1 AS8      0.047367
     11 H1M3        4.7400    3.0770   -1.6230 hc        1 AS8      0.047367
@<TRIPOS>BOND
     1    1    8 1   
     2    2    8 1   
     3    3    8 1   
     4    4    5 1   
     5    4    9 1   
     6    4   10 1   
     7    4   11 1   
     8    5    6 2   
     9    5    7 1   
    10    7    8 1   
@<TRIPOS>SUBSTRUCTURE
     1 AS8         1 TEMP              0 ****  ****    0 ROOT
