@<TRIPOS>MOLECULE
AS8
   11    10     1     0     0
SMALL
bcc


@<TRIPOS>ATOM
      1 O1S         0.0410    0.3240   -0.0440 o         1 AS8     -0.735200
      2 O2S         1.8160   -0.1200    1.4260 o         1 AS8     -0.735200
      3 O3S         1.7140   -1.1940   -0.6820 o         1 AS8     -0.735200
      4 C1M         3.6390    2.8770   -1.5200 c3        1 AS8     -0.161100
      5 C1          3.4370    1.5560   -0.8370 c         1 AS8      0.714100
      6 O2          4.3510    0.7920   -0.4910 o         1 AS8     -0.608000
      7 O1          2.1760    1.2360   -0.6130 os        1 AS8     -0.605800
      8 S           1.3380   -0.1380    0.1280 s6        1 AS8      1.724300
      9 H1M1        3.1950    3.6880   -0.8950 hc        1 AS8      0.047367
     10 H1M2        3.1230    2.8650   -2.5090 hc        1 AS8      0.047367
     11 H1M3        4.7280    3.0670   -1.6660 hc        1 AS8      0.047367
@<TRIPOS>BOND
     1    1    8 1   
     2    2    8 1   
     3    3    8 1   
     4    4    5 1   
     5    4    9 1   
     6    4   10 1   
     7    4   11 1   
     8    5    6 2   
     9    5    7 1   
    10    7    8 1   
@<TRIPOS>SUBSTRUCTURE
     1 AS8         1 TEMP              0 ****  ****    0 ROOT
