@<TRIPOS>MOLECULE
AS8
   11    10     1     0     0
SMALL
bcc


@<TRIPOS>ATOM
      1 O1S         1.6680    1.3040    0.1740 o         1 AS8     -0.735200
      2 O2S         1.3120   -0.5810   -1.1800 o         1 AS8     -0.735200
      3 O3S         1.2060   -0.7670    1.1790 o         1 AS8     -0.735200
      4 C1M        -2.9410    0.7190   -0.0800 c3        1 AS8     -0.161100
      5 C1         -1.7200   -0.1550   -0.0930 c         1 AS8      0.714100
      6 O2         -1.7380   -1.3910   -0.1910 o         1 AS8     -0.608000
      7 O1         -0.5750    0.4930    0.0090 os        1 AS8     -0.605800
      8 S           1.1350    0.0290    0.0490 s6        1 AS8      1.724300
      9 H1M1       -3.8590    0.0920   -0.1700 hc        1 AS8      0.047367
     10 H1M2       -2.9710    1.2960    0.8750 hc        1 AS8      0.047367
     11 H1M3       -2.8900    1.4380   -0.9310 hc        1 AS8      0.047367
@<TRIPOS>BOND
     1    1    8 1   
     2    2    8 1   
     3    3    8 1   
     4    4    5 1   
     5    4    9 1   
     6    4   10 1   
     7    4   11 1   
     8    5    6 2   
     9    5    7 1   
    10    7    8 1   
@<TRIPOS>SUBSTRUCTURE
     1 AS8         1 TEMP              0 ****  ****    0 ROOT
