@<TRIPOS>MOLECULE
AS9
   21    20     1     0     0
SMALL
bcc


@<TRIPOS>ATOM
      1 CAA         0.7880   -4.3190    0.0300 c3        1 AS9     -0.440300
      2 PAM        -0.8360   -4.2520   -0.3380 p5        1 AS9      1.597200
      3 OAG        -1.2220   -5.4110   -1.1740 o         1 AS9     -0.911300
      4 OAD        -1.5190   -4.4380    1.1170 oh        1 AS9     -0.812400
      5 N          -1.1620   -2.8420   -0.9300 n3        1 AS9     -1.019300
      6 CA         -1.6110   -1.7180   -0.1510 c3        1 AS9      0.113500
      7 C          -2.5990   -0.8110   -0.9660 c         1 AS9      0.908600
      8 OXT        -3.4610   -0.1540   -0.3170 o         1 AS9     -0.859800
      9 O          -2.5010   -0.7690   -2.2290 o         1 AS9     -0.859800
     10 CB         -0.5090   -0.7970    0.3940 c3        1 AS9     -0.187400
     11 CG          0.3140   -1.3570    1.5490 c         1 AS9      0.889600
     12 OD2        -0.2150   -2.1420    2.4040 o         1 AS9     -0.883800
     13 OD1         1.5320   -1.0150    1.6490 o         1 AS9     -0.883800
     14 HAA1        1.0830   -3.5440    0.7900 hc        1 AS9      0.088367
     15 HAA2        1.0560   -5.3110    0.4590 hc        1 AS9      0.088367
     16 HAA3        1.4380   -4.1560   -0.8580 hc        1 AS9      0.088367
     17 HOAD       -1.3040   -3.7700    1.7780 ho        1 AS9      0.498000
     18 H          -1.2510   -2.6600   -1.9030 hn        1 AS9      0.451800
     19 HA         -2.1800   -2.1250    0.7380 h1        1 AS9      0.046700
     20 HB2        -1.0220    0.1260    0.7750 hc        1 AS9      0.044200
     21 HB3         0.1820   -0.4910   -0.4310 hc        1 AS9      0.044200
@<TRIPOS>BOND
     1    1    2 1   
     2    1   14 1   
     3    1   15 1   
     4    1   16 1   
     5    2    3 2   
     6    2    4 1   
     7    2    5 1   
     8    4   17 1   
     9    5    6 1   
    10    5   18 1   
    11    6    7 1   
    12    6   10 1   
    13    6   19 1   
    14    7    8 1   
    15    7    9 1   
    16   10   11 1   
    17   10   20 1   
    18   10   21 1   
    19   11   12 1   
    20   11   13 1   
@<TRIPOS>SUBSTRUCTURE
     1 AS9         1 TEMP              0 ****  ****    0 ROOT
