@<TRIPOS>MOLECULE
ASA
   14    13     1     0     0
SMALL
bcc


@<TRIPOS>ATOM
      1 N           0.9140    1.4400   -0.1670 n3        1 ASA     -0.903800
      2 CA          0.7850    0.1070    0.3920 c3        1 ASA      0.073500
      3 C           2.0720   -0.6920    0.3560 c         1 ASA      0.571900
      4 O           3.0140   -0.5150   -0.4190 o         1 ASA     -0.567100
      5 CB         -0.3010   -0.7800   -0.2330 c3        1 ASA     -0.233400
      6 CG         -1.6970   -0.1550   -0.0530 c         1 ASA      0.911600
      7 OD1        -1.9170    0.9750   -0.5820 o         1 ASA     -0.842800
      8 OD2        -2.5530   -0.8100    0.6030 o         1 ASA     -0.842800
      9 H           1.2600    1.3730   -1.1070 hn        1 ASA      0.363800
     10 H2         -0.0060    1.8560   -0.2030 hn        1 ASA      0.363800
     11 HA          0.5170    0.2510    1.4840 h1        1 ASA      0.069700
     12 HXT         2.0990   -1.5220    1.1010 h4        1 ASA     -0.030800
     13 HB2        -0.1090   -0.9080   -1.3270 hc        1 ASA      0.032700
     14 HB3        -0.2860   -1.7870    0.2520 hc        1 ASA      0.032700
@<TRIPOS>BOND
     1    1    2 1   
     2    1    9 1   
     3    1   10 1   
     4    2    3 1   
     5    2    5 1   
     6    2   11 1   
     7    3    4 2   
     8    3   12 1   
     9    5    6 1   
    10    5   13 1   
    11    5   14 1   
    12    6    7 1   
    13    6    8 1   
@<TRIPOS>SUBSTRUCTURE
     1 ASA         1 TEMP              0 ****  ****    0 ROOT
