@<TRIPOS>MOLECULE
ASA
   14    13     1     0     0
SMALL
bcc


@<TRIPOS>ATOM
      1 N          -1.7850   -0.4670    0.0690 n3        1 ASA     -0.908800
      2 CA         -0.3640   -0.4160    0.0970 c3        1 ASA      0.058500
      3 C           0.1130   -0.4420    1.5310 c         1 ASA      0.566900
      4 O           1.0210   -1.1830    1.8570 o         1 ASA     -0.603100
      5 CB          0.1080    0.8560   -0.5680 c3        1 ASA     -0.189400
      6 CG          1.5270    0.6710   -1.0610 c         1 ASA      0.902600
      7 OD1         2.4910    1.1210   -0.3890 o         1 ASA     -0.845300
      8 OD2         1.7420    0.0670   -2.1450 o         1 ASA     -0.845300
      9 H          -2.0860   -0.9810    0.7640 hn        1 ASA      0.338800
     10 H2         -2.0620   -0.8320   -0.7240 hn        1 ASA      0.338800
     11 HA         -0.0010   -1.1880   -0.3810 h1        1 ASA      0.038700
     12 HXT        -0.3090    0.1370    2.1970 h4        1 ASA      0.078200
     13 HB2        -0.4750    1.0650   -1.3240 hc        1 ASA      0.035200
     14 HB3         0.0810    1.5910    0.0770 hc        1 ASA      0.035200
@<TRIPOS>BOND
     1    1    2 1   
     2    1    9 1   
     3    1   10 1   
     4    2    3 1   
     5    2    5 1   
     6    2   11 1   
     7    3    4 2   
     8    3   12 1   
     9    5    6 1   
    10    5   13 1   
    11    5   14 1   
    12    6    7 1   
    13    6    8 1   
@<TRIPOS>SUBSTRUCTURE
     1 ASA         1 TEMP              0 ****  ****    0 ROOT
