@<TRIPOS>MOLECULE
ASB
   20    19     1     0     0
SMALL
bcc


@<TRIPOS>ATOM
      1 N           1.7090   -0.0860    2.4710 n3        1 ASB     -0.911800
      2 CA          0.3600    0.3440    2.1730 c3        1 ASB      0.046500
      3 C          -0.5970    0.1080    3.3940 c         1 ASB      0.917600
      4 O          -0.5880   -1.0330    3.9390 o         1 ASB     -0.847800
      5 CB         -0.3210   -0.3290    0.9680 c3        1 ASB     -0.153400
      6 CG          0.4870   -0.3130   -0.2920 c         1 ASB      0.625100
      7 OD1        -0.2050    0.1110   -1.3850 os        1 ASB     -0.402900
      8 OD2         1.6660   -0.6710   -0.4490 o         1 ASB     -0.619000
      9 C2          0.4980    0.1110   -2.6360 c3        1 ASB      0.020400
     10 C1         -0.5110    0.3540   -3.7820 c         1 ASB      0.918600
     11 O1         -0.4630    1.4760   -4.3640 o         1 ASB     -0.843800
     12 O2         -1.2640   -0.5950   -4.1360 o         1 ASB     -0.843800
     13 OXT        -1.3290    1.0680    3.7580 o         1 ASB     -0.847800
     14 H           1.6710   -0.9140    3.0380 hn        1 ASB      0.342800
     15 H2          2.2060   -0.3030    1.6270 hn        1 ASB      0.342800
     16 HCA         0.4060    1.4530    1.9710 h1        1 ASB      0.050700
     17 HB2        -0.5260   -1.4050    1.2180 hc        1 ASB      0.078200
     18 HB3        -1.3040    0.1820    0.7920 hc        1 ASB      0.078200
     19 HC21        1.2670    0.9230   -2.6020 h1        1 ASB      0.024200
     20 HC22        1.0020   -0.8800   -2.7760 h1        1 ASB      0.024200
@<TRIPOS>BOND
     1    1    2 1   
     2    1   14 1   
     3    1   15 1   
     4    2    3 1   
     5    2    5 1   
     6    2   16 1   
     7    3    4 1   
     8    3   13 1   
     9    5    6 1   
    10    5   17 1   
    11    5   18 1   
    12    6    7 1   
    13    6    8 2   
    14    7    9 1   
    15    9   10 1   
    16    9   19 1   
    17    9   20 1   
    18   10   11 1   
    19   10   12 1   
@<TRIPOS>SUBSTRUCTURE
     1 ASB         1 TEMP              0 ****  ****    0 ROOT
