@<TRIPOS>MOLECULE
ASC
   20    20     1     0     0
SMALL
bcc


@<TRIPOS>ATOM
      1 C1          0.0580   -0.1080    0.0120 c         1 ASC      0.724800
      2 C2          1.5280   -0.2510    0.0630 ce        1 ASC     -0.117100
      3 C3          1.9130   -0.2220    1.3710 c2        1 ASC      0.075900
      4 C4          0.6870   -0.0720    2.2510 c3        1 ASC      0.181300
      5 C5          0.7080    1.1910    3.1150 c3        1 ASC      0.147100
      6 C6         -0.6150    1.3110    3.8830 c3        1 ASC      0.091400
      7 O1         -0.7580   -0.0630   -0.8970 o         1 ASC     -0.560500
      8 O2          2.3590   -0.4150   -1.0070 oh        1 ASC     -0.474100
      9 O3          3.1300   -0.3410    1.9480 oh        1 ASC     -0.455100
     10 O4         -0.4290   -0.0250    1.3150 os        1 ASC     -0.405900
     11 O5          0.9110    2.3080    2.2690 oh        1 ASC     -0.595800
     12 O6         -0.5390    2.5320    4.6010 oh        1 ASC     -0.612800
     13 H4          0.5240   -0.9770    2.8950 h1        1 ASC      0.099700
     14 H5          1.5710    1.1120    3.8360 h1        1 ASC      0.068700
     15 H61        -1.4740    1.3220    3.1620 h1        1 ASC      0.049200
     16 H62        -0.7280    0.4550    4.5990 h1        1 ASC      0.049200
     17 HO2         1.8610   -0.1260   -1.7900 ho        1 ASC      0.442000
     18 HO3         3.7920   -0.3200    1.2350 ho        1 ASC      0.448000
     19 HO5         0.7160    3.0960    2.7970 ho        1 ASC      0.430000
     20 HO6        -1.4340    2.7390    4.8950 ho        1 ASC      0.415000
@<TRIPOS>BOND
     1    1    2 1   
     2    1    7 2   
     3    1   10 1   
     4    2    3 2   
     5    2    8 1   
     6    3    4 1   
     7    3    9 1   
     8    4    5 1   
     9    4   10 1   
    10    4   13 1   
    11    5    6 1   
    12    5   11 1   
    13    5   14 1   
    14    6   12 1   
    15    6   15 1   
    16    6   16 1   
    17    8   17 1   
    18    9   18 1   
    19   11   19 1   
    20   12   20 1   
@<TRIPOS>SUBSTRUCTURE
     1 ASC         1 TEMP              0 ****  ****    0 ROOT
