@<TRIPOS>MOLECULE
ASC
   20    18     1     0     0
SMALL
bcc


@<TRIPOS>ATOM
      1 C1         -1.0300   -0.7300   -2.1460 c1        1 ASC      0.340000
      2 C2          0.3360   -0.7400   -2.0810 c1        1 ASC     -0.053000
      3 C3          0.8200   -0.7350   -0.8720 c1        1 ASC     -0.053000
      4 C4         -0.1500   -0.6620    0.1490 c2        1 ASC      0.066000
      5 C5         -0.0390    0.6120    0.8540 c3        1 ASC      0.036000
      6 C6         -0.6080    0.4580    2.2840 c3        1 ASC     -0.059000
      7 O1         -1.7050   -1.0320   -3.1260 o         1 ASC     -0.285000
      8 O2          1.1030   -0.2260   -3.1550 oh        1 ASC     -0.219500
      9 O3          2.0590   -1.3230   -0.6150 oh        1 ASC     -0.219500
     10 O4         -1.4740   -0.8320   -0.6890 os        1 ASC     -0.244000
     11 O5         -0.7830    1.6170    0.1430 oh        1 ASC     -0.323000
     12 O6         -0.3990    1.6410    3.0080 oh        1 ASC     -0.340000
     13 H4         -0.1030   -1.2940    0.8770 h4        1 ASC      0.139000
     14 H5          0.9130    0.8810    0.9050 h1        1 ASC      0.108000
     15 H61        -0.1660   -0.2650    2.7250 h1        1 ASC      0.088500
     16 H62        -1.5340    0.2780    2.2360 h1        1 ASC      0.088500
     17 HO2         1.2000   -0.8620   -3.7870 ho        1 ASC      0.244000
     18 HO3         2.6940   -0.7550   -0.7960 ho        1 ASC      0.244000
     19 HO5        -0.3750    2.4180    0.2350 ho        1 ASC      0.229000
     20 HO6        -0.7580    1.5510    3.8530 ho        1 ASC      0.214000
@<TRIPOS>BOND
     1    1    7 1   
     2    1   10 1   
     3    2    3 1   
     4    2    8 1   
     5    3    9 1   
     6    4    5 1   
     7    4   10 1   
     8    4   13 1   
     9    5    6 1   
    10    5   11 1   
    11    5   14 1   
    12    6   12 1   
    13    6   15 1   
    14    6   16 1   
    15    8   17 1   
    16    9   18 1   
    17   11   19 1   
    18   12   20 1   
@<TRIPOS>SUBSTRUCTURE
     1 ASC         1 TEMP              0 ****  ****    0 ROOT
