@<TRIPOS>MOLECULE
ASC
   20    20     1     0     0
SMALL
bcc


@<TRIPOS>ATOM
      1 C1          1.0670    0.3300   -1.5970 c         1 ASC      0.718800
      2 C2         -0.3610    0.0690   -1.8690 ce        1 ASC     -0.120100
      3 C3         -1.0500    0.2100   -0.7010 c2        1 ASC      0.068900
      4 C4         -0.0910    0.6050    0.4040 c3        1 ASC      0.145300
      5 C5         -0.0370   -0.3880    1.5710 c3        1 ASC      0.107100
      6 C6          0.5220    0.3050    2.8220 c3        1 ASC      0.091400
      7 O1          2.0770    0.3230   -2.2850 o         1 ASC     -0.556500
      8 O2         -0.9070   -0.2510   -3.0790 oh        1 ASC     -0.473100
      9 O3         -2.3650    0.0780   -0.4180 oh        1 ASC     -0.456100
     10 O4          1.2160    0.6390   -0.2450 os        1 ASC     -0.417900
     11 O5          0.7250   -1.5340    1.2630 oh        1 ASC     -0.581800
     12 O6         -0.3510    1.3130    3.2830 oh        1 ASC     -0.590800
     13 H4         -0.2980    1.6450    0.7800 h1        1 ASC      0.122700
     14 H5         -1.0790   -0.7740    1.7630 h1        1 ASC      0.095700
     15 H61         1.4800    0.8400    2.5790 h1        1 ASC      0.065700
     16 H62         0.7090   -0.4640    3.6160 h1        1 ASC      0.065700
     17 HO2        -0.1650   -0.3890   -3.6910 ho        1 ASC      0.445000
     18 HO3        -2.8130   -0.1990   -1.2370 ho        1 ASC      0.449000
     19 HO5         1.6160   -1.2360    1.0300 ho        1 ASC      0.419000
     20 HO6        -1.1480    0.8780    3.6080 ho        1 ASC      0.403000
@<TRIPOS>BOND
     1    1    2 1   
     2    1    7 2   
     3    1   10 1   
     4    2    3 2   
     5    2    8 1   
     6    3    4 1   
     7    3    9 1   
     8    4    5 1   
     9    4   10 1   
    10    4   13 1   
    11    5    6 1   
    12    5   11 1   
    13    5   14 1   
    14    6   12 1   
    15    6   15 1   
    16    6   16 1   
    17    8   17 1   
    18    9   18 1   
    19   11   19 1   
    20   12   20 1   
@<TRIPOS>SUBSTRUCTURE
     1 ASC         1 TEMP              0 ****  ****    0 ROOT
