@<TRIPOS>MOLECULE
ASD
   47    50     1     0     0
SMALL
bcc


@<TRIPOS>ATOM
      1 C1         -2.5280    1.3390    1.1070 c3        1 ASD     -0.071400
      2 C10        -1.0510    1.3390    1.1070 c3        1 ASD     -0.013800
      3 C11        -1.3200    0.1400   -1.1800 c3        1 ASD     -0.075400
      4 C12        -0.8750   -1.1330   -2.0880 c3        1 ASD     -0.056400
      5 C13         0.6380   -1.2700   -2.1630 c3        1 ASD     -0.153000
      6 C14         1.3590   -1.2610   -0.6790 c3        1 ASD     -0.064700
      7 C15         2.6270   -1.2950   -0.9870 c3        1 ASD     -0.072400
      8 C16         2.6770   -2.4230   -2.2070 c3        1 ASD     -0.188400
      9 C17         1.0290   -2.3920   -2.6490 c         1 ASD      0.577100
     10 C18         1.2010   -0.1420   -2.9990 c3        1 ASD     -0.083100
     11 C19        -0.5970    2.5870    0.3830 c3        1 ASD     -0.087100
     12 C2         -3.2050    0.2740    1.8810 c3        1 ASD     -0.182400
     13 C3         -2.6980    0.2190    3.3800 c         1 ASD      0.569300
     14 C4         -1.1780    0.7350    3.6940 ce        1 ASD     -0.260200
     15 C5         -0.3700    1.3390    2.5030 c2        1 ASD     -0.035400
     16 C6          1.2390    1.2050    2.4470 c3        1 ASD     -0.054200
     17 C7          1.6320   -0.0600    1.5300 c3        1 ASD     -0.071400
     18 C8          0.9550   -0.0350    0.1690 c3        1 ASD     -0.049700
     19 C9         -0.6130    0.1270    0.2650 c3        1 ASD     -0.046700
     20 O1         -3.4960    0.0920    4.2870 o         1 ASD     -0.531100
     21 O2          0.5320   -2.9740   -3.5920 o         1 ASD     -0.517100
     22 H11        -2.8270    1.2710    0.1810 hc        1 ASD      0.052200
     23 H12        -2.8270    2.1990    1.4590 hc        1 ASD      0.052200
     24 H111       -2.2890    0.1190   -1.0590 hc        1 ASD      0.044700
     25 H112       -1.0760    0.9630   -1.6450 hc        1 ASD      0.044700
     26 H121       -1.2490   -1.9460   -1.7010 hc        1 ASD      0.053200
     27 H122       -1.2290   -1.0180   -2.9910 hc        1 ASD      0.053200
     28 H14         1.1210   -2.0770   -0.1990 hc        1 ASD      0.053700
     29 H151        2.9280   -0.4240   -1.3080 hc        1 ASD      0.050200
     30 H152        3.1610   -1.5880   -0.2240 hc        1 ASD      0.050200
     31 H161        3.3550   -2.1460   -2.8520 hc        1 ASD      0.075700
     32 H162        2.9580   -3.3270   -1.9700 hc        1 ASD      0.075700
     33 H181        0.7360   -0.1080   -3.8560 hc        1 ASD      0.043700
     34 H182        2.1530   -0.2930   -3.1510 hc        1 ASD      0.043700
     35 H183        1.0780    0.7050   -2.5280 hc        1 ASD      0.043700
     36 H191        0.3050    2.4520    0.0370 hc        1 ASD      0.041033
     37 H192       -0.5980    3.3420    1.0030 hc        1 ASD      0.041033
     38 H193       -1.2050    2.7740   -0.3570 hc        1 ASD      0.041033
     39 H21        -3.2080   -0.5530    1.3620 hc        1 ASD      0.071700
     40 H22        -4.1650    0.4460    1.9340 hc        1 ASD      0.071700
     41 H4         -0.7110    0.4210    4.4920 ha        1 ASD      0.149000
     42 H61         1.7450    1.1940    3.2820 hc        1 ASD      0.056200
     43 H62         1.5650    2.0370    2.0550 hc        1 ASD      0.056200
     44 H71         1.3730   -0.8780    1.9950 hc        1 ASD      0.048200
     45 H72         2.6000   -0.0650    1.4000 hc        1 ASD      0.048200
     46 H8          1.2910    0.7540   -0.2980 hc        1 ASD      0.057700
     47 H9         -0.9440   -0.6660    0.7280 hc        1 ASD      0.051700
@<TRIPOS>BOND
     1    1    2 1   
     2    1   12 1   
     3    1   22 1   
     4    1   23 1   
     5    2   11 1   
     6    2   15 1   
     7    2   19 1   
     8    3    4 1   
     9    3   19 1   
    10    3   24 1   
    11    3   25 1   
    12    4    5 1   
    13    4   26 1   
    14    4   27 1   
    15    5    6 1   
    16    5    9 1   
    17    5   10 1   
    18    6    7 1   
    19    6   18 1   
    20    6   28 1   
    21    7    8 1   
    22    7   29 1   
    23    7   30 1   
    24    8    9 1   
    25    8   31 1   
    26    8   32 1   
    27    9   21 2   
    28   10   33 1   
    29   10   34 1   
    30   10   35 1   
    31   11   36 1   
    32   11   37 1   
    33   11   38 1   
    34   12   13 1   
    35   12   39 1   
    36   12   40 1   
    37   13   14 1   
    38   13   20 2   
    39   14   15 2   
    40   14   41 1   
    41   15   16 1   
    42   16   17 1   
    43   16   42 1   
    44   16   43 1   
    45   17   18 1   
    46   17   44 1   
    47   17   45 1   
    48   18   19 1   
    49   18   46 1   
    50   19   47 1   
@<TRIPOS>SUBSTRUCTURE
     1 ASD         1 TEMP              0 ****  ****    0 ROOT
