@<TRIPOS>MOLECULE
ASD
   47    50     1     0     0
SMALL
bcc


@<TRIPOS>ATOM
      1 C1         -0.0490    0.0520    0.1250 c3        1 ASD     -0.071400
      2 C10         1.4760    0.1790   -0.0080 c3        1 ASD     -0.013800
      3 C11         1.4960   -0.9980   -2.2840 c3        1 ASD     -0.075400
      4 C12         2.1280   -2.0490   -3.1860 c3        1 ASD     -0.056400
      5 C13         3.6380   -1.9140   -3.1970 c3        1 ASD     -0.153000
      6 C14         4.1230   -2.0200   -1.7320 c3        1 ASD     -0.064700
      7 C15         5.6180   -2.2990   -1.8460 c3        1 ASD     -0.072400
      8 C16         5.7370   -3.1890   -3.0870 c3        1 ASD     -0.188400
      9 C17         4.4390   -3.0330   -3.8570 c         1 ASD      0.577100
     10 C18         4.0560   -0.6290   -3.9010 c3        1 ASD     -0.083100
     11 C19         1.7410    1.5590   -0.6100 c3        1 ASD     -0.087100
     12 C2         -0.5010   -0.9500    1.1610 c3        1 ASD     -0.182400
     13 C3          0.0670   -0.5980    2.5070 c         1 ASD      0.569300
     14 C4          1.4880   -0.2260    2.4810 ce        1 ASD     -0.260200
     15 C5          2.1390    0.0830    1.3470 c2        1 ASD     -0.035400
     16 C6          3.6210    0.2460    1.3360 c3        1 ASD     -0.054200
     17 C7          4.2280   -0.8470    0.4740 c3        1 ASD     -0.071400
     18 C8          3.6220   -0.8460   -0.9180 c3        1 ASD     -0.049700
     19 C9          2.0820   -0.9470   -0.8770 c3        1 ASD     -0.046700
     20 O1         -0.5940   -0.6600    3.5490 o         1 ASD     -0.531100
     21 O2          4.1090   -3.6880   -4.8410 o         1 ASD     -0.517100
     22 H11        -0.4610    1.0590    0.4110 hc        1 ASD      0.052200
     23 H12        -0.4990   -0.2080   -0.8660 hc        1 ASD      0.052200
     24 H111        0.4010   -1.2340   -2.2220 hc        1 ASD      0.044700
     25 H112        1.5940    0.0110   -2.7630 hc        1 ASD      0.044700
     26 H121        1.8480   -3.0750   -2.8290 hc        1 ASD      0.053200
     27 H122        1.7280   -1.9350   -4.2270 hc        1 ASD      0.053200
     28 H14         3.6590   -2.9520   -1.2900 hc        1 ASD      0.053700
     29 H151        6.1960   -1.3510   -1.9760 hc        1 ASD      0.050200
     30 H152        6.0050   -2.8150   -0.9340 hc        1 ASD      0.050200
     31 H161        5.8790   -4.2620   -2.8040 hc        1 ASD      0.075700
     32 H162        6.5980   -2.8840   -3.7310 hc        1 ASD      0.075700
     33 H181        3.8030   -0.7040   -4.9870 hc        1 ASD      0.043700
     34 H182        5.1560   -0.4660   -3.7970 hc        1 ASD      0.043700
     35 H183        3.5260    0.2560   -3.4770 hc        1 ASD      0.043700
     36 H191        1.0960    1.7120   -1.5090 hc        1 ASD      0.041033
     37 H192        2.8060    1.6800   -0.9160 hc        1 ASD      0.041033
     38 H193        1.4990    2.3540    0.1380 hc        1 ASD      0.041033
     39 H21        -0.1510   -1.9820    0.8930 hc        1 ASD      0.071700
     40 H22        -1.6210   -0.9720    1.2090 hc        1 ASD      0.071700
     41 H4          2.0050   -0.2520    3.4540 ha        1 ASD      0.149000
     42 H61         3.8920    1.2560    0.9270 hc        1 ASD      0.056200
     43 H62         4.0390    0.1820    2.3750 hc        1 ASD      0.056200
     44 H71         4.0590   -1.8440    0.9600 hc        1 ASD      0.048200
     45 H72         5.3360   -0.6930    0.3960 hc        1 ASD      0.048200
     46 H8          3.9200    0.1110   -1.4280 hc        1 ASD      0.057700
     47 H9          1.8210   -1.9190   -0.3660 hc        1 ASD      0.051700
@<TRIPOS>BOND
     1    1    2 1   
     2    1   12 1   
     3    1   22 1   
     4    1   23 1   
     5    2   11 1   
     6    2   15 1   
     7    2   19 1   
     8    3    4 1   
     9    3   19 1   
    10    3   24 1   
    11    3   25 1   
    12    4    5 1   
    13    4   26 1   
    14    4   27 1   
    15    5    6 1   
    16    5    9 1   
    17    5   10 1   
    18    6    7 1   
    19    6   18 1   
    20    6   28 1   
    21    7    8 1   
    22    7   29 1   
    23    7   30 1   
    24    8    9 1   
    25    8   31 1   
    26    8   32 1   
    27    9   21 2   
    28   10   33 1   
    29   10   34 1   
    30   10   35 1   
    31   11   36 1   
    32   11   37 1   
    33   11   38 1   
    34   12   13 1   
    35   12   39 1   
    36   12   40 1   
    37   13   14 1   
    38   13   20 2   
    39   14   15 2   
    40   14   41 1   
    41   15   16 1   
    42   16   17 1   
    43   16   42 1   
    44   16   43 1   
    45   17   18 1   
    46   17   44 1   
    47   17   45 1   
    48   18   19 1   
    49   18   46 1   
    50   19   47 1   
@<TRIPOS>SUBSTRUCTURE
     1 ASD         1 TEMP              0 ****  ****    0 ROOT
