@<TRIPOS>MOLECULE
ASD
   47    50     1     0     0
SMALL
bcc


@<TRIPOS>ATOM
      1 C1         -0.0530    0.0290    0.1240 c3        1 ASD     -0.071400
      2 C10         1.4720    0.1600   -0.0030 c3        1 ASD     -0.013800
      3 C11         1.5020   -0.9990   -2.2890 c3        1 ASD     -0.075400
      4 C12         2.1400   -2.0410   -3.1970 c3        1 ASD     -0.056400
      5 C13         3.6500   -1.9020   -3.2010 c3        1 ASD     -0.153000
      6 C14         4.1290   -2.0200   -1.7360 c3        1 ASD     -0.064700
      7 C15         5.6250   -2.2950   -1.8460 c3        1 ASD     -0.072400
      8 C16         5.7500   -3.1750   -3.0940 c3        1 ASD     -0.188400
      9 C17         4.4550   -3.0140   -3.8670 c         1 ASD      0.577100
     10 C18         4.0670   -0.6110   -3.8930 c3        1 ASD     -0.083100
     11 C19         1.7360    1.5460   -0.5930 c3        1 ASD     -0.087100
     12 C2         -0.5070   -0.9830    1.1490 c3        1 ASD     -0.182400
     13 C3          0.0560   -0.6400    2.5010 c         1 ASD      0.569300
     14 C4          1.4750   -0.2650    2.4820 ce        1 ASD     -0.260200
     15 C5          2.1300    0.0540    1.3530 c2        1 ASD     -0.035400
     16 C6          3.6120    0.2200    1.3490 c3        1 ASD     -0.054200
     17 C7          4.2240   -0.8650    0.4810 c3        1 ASD     -0.071400
     18 C8          3.6230   -0.8540   -0.9140 c3        1 ASD     -0.049700
     19 C9          2.0830   -0.9580   -0.8790 c3        1 ASD     -0.046700
     20 O1         -0.6090   -0.7120    3.5400 o         1 ASD     -0.531100
     21 O2          4.1300   -3.6610   -4.8580 o         1 ASD     -0.517100
     22 H11        -0.4690    1.0330    0.4160 hc        1 ASD      0.052200
     23 H12        -0.5000   -0.2240   -0.8710 hc        1 ASD      0.052200
     24 H111        0.4070   -1.2360   -2.2320 hc        1 ASD      0.044700
     25 H112        1.6000    0.0150   -2.7590 hc        1 ASD      0.044700
     26 H121        1.7430   -1.9190   -4.2390 hc        1 ASD      0.053200
     27 H122        1.8610   -3.0700   -2.8490 hc        1 ASD      0.053200
     28 H14         3.6660   -2.9560   -1.3030 hc        1 ASD      0.053700
     29 H151        6.2020   -1.3440   -1.9670 hc        1 ASD      0.050200
     30 H152        6.0100   -2.8170   -0.9380 hc        1 ASD      0.050200
     31 H161        5.8940   -4.2490   -2.8200 hc        1 ASD      0.075700
     32 H162        6.6130   -2.8620   -3.7330 hc        1 ASD      0.075700
     33 H181        3.5340    0.2690   -3.4640 hc        1 ASD      0.043700
     34 H182        3.8190   -0.6770   -4.9810 hc        1 ASD      0.043700
     35 H183        5.1670   -0.4470   -3.7840 hc        1 ASD      0.043700
     36 H191        2.8020    1.6710   -0.8940 hc        1 ASD      0.041033
     37 H192        1.4900    2.3330    0.1610 hc        1 ASD      0.041033
     38 H193        1.0940    1.7040   -1.4930 hc        1 ASD      0.041033
     39 H21        -0.1540   -2.0120    0.8740 hc        1 ASD      0.071700
     40 H22        -1.6280   -1.0070    1.1930 hc        1 ASD      0.071700
     41 H4          1.9890   -0.2980    3.4570 ha        1 ASD      0.149000
     42 H61         4.0260    0.1490    2.3890 hc        1 ASD      0.056200
     43 H62         3.8830    1.2340    0.9500 hc        1 ASD      0.056200
     44 H71         5.3320   -0.7080    0.4080 hc        1 ASD      0.048200
     45 H72         4.0560   -1.8660    0.9580 hc        1 ASD      0.048200
     46 H8          3.9210    0.1090   -1.4150 hc        1 ASD      0.057700
     47 H9          1.8220   -1.9340   -0.3770 hc        1 ASD      0.051700
@<TRIPOS>BOND
     1    1    2 1   
     2    1   12 1   
     3    1   22 1   
     4    1   23 1   
     5    2   11 1   
     6    2   15 1   
     7    2   19 1   
     8    3    4 1   
     9    3   19 1   
    10    3   24 1   
    11    3   25 1   
    12    4    5 1   
    13    4   26 1   
    14    4   27 1   
    15    5    6 1   
    16    5    9 1   
    17    5   10 1   
    18    6    7 1   
    19    6   18 1   
    20    6   28 1   
    21    7    8 1   
    22    7   29 1   
    23    7   30 1   
    24    8    9 1   
    25    8   31 1   
    26    8   32 1   
    27    9   21 2   
    28   10   33 1   
    29   10   34 1   
    30   10   35 1   
    31   11   36 1   
    32   11   37 1   
    33   11   38 1   
    34   12   13 1   
    35   12   39 1   
    36   12   40 1   
    37   13   14 1   
    38   13   20 2   
    39   14   15 2   
    40   14   41 1   
    41   15   16 1   
    42   16   17 1   
    43   16   42 1   
    44   16   43 1   
    45   17   18 1   
    46   17   44 1   
    47   17   45 1   
    48   18   19 1   
    49   18   46 1   
    50   19   47 1   
@<TRIPOS>SUBSTRUCTURE
     1 ASD         1 TEMP              0 ****  ****    0 ROOT
