@<TRIPOS>MOLECULE
ASD
   47    50     1     0     0
SMALL
bcc


@<TRIPOS>ATOM
      1 C1         -2.5980    1.5170    0.3250 c3        1 ASD     -0.071400
      2 C10        -1.6940    0.3330    0.6970 c3        1 ASD     -0.013800
      3 C11         0.4450    1.6990    0.3440 c3        1 ASD     -0.075400
      4 C12         1.8420    1.7740   -0.2570 c3        1 ASD     -0.056400
      5 C13         2.6420    0.5310    0.0810 c3        1 ASD     -0.153000
      6 C14         1.8420   -0.6890   -0.4310 c3        1 ASD     -0.064700
      7 C15         2.8550   -1.8280   -0.4480 c3        1 ASD     -0.072400
      8 C16         4.1670   -1.1530   -0.8590 c3        1 ASD     -0.188400
      9 C17         3.9740    0.3350   -0.6390 c         1 ASD      0.577100
     10 C18         2.9620    0.4880    1.5700 c3        1 ASD     -0.083100
     11 C19        -1.5700    0.3500    2.2210 c3        1 ASD     -0.087100
     12 C2         -3.2850    1.3790   -1.0130 c3        1 ASD     -0.182400
     13 C3         -4.1090    0.1220   -1.0460 c         1 ASD      0.569300
     14 C4         -3.4280   -1.0560   -0.4940 ce        1 ASD     -0.260200
     15 C5         -2.3170   -0.9710    0.2540 c2        1 ASD     -0.035400
     16 C6         -1.5410   -2.1930    0.6150 c3        1 ASD     -0.054200
     17 C7         -0.1750   -2.1170   -0.0420 c3        1 ASD     -0.071400
     18 C8          0.5410   -0.8310    0.3310 c3        1 ASD     -0.049700
     19 C9         -0.3110    0.4160    0.0120 c3        1 ASD     -0.046700
     20 O1         -5.2430    0.0780   -1.5360 o         1 ASD     -0.531100
     21 O2          4.7610    1.2150   -0.9740 o         1 ASD     -0.517100
     22 H11        -3.3920    1.6150    1.1160 hc        1 ASD      0.052200
     23 H12        -2.0090    2.4690    0.3430 hc        1 ASD      0.052200
     24 H111        0.5120    1.8120    1.4570 hc        1 ASD      0.044700
     25 H112       -0.1290    2.5800   -0.0480 hc        1 ASD      0.044700
     26 H121        1.7720    1.8810   -1.3710 hc        1 ASD      0.053200
     27 H122        2.3670    2.6830    0.1360 hc        1 ASD      0.053200
     28 H14         1.5720   -0.4860   -1.5110 hc        1 ASD      0.053700
     29 H151        2.9460   -2.3020    0.5600 hc        1 ASD      0.050200
     30 H152        2.5590   -2.6220   -1.1760 hc        1 ASD      0.050200
     31 H161        5.0260   -1.5170   -0.2440 hc        1 ASD      0.075700
     32 H162        4.4040   -1.3470   -1.9340 hc        1 ASD      0.075700
     33 H181        2.0410    0.6140    2.1860 hc        1 ASD      0.043700
     34 H182        3.4380   -0.4850    1.8400 hc        1 ASD      0.043700
     35 H183        3.6680    1.3170    1.8210 hc        1 ASD      0.043700
     36 H191       -2.5440    0.0620    2.6850 hc        1 ASD      0.041033
     37 H192       -0.7880   -0.3590    2.5800 hc        1 ASD      0.041033
     38 H193       -1.3010    1.3770    2.5690 hc        1 ASD      0.041033
     39 H21        -3.9360    2.2720   -1.2030 hc        1 ASD      0.071700
     40 H22        -2.5300    1.3250   -1.8420 hc        1 ASD      0.071700
     41 H4         -3.8680   -2.0300   -0.7660 ha        1 ASD      0.149000
     42 H61        -1.4310   -2.2620    1.7300 hc        1 ASD      0.056200
     43 H62        -2.0720   -3.1200    0.2730 hc        1 ASD      0.056200
     44 H71         0.4470   -2.9930    0.2800 hc        1 ASD      0.048200
     45 H72        -0.2900   -2.1770   -1.1560 hc        1 ASD      0.048200
     46 H8          0.7600   -0.8600    1.4340 hc        1 ASD      0.057700
     47 H9         -0.5050    0.4160   -1.1000 hc        1 ASD      0.051700
@<TRIPOS>BOND
     1    1    2 1   
     2    1   12 1   
     3    1   22 1   
     4    1   23 1   
     5    2   11 1   
     6    2   15 1   
     7    2   19 1   
     8    3    4 1   
     9    3   19 1   
    10    3   24 1   
    11    3   25 1   
    12    4    5 1   
    13    4   26 1   
    14    4   27 1   
    15    5    6 1   
    16    5    9 1   
    17    5   10 1   
    18    6    7 1   
    19    6   18 1   
    20    6   28 1   
    21    7    8 1   
    22    7   29 1   
    23    7   30 1   
    24    8    9 1   
    25    8   31 1   
    26    8   32 1   
    27    9   21 2   
    28   10   33 1   
    29   10   34 1   
    30   10   35 1   
    31   11   36 1   
    32   11   37 1   
    33   11   38 1   
    34   12   13 1   
    35   12   39 1   
    36   12   40 1   
    37   13   14 1   
    38   13   20 2   
    39   14   15 2   
    40   14   41 1   
    41   15   16 1   
    42   16   17 1   
    43   16   42 1   
    44   16   43 1   
    45   17   18 1   
    46   17   44 1   
    47   17   45 1   
    48   18   19 1   
    49   18   46 1   
    50   19   47 1   
@<TRIPOS>SUBSTRUCTURE
     1 ASD         1 TEMP              0 ****  ****    0 ROOT
