@<TRIPOS>MOLECULE
ASE
   31    32     1     0     0
SMALL
bcc


@<TRIPOS>ATOM
      1 C1          0.7370   -0.2680   -0.4630 ca        1 ASE      0.131100
      2 C2          2.0930   -0.1630   -0.1480 ca        1 ASE     -0.163000
      3 C3          2.4480   -0.0900    1.1980 ca        1 ASE     -0.049800
      4 C4         -0.2680   -0.2930    0.5340 ca        1 ASE     -0.183000
      5 C5          0.0630   -0.2130    1.8750 ca        1 ASE     -0.076000
      6 C6          1.4220   -0.1130    2.2150 ca        1 ASE     -0.082200
      7 C7          3.7100    0.0140    1.8990 cc        1 ASE     -0.229400
      8 C8          3.4180    0.0580    3.2700 cd        1 ASE     -0.040100
      9 N9          2.0490   -0.0250    3.4660 na        1 ASE     -0.163400
     10 O10         0.4350   -0.3560   -1.8020 oh        1 ASE     -0.501100
     11 C11         5.0340    0.0970    1.2790 c3        1 ASE     -0.000200
     12 C12         5.3370   -1.2360    0.5860 c3        1 ASE      0.096800
     13 N13         6.5490   -1.1710   -0.2890 ny        1 ASE     -0.687800
     14 C14         6.8000   -2.5000   -0.9790 c         1 ASE      0.553100
     15 C15         6.0080   -2.7550   -2.2130 c3        1 ASE     -0.187100
     16 O16         7.6360   -3.2090   -0.4440 o         1 ASE     -0.398100
     17 H2          2.8420   -0.1170   -0.9470 ha        1 ASE      0.128000
     18 H4         -1.3240   -0.3720    0.2330 ha        1 ASE      0.151000
     19 H5         -0.7170   -0.2270    2.6500 ha        1 ASE      0.152000
     20 H8          4.1040    0.1480    4.1170 h4        1 ASE      0.178000
     21 HN9         1.5820    0.0200    4.3350 hn        1 ASE      0.317700
     22 HO0        -0.5300   -0.3570   -1.8970 ho        1 ASE      0.433000
     23 H111        5.8200    0.3160    2.0510 hc        1 ASE      0.065200
     24 H112        5.0420    0.9350    0.5270 hc        1 ASE      0.065200
     25 H121        4.4560   -1.5290   -0.0570 hx        1 ASE      0.113700
     26 H122        5.5120   -2.0410    1.3550 hx        1 ASE      0.113700
     27 HN3         6.4190   -0.4370   -0.9920 hn        1 ASE      0.456800
     28 H151        6.2150   -3.8040   -2.5590 hc        1 ASE      0.116367
     29 H152        4.9090   -2.6490   -2.0230 hc        1 ASE      0.116367
     30 H153        6.3110   -2.0460   -3.0260 hc        1 ASE      0.116367
     31 H132        7.3620   -0.9270    0.2910 hn        1 ASE      0.456800
@<TRIPOS>BOND
     1    1    2 ar  
     2    1    4 ar  
     3    1   10 1   
     4    2    3 ar  
     5    2   17 1   
     6    3    6 ar  
     7    3    7 1   
     8    4    5 ar  
     9    4   18 1   
    10    5    6 ar  
    11    5   19 1   
    12    6    9 1   
    13    7    8 2   
    14    7   11 1   
    15    8    9 1   
    16    8   20 1   
    17    9   21 1   
    18   10   22 1   
    19   11   12 1   
    20   11   23 1   
    21   11   24 1   
    22   12   13 1   
    23   12   25 1   
    24   12   26 1   
    25   13   14 1   
    26   13   27 1   
    27   13   31 1   
    28   14   15 1   
    29   14   16 2   
    30   15   28 1   
    31   15   29 1   
    32   15   30 1   
@<TRIPOS>SUBSTRUCTURE
     1 ASE         1 TEMP              0 ****  ****    0 ROOT
