@<TRIPOS>MOLECULE
ASE
   30    31     1     0     0
SMALL
bcc


@<TRIPOS>ATOM
      1 C1         -1.3530   -0.5340   -3.3260 ca        1 ASE      0.101100
      2 C2         -1.0940   -0.6780   -1.9650 ca        1 ASE     -0.178000
      3 C3          0.1430   -0.2480   -1.4830 ca        1 ASE     -0.048800
      4 C4         -0.4110    0.0290   -4.2230 ca        1 ASE     -0.136000
      5 C5          0.8210    0.4600   -3.7650 ca        1 ASE     -0.110000
      6 C6          1.1060    0.3240   -2.3970 ca        1 ASE     -0.080200
      7 C7          0.7600   -0.2340   -0.1740 cc        1 ASE     -0.155400
      8 C8          2.0320    0.3250   -0.3300 cd        1 ASE     -0.088100
      9 N9          2.2480    0.6640   -1.6640 na        1 ASE     -0.187400
     10 O10        -2.5460   -0.9270   -3.8980 oh        1 ASE     -0.502100
     11 C11         0.1740   -0.7300    1.0770 c3        1 ASE     -0.028200
     12 C12        -0.0500    0.4250    2.0660 c3        1 ASE      0.086000
     13 N13        -0.5650    0.0250    3.3450 n         1 ASE     -0.570900
     14 C14         0.2330   -0.0770    4.4700 c         1 ASE      0.653100
     15 C15        -0.4080   -0.6210    5.7240 c3        1 ASE     -0.176100
     16 O16         1.4210    0.3040    4.4600 o         1 ASE     -0.610100
     17 H2         -1.8370   -1.1170   -1.2860 ha        1 ASE      0.134000
     18 H4         -0.6800    0.1130   -5.2850 ha        1 ASE      0.150000
     19 H5          1.5550    0.8960   -4.4560 ha        1 ASE      0.136000
     20 H8          2.8010    0.5040    0.4260 h4        1 ASE      0.173000
     21 HN9         3.0620    1.0750   -2.0340 hn        1 ASE      0.300700
     22 HO0        -3.1020   -1.2970   -3.1980 ho        1 ASE      0.415000
     23 H111        0.8580   -1.4930    1.5380 hc        1 ASE      0.048200
     24 H112       -0.8020   -1.2410    0.8610 hc        1 ASE      0.048200
     25 H121       -0.7820    1.1520    1.6090 h1        1 ASE      0.064700
     26 H122        0.9300    0.9620    2.2220 h1        1 ASE      0.064700
     27 HN3        -1.4530   -0.4150    3.3550 hn        1 ASE      0.301500
     28 H151        0.3520   -0.6220    6.5430 hc        1 ASE      0.065033
     29 H152       -1.2700    0.0180    6.0310 hc        1 ASE      0.065033
     30 H153       -0.7660   -1.6650    5.5600 hc        1 ASE      0.065033
@<TRIPOS>BOND
     1    1    2 ar  
     2    1    4 ar  
     3    1   10 1   
     4    2    3 ar  
     5    2   17 1   
     6    3    6 ar  
     7    3    7 1   
     8    4    5 ar  
     9    4   18 1   
    10    5    6 ar  
    11    5   19 1   
    12    6    9 1   
    13    7    8 2   
    14    7   11 1   
    15    8    9 1   
    16    8   20 1   
    17    9   21 1   
    18   10   22 1   
    19   11   12 1   
    20   11   23 1   
    21   11   24 1   
    22   12   13 1   
    23   12   25 1   
    24   12   26 1   
    25   13   14 1   
    26   13   27 1   
    27   14   15 1   
    28   14   16 2   
    29   15   28 1   
    30   15   29 1   
    31   15   30 1   
@<TRIPOS>SUBSTRUCTURE
     1 ASE         1 TEMP              0 ****  ****    0 ROOT
