@<TRIPOS>MOLECULE
ASE
   31    32     1     0     0
SMALL
bcc


@<TRIPOS>ATOM
      1 C1          0.7070   -0.4030   -0.4400 ca        1 ASE      0.131100
      2 C2          2.0630   -0.2390   -0.1510 ca        1 ASE     -0.163000
      3 C3          2.4350   -0.0980    1.1850 ca        1 ASE     -0.049800
      4 C4         -0.2820   -0.4200    0.5730 ca        1 ASE     -0.183000
      5 C5          0.0660   -0.2720    1.9040 ca        1 ASE     -0.076000
      6 C6          1.4250   -0.1120    2.2180 ca        1 ASE     -0.082200
      7 C7          3.7030    0.0780    1.8600 cc        1 ASE     -0.229400
      8 C8          3.4290    0.1700    3.2330 cd        1 ASE     -0.040100
      9 N9          2.0670    0.0500    3.4540 na        1 ASE     -0.163400
     10 O10         0.3890   -0.5580   -1.7690 oh        1 ASE     -0.501100
     11 C11         5.0140    0.1800    1.2170 c3        1 ASE     -0.000200
     12 C12         5.3520   -1.1710    0.5760 c3        1 ASE      0.096800
     13 N13         6.5480   -1.1030   -0.3210 n4        1 ASE     -0.687800
     14 C14         6.8350   -2.4510   -0.9570 c         1 ASE      0.553100
     15 C15         6.0340   -2.7870   -2.1660 c3        1 ASE     -0.187100
     16 O16         7.7040   -3.1070   -0.4070 o         1 ASE     -0.398100
     17 H2          2.7980   -0.2020   -0.9640 ha        1 ASE      0.128000
     18 H4         -1.3390   -0.5470    0.2930 ha        1 ASE      0.151000
     19 H5         -0.7020   -0.2790    2.6920 ha        1 ASE      0.152000
     20 H8          4.1230    0.3200    4.0640 h4        1 ASE      0.178000
     21 HN9         1.6110    0.1170    4.3280 hn        1 ASE      0.317700
     22 HO0        -0.5770   -0.5960   -1.8480 ho        1 ASE      0.433000
     23 H111        5.8030    0.4580    1.9660 hc        1 ASE      0.065200
     24 H112        4.9820    0.9840    0.4300 hc        1 ASE      0.065200
     25 H121        4.4720   -1.5210   -0.0400 hx        1 ASE      0.113700
     26 H122        5.5660   -1.9360    1.3750 hx        1 ASE      0.113700
     27 HN3         6.3830   -0.4050   -1.0520 hn        1 ASE      0.456800
     28 H151        6.2730   -3.8410   -2.4710 hc        1 ASE      0.116367
     29 H152        4.9350   -2.7110   -1.9620 hc        1 ASE      0.116367
     30 H153        6.2980   -2.1020   -3.0130 hc        1 ASE      0.116367
     31 H132        7.3610   -0.8060    0.2350 hn        1 ASE      0.456800
@<TRIPOS>BOND
     1    1    2 ar  
     2    1    4 ar  
     3    1   10 1   
     4    2    3 ar  
     5    2   17 1   
     6    3    6 ar  
     7    3    7 1   
     8    4    5 ar  
     9    4   18 1   
    10    5    6 ar  
    11    5   19 1   
    12    6    9 1   
    13    7    8 2   
    14    7   11 1   
    15    8    9 1   
    16    8   20 1   
    17    9   21 1   
    18   10   22 1   
    19   11   12 1   
    20   11   23 1   
    21   11   24 1   
    22   12   13 1   
    23   12   25 1   
    24   12   26 1   
    25   13   14 1   
    26   13   27 1   
    27   13   31 1   
    28   14   15 1   
    29   14   16 2   
    30   15   28 1   
    31   15   29 1   
    32   15   30 1   
@<TRIPOS>SUBSTRUCTURE
     1 ASE         1 TEMP              0 ****  ****    0 ROOT
