@<TRIPOS>MOLECULE
ASE
   31    32     1     0     0
SMALL
bcc


@<TRIPOS>ATOM
      1 C1          0.7400   -0.2610   -0.4680 ca        1 ASE      0.131100
      2 C2          2.0950   -0.1580   -0.1490 ca        1 ASE     -0.163000
      3 C3          2.4460   -0.0930    1.1990 ca        1 ASE     -0.049800
      4 C4         -0.2680   -0.2900    0.5260 ca        1 ASE     -0.183000
      5 C5          0.0600   -0.2180    1.8680 ca        1 ASE     -0.076000
      6 C6          1.4170   -0.1200    2.2120 ca        1 ASE     -0.082200
      7 C7          3.7070    0.0060    1.9030 cc        1 ASE     -0.229400
      8 C8          3.4100    0.0430    3.2740 cd        1 ASE     -0.040100
      9 N9          2.0420   -0.0390    3.4660 na        1 ASE     -0.163400
     10 O10         0.4420   -0.3420   -1.8090 oh        1 ASE     -0.501100
     11 C11         5.0330    0.0920    1.2880 c3        1 ASE     -0.000200
     12 C12         5.3360   -1.2380    0.5890 c3        1 ASE      0.096800
     13 N13         6.5500   -1.1690   -0.2820 n4        1 ASE     -0.687800
     14 C14         6.8020   -2.4950   -0.9790 c         1 ASE      0.553100
     15 C15         6.0130   -2.7430   -2.2170 c3        1 ASE     -0.187100
     16 O16         7.6360   -3.2080   -0.4460 o         1 ASE     -0.398100
     17 H2          2.8470   -0.1090   -0.9460 ha        1 ASE      0.128000
     18 H4         -1.3230   -0.3660    0.2220 ha        1 ASE      0.151000
     19 H5         -0.7220   -0.2350    2.6410 ha        1 ASE      0.152000
     20 H8          4.0940    0.1290    4.1230 h4        1 ASE      0.178000
     21 HN9         1.5720    0.0020    4.3340 hn        1 ASE      0.317700
     22 HO0        -0.5230   -0.3420   -1.9060 ho        1 ASE      0.433000
     23 H111        5.8160    0.3060    2.0630 hc        1 ASE      0.065200
     24 H112        5.0430    0.9330    0.5410 hc        1 ASE      0.065200
     25 H121        5.5080   -2.0470    1.3540 hx        1 ASE      0.113700
     26 H122        4.4570   -1.5270   -0.0580 hx        1 ASE      0.113700
     27 HN3         6.4230   -0.4320   -0.9820 hn        1 ASE      0.456800
     28 H151        4.9140   -2.6350   -2.0300 hc        1 ASE      0.116367
     29 H152        6.3200   -2.0290   -3.0250 hc        1 ASE      0.116367
     30 H153        6.2190   -3.7900   -2.5670 hc        1 ASE      0.116367
     31 H132        7.3630   -0.9300    0.3010 hn        1 ASE      0.456800
@<TRIPOS>BOND
     1    1    2 ar  
     2    1    4 ar  
     3    1   10 1   
     4    2    3 ar  
     5    2   17 1   
     6    3    6 ar  
     7    3    7 1   
     8    4    5 ar  
     9    4   18 1   
    10    5    6 ar  
    11    5   19 1   
    12    6    9 1   
    13    7    8 2   
    14    7   11 1   
    15    8    9 1   
    16    8   20 1   
    17    9   21 1   
    18   10   22 1   
    19   11   12 1   
    20   11   23 1   
    21   11   24 1   
    22   12   13 1   
    23   12   25 1   
    24   12   26 1   
    25   13   14 1   
    26   13   27 1   
    27   13   31 1   
    28   14   15 1   
    29   14   16 2   
    30   15   28 1   
    31   15   29 1   
    32   15   30 1   
@<TRIPOS>SUBSTRUCTURE
     1 ASE         1 TEMP              0 ****  ****    0 ROOT
