@<TRIPOS>MOLECULE
ASE
   30    23     1     0     0
SMALL
bcc


@<TRIPOS>ATOM
      1 C1         -3.8380    0.5610   -0.9840 c1        1 ASE      0.051000
      2 C2         -2.4350    0.5240   -0.9690 c1        1 ASE     -0.112500
      3 C3         -1.7500    0.5310    0.2490 c1        1 ASE     -0.037000
      4 C4         -4.5540    0.6040    0.2290 c1        1 ASE     -0.189000
      5 C5         -3.8740    0.6100    1.4320 c1        1 ASE     -0.112500
      6 C6         -2.4540    0.5730    1.4460 c1        1 ASE     -0.037000
      7 C7         -0.3870    0.5180    0.5520 c1        1 ASE     -0.160000
      8 C8         -0.2530    0.5520    1.9260 c1        1 ASE     -0.059000
      9 N9         -1.5260    0.5860    2.4850 n1        1 ASE     -0.213000
     10 O10        -4.6320    0.4860   -2.1540 oh        1 ASE     -0.257000
     11 C11         0.9310    0.6620   -0.1520 c2        1 ASE     -0.113000
     12 C12         1.6070   -0.6970   -0.2450 c3        1 ASE     -0.030000
     13 N13         2.9560   -0.5370   -0.8310 n         1 ASE     -0.379000
     14 C14         3.8780   -1.6120   -0.7780 c2        1 ASE      0.297000
     15 C15         5.3330   -1.3400   -0.8650 c3        1 ASE     -0.244000
     16 O16         3.4880   -2.7300   -0.4720 o         1 ASE     -0.372000
     17 H2         -1.9350    0.4970   -1.8130 ha        1 ASE      0.142000
     18 H4         -5.4960    0.6330    0.2210 ha        1 ASE      0.131000
     19 H5         -4.3580    0.6360    2.2510 ha        1 ASE      0.142000
     20 H8          0.5410    0.5470    2.3900 DU        1 ASE      0.211500
     21 HN9        -1.7360    0.6170    3.4660 DU        1 ASE      0.211500
     22 HO0        -4.7040    1.3030   -2.5190 ho        1 ASE      0.214000
     23 H111        0.7730    1.0330   -1.1020 ha        1 ASE      0.089500
     24 H112        1.5000    1.2730    0.3450 ha        1 ASE      0.089500
     25 H121        1.0930   -1.2640   -0.7880 h1        1 ASE      0.104000
     26 H122        1.6820   -1.0640    0.5960 h1        1 ASE      0.104000
     27 HN3         3.2100    0.2800   -1.2040 hn        1 ASE      0.216000
     28 H151        5.7990   -2.1380   -0.8110 hc        1 ASE      0.104000
     29 H152        5.5450   -0.8790   -1.7620 hc        1 ASE      0.104000
     30 H153        5.5970   -0.7660   -0.1390 hc        1 ASE      0.104000
@<TRIPOS>BOND
     1    1    4 1   
     2    1   10 1   
     3    2    3 1   
     4    2   17 1   
     5    4   18 1   
     6    5    6 1   
     7    5   19 1   
     8    7    8 1   
     9    8    9 1   
    10   10   22 1   
    11   11   12 1   
    12   11   23 1   
    13   11   24 1   
    14   12   13 1   
    15   12   25 1   
    16   12   26 1   
    17   13   14 1   
    18   13   27 1   
    19   14   15 1   
    20   14   16 1   
    21   15   28 1   
    22   15   29 1   
    23   15   30 1   
@<TRIPOS>SUBSTRUCTURE
     1 ASE         1 TEMP              0 ****  ****    0 ROOT
