@<TRIPOS>MOLECULE
ASF
   25    24     1     0     0
SMALL
bcc


@<TRIPOS>ATOM
      1 C2          0.9230   -1.2210    0.1760 c3        1 ASF     -0.089100
      2 C3          2.2530   -0.5270    0.3080 c3        1 ASF     -0.079400
      3 C4          2.4110    0.1100    1.6730 c3        1 ASF     -0.031400
      4 C5          3.7420    0.8080    1.8020 c3        1 ASF     -0.356600
      5 C7          5.7090    1.1390    3.5510 c3        1 ASF     -0.302600
      6 C8          6.0900   -0.2940    3.8460 c3        1 ASF     -0.178400
      7 C9          6.6320   -1.0470    2.6160 c         1 ASF      0.906600
      8 O1          3.8420    2.8280    3.3340 o         1 ASF     -0.688800
      9 O2          3.2850    0.7460    4.3330 o         1 ASF     -0.688800
     10 O3          7.1730   -2.1670    2.8150 o         1 ASF     -0.840800
     11 O4          6.5070   -0.5150    1.4700 o         1 ASF     -0.840800
     12 S5          4.0500    1.4220    3.3550 s6        1 ASF      1.302000
     13 H2C1        0.8210   -2.0250    0.9440 hc        1 ASF      0.025033
     14 H2C2        0.8260   -1.6860   -0.8350 hc        1 ASF      0.025033
     15 H2C3        0.0830   -0.4980    0.3140 hc        1 ASF      0.025033
     16 H3C1        3.0850   -1.2630    0.1450 hc        1 ASF      0.047200
     17 H3C2        2.3500    0.2610   -0.4840 hc        1 ASF      0.047200
     18 H4C1        1.5790    0.8440    1.8420 hc        1 ASF      0.044700
     19 H4C2        2.3250   -0.6800    2.4680 hc        1 ASF      0.044700
     20 H5C1        4.5610    0.0810    1.4780 h1        1 ASF      0.152200
     21 H5C2        3.7960    1.6310    1.0400 h1        1 ASF      0.152200
     22 H7C1        6.2820    1.4330    2.6230 h1        1 ASF      0.116700
     23 H7C2        6.0990    1.7990    4.3700 h1        1 ASF      0.116700
     24 H8C1        6.8870   -0.3210    4.6310 hc        1 ASF      0.046200
     25 H8C2        5.2080   -0.8590    4.2450 hc        1 ASF      0.046200
@<TRIPOS>BOND
     1    1    2 1   
     2    1   13 1   
     3    1   14 1   
     4    1   15 1   
     5    2    3 1   
     6    2   16 1   
     7    2   17 1   
     8    3    4 1   
     9    3   18 1   
    10    3   19 1   
    11    4   12 1   
    12    4   20 1   
    13    4   21 1   
    14    5    6 1   
    15    5   12 1   
    16    5   22 1   
    17    5   23 1   
    18    6    7 1   
    19    6   24 1   
    20    6   25 1   
    21    7   10 1   
    22    7   11 1   
    23    8   12 2   
    24    9   12 2   
@<TRIPOS>SUBSTRUCTURE
     1 ASF         1 TEMP              0 ****  ****    0 ROOT
