@<TRIPOS>MOLECULE
ASF
   25    24     1     0     0
SMALL
bcc


@<TRIPOS>ATOM
      1 C2         -3.7550   -0.0130   -2.2080 c3        1 ASF     -0.089100
      2 C3         -2.2430   -0.0130   -2.2080 c3        1 ASF     -0.079400
      3 C4         -1.7380   -0.0130   -0.7820 c3        1 ASF     -0.031400
      4 C5         -0.2250   -0.0220   -0.7820 c3        1 ASF     -0.356600
      5 C7          2.1370   -0.0390    0.9170 c3        1 ASF     -0.302600
      6 C8          2.6260    0.1130    2.3400 c3        1 ASF     -0.178400
      7 C9          4.1280   -0.0680    2.3780 c         1 ASF      0.906600
      8 O1         -0.2220   -0.9800    1.6960 o         1 ASF     -0.688800
      9 O2         -0.1060    1.2330    1.5560 o         1 ASF     -0.688800
     10 O3          4.6200   -1.2150    2.5450 o         1 ASF     -0.840800
     11 O4          4.8860    0.9290    2.2440 o         1 ASF     -0.840800
     12 S5          0.3660    0.0520    0.8880 s6        1 ASF      1.302000
     13 H2C1       -4.0810   -0.0110   -3.1290 hc        1 ASF      0.025033
     14 H2C2       -4.0810   -0.8110   -1.7500 hc        1 ASF      0.025033
     15 H2C3       -4.0810    0.7830   -1.7460 hc        1 ASF      0.025033
     16 H3C1       -1.9170   -0.8100   -2.6680 hc        1 ASF      0.047200
     17 H3C2       -1.9170    0.7840   -2.6680 hc        1 ASF      0.047200
     18 H4C1       -2.0680   -0.8070   -0.3200 hc        1 ASF      0.044700
     19 H4C2       -2.0590    0.7870   -0.3230 hc        1 ASF      0.044700
     20 H5C1        0.0950   -0.8420   -1.2050 h1        1 ASF      0.152200
     21 H5C2        0.1050    0.7510   -1.2790 h1        1 ASF      0.152200
     22 H7C1        2.4240   -0.9040    0.5650 h1        1 ASF      0.116700
     23 H7C2        2.5080    0.6760    0.3660 h1        1 ASF      0.116700
     24 H8C1        2.3970    1.0030    2.6690 hc        1 ASF      0.046200
     25 H8C2        2.2030   -0.5620    2.9040 hc        1 ASF      0.046200
@<TRIPOS>BOND
     1    1    2 1   
     2    1   13 1   
     3    1   14 1   
     4    1   15 1   
     5    2    3 1   
     6    2   16 1   
     7    2   17 1   
     8    3    4 1   
     9    3   18 1   
    10    3   19 1   
    11    4   12 1   
    12    4   20 1   
    13    4   21 1   
    14    5    6 1   
    15    5   12 1   
    16    5   22 1   
    17    5   23 1   
    18    6    7 1   
    19    6   24 1   
    20    6   25 1   
    21    7   10 1   
    22    7   11 1   
    23    8   12 2   
    24    9   12 2   
@<TRIPOS>SUBSTRUCTURE
     1 ASF         1 TEMP              0 ****  ****    0 ROOT
