@<TRIPOS>MOLECULE
ASF
   25    24     1     0     0
SMALL
bcc


@<TRIPOS>ATOM
      1 C2          4.6450    0.8320    0.9880 c3        1 ASF     -0.089100
      2 C3          3.3480    1.2150    0.3230 c3        1 ASF     -0.079400
      3 C4          2.5970   -0.0050   -0.1680 c3        1 ASF     -0.031400
      4 C5          1.3000    0.3810   -0.8360 c3        1 ASF     -0.356600
      5 C7         -1.2340   -0.3920   -0.9610 c3        1 ASF     -0.302600
      6 C8         -1.6240   -0.3690    0.5000 c3        1 ASF     -0.178400
      7 C9         -1.5570    1.0360    1.1280 c         1 ASF      0.906600
      8 O1          0.4550   -1.1340   -2.6870 o         1 ASF     -0.688800
      9 O2          0.6540   -2.0890   -0.5210 o         1 ASF     -0.688800
     10 O3         -2.0670    1.1840    2.2710 o         1 ASF     -0.840800
     11 O4         -0.9930    1.9700    0.4790 o         1 ASF     -0.840800
     12 S5          0.3360   -0.9420   -1.2840 s6        1 ASF      1.302000
     13 H2C1        4.4550    0.1680    1.8660 hc        1 ASF      0.025033
     14 H2C2        5.3090    0.2860    0.2750 hc        1 ASF      0.025033
     15 H2C3        5.1830    1.7430    1.3440 hc        1 ASF      0.025033
     16 H3C1        2.7020    1.7810    1.0460 hc        1 ASF      0.047200
     17 H3C2        3.5530    1.9000   -0.5410 hc        1 ASF      0.047200
     18 H4C1        3.2400   -0.5760   -0.8890 hc        1 ASF      0.044700
     19 H4C2        2.3820   -0.6870    0.6990 hc        1 ASF      0.044700
     20 H5C1        0.7340    1.0850   -0.1380 h1        1 ASF      0.152200
     21 H5C2        1.5290    1.0180   -1.7320 h1        1 ASF      0.152200
     22 H7C1       -1.9680   -1.0240   -1.5270 h1        1 ASF      0.116700
     23 H7C2       -1.3800    0.6620   -1.3420 h1        1 ASF      0.116700
     24 H8C1       -2.6740   -0.7380    0.6180 hc        1 ASF      0.046200
     25 H8C2       -0.9610   -1.0530    1.0910 hc        1 ASF      0.046200
@<TRIPOS>BOND
     1    1    2 1   
     2    1   13 1   
     3    1   14 1   
     4    1   15 1   
     5    2    3 1   
     6    2   16 1   
     7    2   17 1   
     8    3    4 1   
     9    3   18 1   
    10    3   19 1   
    11    4   12 1   
    12    4   20 1   
    13    4   21 1   
    14    5    6 1   
    15    5   12 1   
    16    5   22 1   
    17    5   23 1   
    18    6    7 1   
    19    6   24 1   
    20    6   25 1   
    21    7   10 1   
    22    7   11 1   
    23    8   12 2   
    24    9   12 2   
@<TRIPOS>SUBSTRUCTURE
     1 ASF         1 TEMP              0 ****  ****    0 ROOT
