@<TRIPOS>MOLECULE
ASF
   25    24     1     0     0
SMALL
bcc


@<TRIPOS>ATOM
      1 C2          0.1280    0.0000   -0.0440 c3        1 ASF     -0.089100
      2 C3          1.6310    0.0000    0.0550 c3        1 ASF     -0.079400
      3 C4          2.0920   -0.0000    1.4960 c3        1 ASF     -0.031400
      4 C5          3.5970    0.0000    1.6020 c3        1 ASF     -0.356600
      5 C7          5.7730    0.0000    2.9650 c3        1 ASF     -0.302600
      6 C8          6.6130   -0.0000    4.2250 c3        1 ASF     -0.178400
      7 C9          8.1210    0.0000    3.8840 c         1 ASF      0.906600
      8 O1          3.6730    1.1930    3.8490 o         1 ASF     -0.688800
      9 O2          3.6730   -1.1930    3.8490 o         1 ASF     -0.688800
     10 O3          8.9240    0.0000    4.8560 o         1 ASF     -0.840800
     11 O4          8.4630   -0.0000    2.6670 o         1 ASF     -0.840800
     12 S5          4.1280   -0.0000    3.2490 s6        1 ASF      1.302000
     13 H2C1       -0.2990   -0.9050    0.4530 hc        1 ASF      0.025033
     14 H2C2       -0.1920    0.0000   -1.1130 hc        1 ASF      0.025033
     15 H2C3       -0.2990    0.9050    0.4530 hc        1 ASF      0.025033
     16 H3C1        2.0440   -0.9020   -0.4690 hc        1 ASF      0.047200
     17 H3C2        2.0440    0.9020   -0.4690 hc        1 ASF      0.047200
     18 H4C1        1.6830    0.9060    2.0200 hc        1 ASF      0.044700
     19 H4C2        1.6830   -0.9060    2.0200 hc        1 ASF      0.044700
     20 H5C1        3.9990   -0.8930    1.0580 h1        1 ASF      0.152200
     21 H5C2        3.9990    0.8940    1.0580 h1        1 ASF      0.152200
     22 H7C1        6.1270   -0.8820    2.3600 h1        1 ASF      0.116700
     23 H7C2        6.1270    0.8830    2.3600 h1        1 ASF      0.116700
     24 H8C1        6.3940    0.9090    4.8380 hc        1 ASF      0.046200
     25 H8C2        6.3940   -0.9090    4.8380 hc        1 ASF      0.046200
@<TRIPOS>BOND
     1    1    2 1   
     2    1   13 1   
     3    1   14 1   
     4    1   15 1   
     5    2    3 1   
     6    2   16 1   
     7    2   17 1   
     8    3    4 1   
     9    3   18 1   
    10    3   19 1   
    11    4   12 1   
    12    4   20 1   
    13    4   21 1   
    14    5    6 1   
    15    5   12 1   
    16    5   22 1   
    17    5   23 1   
    18    6    7 1   
    19    6   24 1   
    20    6   25 1   
    21    7   10 1   
    22    7   11 1   
    23    8   12 2   
    24    9   12 2   
@<TRIPOS>SUBSTRUCTURE
     1 ASF         1 TEMP              0 ****  ****    0 ROOT
