@<TRIPOS>MOLECULE
ASG
   33    33     1     0     0
SMALL
bcc


@<TRIPOS>ATOM
      1 C1          1.7160   -0.4480    1.5600 c3        1 ASG      0.344900
      2 C2          0.1630   -0.4110    1.5970 c3        1 ASG      0.000700
      3 C3         -0.3160   -1.4300    0.5320 c3        1 ASG      0.121100
      4 C4          0.1730   -0.9390   -0.8500 c3        1 ASG      0.175100
      5 C5          1.7020   -0.7610   -0.8090 c3        1 ASG      0.100100
      6 C6          2.1980   -0.0310   -2.0600 c3        1 ASG      0.134400
      7 C7         -0.5210    0.3370    3.8390 c         1 ASG      0.652100
      8 C8         -1.3550    0.0380    5.0630 c3        1 ASG     -0.174100
      9 O1          2.3410    0.4360    2.4420 oh        1 ASG     -0.594800
     10 N          -0.3770   -0.6780    2.9100 n         1 ASG     -0.532900
     11 O3         -1.7110   -1.6130    0.5900 oh        1 ASG     -0.629800
     12 O4         -0.4670    0.2440   -1.1730 os        1 ASG     -0.606500
     13 O5          2.1660    0.0220    0.2940 os        1 ASG     -0.454600
     14 O6          3.6120   -0.0210   -2.1140 oh        1 ASG     -0.620800
     15 O7          0.0530    1.4390    3.7080 o         1 ASG     -0.622100
     16 OSA        -2.7310   -0.1580   -1.8250 o         1 ASG     -0.744533
     17 OSB        -1.6110    1.7000   -2.7810 o         1 ASG     -0.744533
     18 OSC        -1.0260   -0.5040   -3.4200 o         1 ASG     -0.744533
     19 S          -1.6130    0.3470   -2.4890 s6        1 ASG      1.702300
     20 H1          2.1300   -1.4700    1.7810 h2        1 ASG      0.056700
     21 H2         -0.1560    0.6240    1.2570 h1        1 ASG      0.107700
     22 H3          0.1200   -2.4460    0.7500 h1        1 ASG      0.047700
     23 H4         -0.0640   -1.7350   -1.6180 h1        1 ASG      0.059700
     24 H5          2.1810   -1.7790   -0.7360 h1        1 ASG      0.028700
     25 H6A         1.8590   -0.5780   -2.9780 h1        1 ASG      0.075700
     26 H6B         1.7960    1.0170   -2.0650 h1        1 ASG      0.075700
     27 H8A        -1.3270    0.9230    5.7430 hc        1 ASG      0.058367
     28 H8B        -2.4130   -0.1630    4.7700 hc        1 ASG      0.058367
     29 H8C        -0.9510   -0.8500    5.6060 hc        1 ASG      0.058367
     30 HO1         1.8740    1.2840    2.3960 ho        1 ASG      0.435000
     31 HN         -1.0270   -1.4320    2.9480 hn        1 ASG      0.310500
     32 HO3        -2.1320   -0.9400    0.0240 ho        1 ASG      0.461000
     33 HO6         3.9150    0.4110   -1.3050 ho        1 ASG      0.406000
@<TRIPOS>BOND
     1    1    2 1   
     2    1    9 1   
     3    1   13 1   
     4    1   20 1   
     5    2    3 1   
     6    2   10 1   
     7    2   21 1   
     8    3    4 1   
     9    3   11 1   
    10    3   22 1   
    11    4    5 1   
    12    4   12 1   
    13    4   23 1   
    14    5    6 1   
    15    5   13 1   
    16    5   24 1   
    17    6   14 1   
    18    6   25 1   
    19    6   26 1   
    20    7    8 1   
    21    7   10 1   
    22    7   15 2   
    23    8   27 1   
    24    8   28 1   
    25    8   29 1   
    26    9   30 1   
    27   10   31 1   
    28   11   32 1   
    29   12   19 1   
    30   14   33 1   
    31   16   19 1   
    32   17   19 1   
    33   18   19 1   
@<TRIPOS>SUBSTRUCTURE
     1 ASG         1 TEMP              0 ****  ****    0 ROOT
