@<TRIPOS>MOLECULE
ASG
   33    32     1     0     0
SMALL
bcc


@<TRIPOS>ATOM
      1 C1         -1.4070    1.0880   -1.1430 c3        1 ASG      0.152000
      2 C2          0.1300    0.9330   -1.1920 c3        1 ASG     -0.038000
      3 C3          0.7930    1.1110    0.2000 c3        1 ASG     -0.001000
      4 C4          0.0800   -0.0960    0.8910 c3        1 ASG      0.058000
      5 C5         -1.4380    0.0600    0.9260 c3        1 ASG     -0.012000
      6 C6         -1.8720    0.5450    2.3550 c3        1 ASG     -0.023000
      7 C7          1.4990   -0.5040   -2.6120 c1        1 ASG      0.304000
      8 C8          1.8400   -1.8810   -3.1380 c2        1 ASG     -0.241000
      9 O1         -1.7720    2.4400   -1.6220 oh        1 ASG     -0.323000
     10 N           0.4410   -0.3420   -1.6830 n3        1 ASG     -0.351000
     11 O3          0.4720    2.2410    0.7490 oh        1 ASG     -0.351000
     12 O4          0.5500   -0.2080    2.1960 os        1 ASG     -0.756000
     13 O5         -1.8460    0.9350    0.0330 os        1 ASG     -0.310000
     14 O6         -2.4540   -0.5280    3.0600 oh        1 ASG     -0.351000
     15 O7          2.1350    0.4610   -2.9830 o         1 ASG     -0.393000
     16 OSA         0.5660   -2.6830    2.1420 o         1 ASG     -1.065667
     17 OSB         1.7800   -1.4750    3.9530 o         1 ASG     -1.065667
     18 OSC         2.6890   -1.4210    1.8040 o         1 ASG     -1.065667
     19 S           1.3520   -1.4460    2.5050 s6        1 ASG      2.883000
     20 H1         -1.8160    0.4190   -1.7280 h2        1 ASG      0.115000
     21 H2          0.4940    1.6040   -1.8030 h1        1 ASG      0.130000
     22 H3          1.7620    0.9830    0.1580 h1        1 ASG      0.080000
     23 H4          0.3020   -0.9140    0.4050 h1        1 ASG      0.095000
     24 H5         -1.8550   -0.8060    0.7400 h1        1 ASG      0.117000
     25 H6A        -2.5240    1.2710    2.2700 h1        1 ASG      0.086000
     26 H6B        -1.0860    0.8680    2.8430 h1        1 ASG      0.086000
     27 H8A         2.3090   -2.3890   -2.4440 ha        1 ASG      0.099333
     28 H8B         1.0150   -2.3500   -3.3840 ha        1 ASG      0.099333
     29 H8C         2.4150   -1.7960   -3.9270 ha        1 ASG      0.099333
     30 HO1        -2.4220    2.3750   -2.2260 ho        1 ASG      0.227000
     31 HN         -0.0640   -1.0600   -1.4370 hn        1 ASG      0.226000
     32 HO3         1.1400    2.8190    0.6490 ho        1 ASG      0.256000
     33 HO6        -3.2090   -0.2570    3.4420 ho        1 ASG      0.236000
@<TRIPOS>BOND
     1    1    2 1   
     2    1    9 1   
     3    1   13 1   
     4    1   20 1   
     5    2    3 1   
     6    2   10 1   
     7    2   21 1   
     8    3    4 1   
     9    3   11 1   
    10    3   22 1   
    11    4    5 1   
    12    4   12 1   
    13    4   23 1   
    14    5    6 1   
    15    5   13 1   
    16    5   24 1   
    17    6   14 1   
    18    6   25 1   
    19    6   26 1   
    20    7   10 1   
    21    7   15 1   
    22    8   27 1   
    23    8   28 1   
    24    8   29 1   
    25    9   30 1   
    26   10   31 1   
    27   11   32 1   
    28   12   19 1   
    29   14   33 1   
    30   16   19 1   
    31   17   19 1   
    32   18   19 1   
@<TRIPOS>SUBSTRUCTURE
     1 ASG         1 TEMP              0 ****  ****    0 ROOT
