@<TRIPOS>MOLECULE
ASH
   48    52     1     0     0
SMALL
bcc


@<TRIPOS>ATOM
      1 C10        -1.1110   -3.1090    0.7670 ca        1 ASH     -0.053000
      2 C11        -1.0070   -4.5000    0.7570 ca        1 ASH     -0.252300
      3 C12        -1.9940   -5.2480    0.0910 ca        1 ASH      0.401200
      4 C14        -3.1330   -3.3480   -0.5330 ca        1 ASH      0.405200
      5 C16        -1.3930    1.0700   -0.0420 cc        1 ASH      0.726200
      6 C19         1.9160    2.2870    0.6520 ca        1 ASH     -0.113500
      7 C21         3.7890    0.8920   -0.0530 ca        1 ASH      0.125600
      8 C24         7.0170   -1.0720   -0.1850 c3        1 ASH      0.123900
      9 C02        -4.9680    1.6480    0.3170 cc        1 ASH     -0.092700
     10 C03        -4.4790    2.9860    0.2570 cd        1 ASH      0.028600
     11 N04        -3.1120    3.0030    0.1170 nd        1 ASH     -0.264600
     12 C05        -2.7250    1.6900    0.0860 cc        1 ASH     -0.188600
     13 N06        -3.8490    0.8230    0.2070 na        1 ASH      0.060700
     14 C07        -3.6740   -0.5450    0.2170 cc        1 ASH     -0.235600
     15 C08        -2.3810   -1.0510    0.1040 cd        1 ASH      0.477800
     16 C09        -2.1990   -2.5080    0.1180 ca        1 ASH     -0.256800
     17 N13        -3.0420   -4.6890   -0.5480 nb        1 ASH     -0.665000
     18 N15        -1.2490   -0.2650   -0.0150 nd        1 ASH     -0.731000
     19 C18         1.0250    1.5480   -0.1580 ca        1 ASH      0.101600
     20 C20         3.2640    1.9690    0.7000 ca        1 ASH     -0.154500
     21 N22         5.1540    0.5370    0.0950 nh        1 ASH     -0.629000
     22 C23         5.5660   -0.7110   -0.5290 c3        1 ASH      0.147800
     23 O25         7.9090   -0.0050   -0.4830 os        1 ASH     -0.413600
     24 C26         7.5440    1.1990    0.1820 c3        1 ASH      0.123900
     25 C27         6.1050    1.6160   -0.1470 c3        1 ASH      0.147800
     26 C28         2.8930    0.1630   -0.8630 ca        1 ASH     -0.154500
     27 C29         1.5400    0.4810   -0.9160 ca        1 ASH     -0.113500
     28 H10        -0.3530   -2.4940    1.2760 ha        1 ASH      0.159000
     29 H11        -0.1700   -5.0060    1.2570 ha        1 ASH      0.147000
     30 H12        -1.9480   -6.3510    0.0610 h4        1 ASH      0.024100
     31 H14        -3.9940   -2.9200   -1.0790 h4        1 ASH      0.024100
     32 H24         7.1110   -1.3500    0.8980 h1        1 ASH      0.056450
     33 H24A        7.3650   -1.9180   -0.8340 h1        1 ASH      0.056450
     34 H03        -5.0720    3.9010    0.3110 h4        1 ASH      0.195000
     35 H07        -4.5730   -1.1710    0.3270 h4        1 ASH      0.184000
     36 H20         3.9210    2.5620    1.3560 ha        1 ASH      0.138000
     37 H23         5.4710   -0.6630   -1.6540 h1        1 ASH      0.047950
     38 H23A        4.8950   -1.5320   -0.1510 h1        1 ASH      0.047950
     39 H26         7.6770    1.0720    1.2880 h1        1 ASH      0.056450
     40 H26A        8.2630    1.9650   -0.2100 h1        1 ASH      0.056450
     41 H27         6.0680    1.9540   -1.2240 h1        1 ASH      0.047950
     42 H27A        5.8330    2.4920    0.5030 h1        1 ASH      0.047950
     43 H28         3.2460   -0.6790   -1.4790 ha        1 ASH      0.138000
     44 H29         0.8810   -0.1150   -1.5670 ha        1 ASH      0.145000
     45 N17        -0.3290    1.9430   -0.2470 nh        1 ASH     -0.711300
     46 CL         -6.5360    1.1030    0.4810 cl        1 ASH     -0.013400
     47 H19         1.5490    3.1310    1.2570 ha        1 ASH      0.145000
     48 HN17       -0.5080    2.8970   -0.0060 hn        1 ASH      0.455800
@<TRIPOS>BOND
     1    1    2 ar  
     2    1   16 ar  
     3    1   28 1   
     4    2    3 ar  
     5    2   29 1   
     6    3   17 ar  
     7    3   30 1   
     8    4   16 ar  
     9    4   17 ar  
    10    4   31 1   
    11    5   12 1   
    12    5   18 2   
    13    5   45 1   
    14    6   19 ar  
    15    6   20 ar  
    16    6   47 1   
    17    7   20 ar  
    18    7   21 1   
    19    7   26 ar  
    20    8   22 1   
    21    8   23 1   
    22    8   32 1   
    23    8   33 1   
    24    9   10 2   
    25    9   13 1   
    26    9   46 1   
    27   10   11 1   
    28   10   34 1   
    29   11   12 2   
    30   12   13 1   
    31   13   14 1   
    32   14   15 2   
    33   14   35 1   
    34   15   16 1   
    35   15   18 1   
    36   19   27 ar  
    37   19   45 1   
    38   20   36 1   
    39   21   22 1   
    40   21   25 1   
    41   22   37 1   
    42   22   38 1   
    43   23   24 1   
    44   24   25 1   
    45   24   39 1   
    46   24   40 1   
    47   25   41 1   
    48   25   42 1   
    49   26   27 ar  
    50   26   43 1   
    51   27   44 1   
    52   45   48 1   
@<TRIPOS>SUBSTRUCTURE
     1 ASH         1 TEMP              0 ****  ****    0 ROOT
