@<TRIPOS>MOLECULE
ASH
   48    48     1     0     0
SMALL
bcc


@<TRIPOS>ATOM
      1 C10        -0.5970   -0.2690   -0.9540 c2        1 ASH     -0.210000
      2 C11         1.5400    1.7660    1.8880 c1        1 ASH     -0.191000
      3 C12         1.3420    0.5860    1.8150 c1        1 ASH     -0.149000
      4 C14         0.1770   -1.4060    1.0840 c1        1 ASH     -0.040000
      5 C16        -4.2290   -0.0790   -0.0820 c2        1 ASH      0.146000
      6 C19        -5.9040   -0.5170   -3.4510 cx        1 ASH     -0.128000
      7 C21        -3.2920   -1.1730   -3.7090 c2        1 ASH      0.077000
      8 C24         0.0500   -1.5470   -8.5750 c2        1 ASH     -0.370000
      9 C02        -3.4880    1.3210    3.3720 c2        1 ASH     -0.288000
     10 C03        -2.5270    1.9900    4.0360 c1        1 ASH      0.330000
     11 N04        -5.0570    1.9680    1.0150 n2        1 ASH     -0.220000
     12 C05        -4.2820    0.9450    1.0750 c2        1 ASH      0.046000
     13 N06        -3.3560    0.6130    2.1490 n3        1 ASH     -0.126000
     14 C07        -2.3790   -0.2860    2.0500 c1        1 ASH     -0.051000
     15 C08        -2.2450   -1.0900    0.7810 c3        1 ASH     -0.047000
     16 C09        -0.8570   -0.8190    0.2370 c2        1 ASH     -0.108000
     17 N13         1.1120   -0.7580    1.7340 n3        1 ASH     -0.057000
     18 N15        -3.3060   -0.9980   -0.1920 n2        1 ASH     -0.247000
     19 C18        -5.3890   -0.9440   -2.0640 cx        1 ASH      0.132000
     20 C20        -4.5210   -0.9370   -3.2650 cu        1 ASH     -0.288000
     21 N22        -2.9000   -1.0810   -5.0340 n3        1 ASH     -0.281000
     22 C23        -0.4720   -1.1020   -4.6660 c2        1 ASH     -0.320000
     23 O25        -0.9280   -0.8740   -9.1460 os        1 ASH      0.117000
     24 C26        -1.2370    0.3510   -8.7650 c2        1 ASH     -0.370000
     25 C27        -1.5710   -1.0580   -5.4390 c2        1 ASH     -0.018000
     26 C28        -5.1630   -3.0970   -0.8080 c1        1 ASH      0.230000
     27 C29        -5.8460   -2.2710   -1.5710 c2        1 ASH     -0.496000
     28 H10        -1.3740    0.0340   -1.6670 ha        1 ASH      0.123500
     29 H11         0.4340   -0.1140   -1.3030 ha        1 ASH      0.123500
     30 H12         1.7180    2.8080    1.9530 ha        1 ASH      0.235000
     31 H14         1.7480   -1.3140    2.2790 hn        1 ASH      0.263000
     32 H24         0.1730   -2.5510   -8.9880 h4        1 ASH      0.155500
     33 H24A        0.5210   -1.1230   -5.1290 ha        1 ASH      0.123500
     34 H03        -5.0550    2.6120    1.7780 hn        1 ASH      0.171000
     35 H07        -2.2490   -2.1820    1.1230 h1        1 ASH      0.186000
     36 H20        -6.6200   -1.1900   -3.9600 hc        1 ASH      0.113500
     37 H23        -0.4810   -1.1290   -3.5710 ha        1 ASH      0.123500
     38 H23A       -3.5770   -0.7880   -5.7010 hn        1 ASH      0.227000
     39 H26        -1.4730   -1.0180   -6.5470 h4        1 ASH      0.137000
     40 H26A        0.6610   -1.1190   -7.7820 h4        1 ASH      0.155500
     41 H27        -2.0630    0.7770   -9.3390 h4        1 ASH      0.155500
     42 H27A       -0.6830    0.8710   -7.9870 h4        1 ASH      0.155500
     43 H28        -2.5030   -1.5010   -2.9990 h4        1 ASH      0.172000
     44 H29        -6.8540   -2.5670   -1.9200 ha        1 ASH      0.188000
     45 N17        -5.2260    0.0700   -1.0570 n3        1 ASH     -0.248000
     46 CL         -4.9990    1.2610    4.2050 cl        1 ASH      0.021000
     47 H19        -6.1240    0.5510   -3.6400 hc        1 ASH      0.113500
     48 HN17       -6.0830    0.4730   -0.7450 hn        1 ASH      0.233000
@<TRIPOS>BOND
     1    1   16 1   
     2    1   28 1   
     3    1   29 1   
     4    2    3 1   
     5    2   30 1   
     6    3   17 1   
     7    4   16 1   
     8    4   17 1   
     9    5   12 1   
    10    5   18 1   
    11    5   45 1   
    12    6   19 1   
    13    6   20 1   
    14    6   36 1   
    15    6   47 1   
    16    7   20 1   
    17    7   21 1   
    18    7   43 1   
    19    8   23 1   
    20    8   32 1   
    21    8   40 1   
    22    9   10 1   
    23    9   13 1   
    24    9   46 1   
    25   11   12 1   
    26   11   34 1   
    27   12   13 1   
    28   13   14 1   
    29   14   15 1   
    30   15   16 1   
    31   15   18 1   
    32   15   35 1   
    33   17   31 1   
    34   19   20 1   
    35   19   27 1   
    36   19   45 1   
    37   21   25 1   
    38   21   38 1   
    39   22   25 1   
    40   22   33 1   
    41   22   37 1   
    42   23   24 1   
    43   24   41 1   
    44   24   42 1   
    45   25   39 1   
    46   26   27 1   
    47   27   44 1   
    48   45   48 1   
@<TRIPOS>SUBSTRUCTURE
     1 ASH         1 TEMP              0 ****  ****    0 ROOT
