@<TRIPOS>MOLECULE
ASH
   48    42     1     0     0
SMALL
bcc


@<TRIPOS>ATOM
      1 C10         5.5970    0.6490    1.1050 c1        1 ASH     -0.134000
      2 C11         6.7400    1.3340    0.7890 c1        1 ASH     -0.134000
      3 C12         7.1690    1.3980   -0.5320 c1        1 ASH     -0.062000
      4 C14         5.3090    0.0940   -1.2020 c1        1 ASH     -0.030000
      5 C16         1.4250   -1.1760    0.2110 c1        1 ASH      0.180000
      6 C19        -1.9610   -1.0390   -0.9250 c1        1 ASH     -0.044000
      7 C21        -3.2600    0.8820   -0.2650 c1        1 ASH      0.051000
      8 C24        -5.7290    1.7680   -1.6160 c3        1 ASH     -0.057500
      9 CL          4.1710   -5.2280    1.8700 cl        1 ASH      0.066000
     10 C02         2.8750   -4.1830    1.3430 c2        1 ASH     -0.152000
     11 C03         1.5720   -4.6050    1.2550 c1        1 ASH     -0.115000
     12 N04         0.8310   -3.5740    0.8260 n2        1 ASH     -0.102000
     13 C05         1.6690   -2.4940    0.6410 c1        1 ASH     -0.069000
     14 N06         2.9200   -2.8770    0.9610 n2        1 ASH     -0.027000
     15 C07         3.9500   -1.9880    0.8680 c1        1 ASH     -0.130000
     16 C08         3.7080   -0.6810    0.4420 c1        1 ASH      0.032000
     17 C09         4.8780    0.0290    0.1190 c1        1 ASH     -0.083000
     18 N13         6.4510    0.7780   -1.5150 n1        1 ASH     -0.141000
     19 N15         2.4480   -0.2950    0.1200 n2        1 ASH     -0.207000
     20 N17         0.4850   -0.9660   -0.8510 n2        1 ASH     -0.210000
     21 C18        -0.7910   -0.3700   -0.5730 c2        1 ASH     -0.024000
     22 C20        -3.1950   -0.4130   -0.7710 c1        1 ASH     -0.181000
     23 N22        -3.9210    2.1410   -0.0130 n3        1 ASH     -0.224000
     24 C23        -4.5280    2.6070   -1.2110 c3        1 ASH     -0.093500
     25 O25        -6.6610    1.6100   -0.5570 os        1 ASH     -0.268000
     26 C26        -6.0560    1.1440    0.6400 c3        1 ASH     -0.057500
     27 C27        -4.8540    1.9830    1.0470 c3        1 ASH     -0.093500
     28 C28        -2.0910    1.5510    0.0870 c1        1 ASH     -0.149000
     29 C29        -0.8570    0.9250   -0.0660 c2        1 ASH     -0.123000
     30 H10         5.2940    0.6030    2.0370 ha        1 ASH      0.143000
     31 H11         7.2570    1.7790    1.4960 ha        1 ASH      0.143000
     32 H12         7.9880    1.8890   -0.7580 ha        1 ASH      0.161000
     33 H14         4.7950   -0.3490   -1.9080 ha        1 ASH      0.178000
     34 H19        -1.9150   -1.9530   -1.2820 ha        1 ASH      0.153000
     35 H24        -5.4170    0.8820   -1.8990 h1        1 ASH      0.094000
     36 H24A       -6.1810    2.2040   -2.3750 h1        1 ASH      0.094000
     37 H03         1.2430   -5.5060    1.4640 DU        1 ASH      0.194000
     38 H07         4.8600   -2.2630    1.1120 ha        1 ASH      0.181000
     39 HN17        0.7060   -1.1940   -1.7110 hn        1 ASH      0.218000
     40 H20        -4.0180   -0.8850   -1.0190 ha        1 ASH      0.135000
     41 H23        -4.8200    3.5390   -1.0790 h1        1 ASH      0.106000
     42 H23A       -3.8620    2.5820   -1.9360 h1        1 ASH      0.106000
     43 H26        -6.7220    1.1700    1.3650 h1        1 ASH      0.094000
     44 H26A       -5.7650    0.2160    0.5080 h1        1 ASH      0.094000
     45 H27        -5.1670    2.8710    1.3290 h1        1 ASH      0.106000
     46 H27A       -4.4040    1.5480    1.8050 h1        1 ASH      0.106000
     47 H28        -2.1360    2.4650    0.4440 ha        1 ASH      0.141000
     48 H29        -0.0340    1.3970    0.1820 ha        1 ASH      0.136000
@<TRIPOS>BOND
     1    1    2 1   
     2    1   30 1   
     3    2   31 1   
     4    3   18 1   
     5    3   32 1   
     6    4   17 1   
     7    4   33 1   
     8    5   13 1   
     9    5   19 1   
    10    6   21 1   
    11    6   34 1   
    12    7   22 1   
    13    7   23 1   
    14    8   24 1   
    15    8   25 1   
    16    8   35 1   
    17    8   36 1   
    18    9   10 1   
    19   10   11 1   
    20   10   14 1   
    21   11   12 1   
    22   12   13 1   
    23   14   15 1   
    24   15   38 1   
    25   16   19 1   
    26   20   21 1   
    27   20   39 1   
    28   21   29 1   
    29   22   40 1   
    30   23   24 1   
    31   23   27 1   
    32   24   41 1   
    33   24   42 1   
    34   25   26 1   
    35   26   27 1   
    36   26   43 1   
    37   26   44 1   
    38   27   45 1   
    39   27   46 1   
    40   28   29 1   
    41   28   47 1   
    42   29   48 1   
@<TRIPOS>SUBSTRUCTURE
     1 ASH         1 TEMP              0 ****  ****    0 ROOT
