@<TRIPOS>MOLECULE
ASH
   48    46     1     0     0
SMALL
bcc


@<TRIPOS>ATOM
      1 C10         0.7230    1.2450    0.2220 c3        1 ASH     -0.170000
      2 C11         1.9380    1.9760    0.4710 c1        1 ASH     -0.057000
      3 C12        -0.1320    3.0670    6.5430 c1        1 ASH      0.075000
      4 C14        -0.2260    1.4850    2.5490 c1        1 ASH      0.210000
      5 C16        -3.0530   -0.3130   -0.3120 c2        1 ASH      0.143000
      6 C19        -5.0320   -1.3730   -3.3710 c3        1 ASH      0.007000
      7 C21        -3.1140   -1.1970   -5.1580 c1        1 ASH     -0.040000
      8 C24        -0.8720   -2.2260   -8.8340 c2        1 ASH     -0.232000
      9 C02        -4.5320    0.0730    3.0520 c2        1 ASH     -0.172000
     10 C03        -5.7350   -0.0070    2.2970 c1        1 ASH     -0.108000
     11 N04        -5.3200   -0.1740    0.9660 n7        1 ASH     -0.060000
     12 C05        -3.9660   -0.2100    0.8560 c2        1 ASH     -0.071000
     13 N06        -3.4100   -0.0570    2.1630 n3        1 ASH     -0.071000
     14 C07        -2.0910   -0.0360    2.3660 c1        1 ASH      0.020000
     15 C08        -1.1850   -0.2190    1.1570 c3        1 ASH     -0.054000
     16 C09        -0.1870    0.9160    1.3490 c2        1 ASH     -0.406000
     17 N13        -0.2260    2.6100    5.4630 n2        1 ASH     -0.385000
     18 N15        -1.7510   -0.3190   -0.1650 n2        1 ASH     -0.196000
     19 C18        -4.5130   -1.3950   -1.9460 c2        1 ASH      0.043000
     20 C20        -3.9810   -1.2700   -4.3350 c1        1 ASH     -0.178000
     21 N22        -2.1230   -1.0960   -6.0830 n7        1 ASH     -0.092000
     22 C23        -1.6350   -3.2990   -8.6670 c2        1 ASH     -0.232000
     23 O25        -2.1970    0.9030   -8.5890 o         1 ASH     -0.315000
     24 C26        -2.2150    1.9960   -8.0230 c2        1 ASH      0.142000
     25 C27        -1.3010   -0.0660   -6.1170 c1        1 ASH     -0.122000
     26 C28        -5.3210   -3.3290   -0.3870 c2        1 ASH     -0.103000
     27 C29        -4.9060   -2.3560   -1.1340 c1        1 ASH     -0.268000
     28 H10         0.1490    1.8270   -0.5660 hc        1 ASH      0.168500
     29 H11         1.0380    0.2860   -0.2970 hc        1 ASH      0.168500
     30 H12         2.1710    2.2740    1.5040 ha        1 ASH      0.051000
     31 H14        -0.3070    2.2270    4.5680 hn        1 ASH      0.298000
     32 H24         0.2210   -2.2550   -8.7270 ha        1 ASH      0.118000
     33 H24A       -1.2250   -4.2860   -8.4120 ha        1 ASH      0.118000
     34 H03        -5.9360   -0.2670    0.1910 hn        1 ASH      0.282000
     35 H07        -0.6150   -1.1930    1.3220 h1        1 ASH      0.176000
     36 H20        -5.6210   -2.3150   -3.5550 hc        1 ASH      0.125000
     37 H23        -2.7260   -3.2750   -8.7910 ha        1 ASH      0.118000
     38 H23A       -2.1050   -1.8750   -6.7310 hn        1 ASH      0.206000
     39 H26        -1.2810   -1.2380   -9.0990 ha        1 ASH      0.118000
     40 H26A       -0.5460   -0.1420   -6.9340 ha        1 ASH      0.053000
     41 H27        -2.5410    2.9200   -8.5470 h4        1 ASH      0.088000
     42 H27A       -1.9070    2.1130   -6.9600 h4        1 ASH      0.088000
     43 H28        -4.7860   -4.2910   -0.3260 ha        1 ASH      0.139000
     44 H29        -6.2290   -3.2550    0.2340 ha        1 ASH      0.139000
     45 N17        -3.6880   -0.3010   -1.5830 n7        1 ASH     -0.226000
     46 Cl         -4.3500    0.2750    4.6910 cl        1 ASH      0.103000
     47 H19        -5.7370   -0.4990   -3.4860 hc        1 ASH      0.125000
     48 HN17       -3.0720   -0.0320   -2.3360 hn        1 ASH      0.239000
@<TRIPOS>BOND
     1    1    2 1   
     2    1   16 1   
     3    1   28 1   
     4    1   29 1   
     5    2   30 1   
     6    3   17 1   
     7    4   16 1   
     8    5   12 1   
     9    5   18 1   
    10    5   45 1   
    11    6   19 1   
    12    6   20 1   
    13    6   36 1   
    14    6   47 1   
    15    7   20 1   
    16    7   21 1   
    17    8   22 1   
    18    8   32 1   
    19    8   39 1   
    20    9   10 1   
    21    9   13 1   
    22    9   46 1   
    23   10   11 1   
    24   11   12 1   
    25   11   34 1   
    26   12   13 1   
    27   13   14 1   
    28   14   15 1   
    29   15   16 1   
    30   15   18 1   
    31   15   35 1   
    32   17   31 1   
    33   19   27 1   
    34   19   45 1   
    35   21   25 1   
    36   21   38 1   
    37   22   33 1   
    38   22   37 1   
    39   23   24 1   
    40   24   41 1   
    41   24   42 1   
    42   25   40 1   
    43   26   27 1   
    44   26   43 1   
    45   26   44 1   
    46   45   48 1   
@<TRIPOS>SUBSTRUCTURE
     1 ASH         1 TEMP              0 ****  ****    0 ROOT
