@<TRIPOS>MOLECULE
ASH
   49    49     1     0     0
SMALL
bcc


@<TRIPOS>ATOM
      1 C10        -0.4290   -2.4080    3.6750 c3        1 ASH     -0.165000
      2 C11         0.6840    0.1390    1.4070 c1        1 ASH     -0.253000
      3 C12         1.4990    0.9890    0.8860 c1        1 ASH      0.166000
      4 C14        -0.0920   -0.6770    1.9620 c1        1 ASH      0.068000
      5 C16        -3.3240   -0.7960    0.2230 c2        1 ASH      0.095000
      6 C19        -4.2310   -2.2530   -3.1920 c2        1 ASH     -0.089000
      7 C21        -2.5290   -1.1210   -4.8190 c2        1 ASH      0.096000
      8 C24        -1.1990    1.1850   -9.4600 c2        1 ASH     -0.064000
      9 C02        -4.4020    1.2280    3.1270 c2        1 ASH     -0.013000
     10 C03        -5.3790    2.0810   -0.2260 c1        1 ASH      0.152000
     11 N04        -4.7310    1.2410    0.3050 n2        1 ASH     -0.288000
     12 C05        -3.9850    0.2850    0.9430 c2        1 ASH     -0.264000
     13 N06        -3.8330    0.2880    2.3560 n3        1 ASH      0.026000
     14 C07        -3.0820   -0.7110    2.9910 c1        1 ASH      0.111000
     15 C08        -2.3370   -1.7080    2.1620 c3        1 ASH     -0.065000
     16 C09        -0.8820   -1.5390    2.5650 c2        1 ASH     -0.108000
     17 N13         2.2100    1.9220    0.5320 n2        1 ASH     -0.163000
     18 N15        -2.5600   -1.7280    0.7370 n2        1 ASH     -0.229000
     19 C18        -4.3520   -2.0510   -1.6980 c3        1 ASH      0.110000
     20 C20        -3.3800   -1.6290   -3.9430 c1        1 ASH     -0.371000
     21 N22        -2.6850    0.0810   -5.4790 n3        1 ASH     -0.289000
     22 C23        -0.1050    1.6180  -10.0910 c2        1 ASH     -0.244000
     23 O25        -1.1600   -0.0760   -8.8700 os        1 ASH     -0.215000
     24 C26        -2.1870   -0.3120   -7.9160 c3        1 ASH     -0.053000
     25 C27        -1.8240    0.3860   -6.5950 c3        1 ASH     -0.089000
     26 C28        -6.8880   -1.8350   -1.0110 c1        1 ASH     -0.057000
     27 C29        -5.7310   -1.9020   -1.3100 c1        1 ASH     -0.274000
     28 H10        -1.0980   -2.2780    4.5630 hc        1 ASH      0.100667
     29 H11        -0.4590   -3.4810    3.3580 hc        1 ASH      0.100667
     30 H12         0.6180   -2.1580    3.9790 hc        1 ASH      0.100667
     31 H14         2.8660    1.8770   -0.2160 hn        1 ASH      0.239000
     32 H24A       -0.1030    2.5780  -10.6220 ha        1 ASH      0.135500
     33 H03        -5.0060    2.0410    2.6750 h5        1 ASH      0.216000
     34 H07        -2.6680   -2.7370    2.5430 h1        1 ASH      0.198000
     35 H20        -4.9360   -3.0130   -3.5750 ha        1 ASH      0.174000
     36 H23         0.8250    1.0390  -10.1300 ha        1 ASH      0.135500
     37 H23A       -3.6200    0.4210   -5.5660 hn        1 ASH      0.214000
     38 H26        -0.7620    0.1150   -6.3300 h1        1 ASH      0.116500
     39 H26A       -1.8640    1.5020   -6.7530 h1        1 ASH      0.116500
     40 H27        -3.1830    0.0340   -8.2960 h1        1 ASH      0.100000
     41 H27A       -2.1910   -1.4290   -7.8010 h1        1 ASH      0.100000
     42 H28        -1.5520   -1.6320   -4.9800 h4        1 ASH      0.172000
     43 H29        -7.9180   -1.7780   -0.7460 ha        1 ASH      0.250000
     44 CL         -4.2750    1.3030    4.7860 cl        1 ASH      0.157000
     45 H19        -3.9090   -2.9660   -1.1830 hx        1 ASH      0.179000
     46 N17        -3.5220   -0.8540   -1.2520 n4        1 ASH      0.003000
     47 H24        -2.1550    1.7230   -9.3990 h4        1 ASH      0.131000
     48 HN17       -2.6030   -0.9340   -1.7140 hn        1 ASH      0.264500
     49 H172       -3.9730    0.0030   -1.5870 hn        1 ASH      0.264500
@<TRIPOS>BOND
     1    1   16 1   
     2    1   28 1   
     3    1   29 1   
     4    1   30 1   
     5    2    3 1   
     6    2    4 1   
     7    3   17 1   
     8    4   16 1   
     9    5   12 1   
    10    5   18 1   
    11    5   46 1   
    12    6   19 1   
    13    6   20 1   
    14    6   35 1   
    15    7   20 1   
    16    7   21 1   
    17    7   42 1   
    18    8   22 1   
    19    8   23 1   
    20    8   47 1   
    21    9   13 1   
    22    9   33 1   
    23    9   44 1   
    24   10   11 1   
    25   11   12 1   
    26   12   13 1   
    27   13   14 1   
    28   14   15 1   
    29   15   16 1   
    30   15   18 1   
    31   15   34 1   
    32   17   31 1   
    33   19   27 1   
    34   19   45 1   
    35   19   46 1   
    36   21   25 1   
    37   21   37 1   
    38   22   32 1   
    39   22   36 1   
    40   23   24 1   
    41   24   25 1   
    42   24   40 1   
    43   24   41 1   
    44   25   38 1   
    45   25   39 1   
    46   26   27 1   
    47   26   43 1   
    48   46   48 1   
    49   46   49 1   
@<TRIPOS>SUBSTRUCTURE
     1 ASH         1 TEMP              0 ****  ****    0 ROOT
