@<TRIPOS>MOLECULE
ASI
   14    13     1     0     0
SMALL
bcc


@<TRIPOS>ATOM
      1 N          -1.7990   -0.5050   -0.1390 n3        1 ASI     -0.904800
      2 CA         -0.3790   -0.4650   -0.0560 c3        1 ASI      0.077500
      3 C1          0.0470   -0.6590    1.3810 c         1 ASI      0.909600
      4 O1          0.8570   -1.5760    1.6800 o         1 ASI     -0.881300
      5 O2         -0.4080    0.0960    2.2800 o         1 ASI     -0.881300
      6 C2          0.1180    0.8730   -0.5520 c3        1 ASI     -0.154400
      7 C           1.6300    0.8620   -0.6050 c         1 ASI      0.896600
      8 O           2.2950    1.4600    0.2800 o         1 ASI     -0.893800
      9 OXT         2.2220    0.2540   -1.5350 o         1 ASI     -0.893800
     10 H          -2.1080   -1.2560    0.2830 hn        1 ASI      0.331300
     11 H2         -2.0530   -0.5230   -1.0190 hn        1 ASI      0.331300
     12 HA         -0.0000   -1.1780   -0.6070 h1        1 ASI     -0.007300
     13 H21        -0.1820    1.5780    0.0560 hc        1 ASI      0.035200
     14 H22        -0.2390    1.0410   -1.4480 hc        1 ASI      0.035200
@<TRIPOS>BOND
     1    1    2 1   
     2    1   10 1   
     3    1   11 1   
     4    2    3 1   
     5    2    6 1   
     6    2   12 1   
     7    3    4 1   
     8    3    5 1   
     9    6    7 1   
    10    6   13 1   
    11    6   14 1   
    12    7    8 1   
    13    7    9 1   
@<TRIPOS>SUBSTRUCTURE
     1 ASI         1 TEMP              0 ****  ****    0 ROOT
