@<TRIPOS>MOLECULE
ASI
   14    13     1     0     0
SMALL
bcc


@<TRIPOS>ATOM
      1 N           0.5690    1.6890   -0.2590 n3        1 ASI     -0.918800
      2 CA          0.6030    0.3670    0.3460 c3        1 ASI      0.067500
      3 C1          2.0010   -0.3030    0.1960 c         1 ASI      0.909600
      4 O1          2.5880   -0.2750   -0.9290 o         1 ASI     -0.879300
      5 O2          2.5130   -0.8620    1.2130 o         1 ASI     -0.879300
      6 C2         -0.4520   -0.6170   -0.1800 c3        1 ASI     -0.195400
      7 C          -1.8890   -0.1020   -0.1300 c         1 ASI      0.899600
      8 O          -2.7340   -0.7000    0.6070 o         1 ASI     -0.887800
      9 OXT        -2.2350    0.8810   -0.8610 o         1 ASI     -0.887800
     10 H           1.0830    1.6540   -1.1210 hn        1 ASI      0.340800
     11 H2         -0.3860    1.9200   -0.4820 hn        1 ASI      0.340800
     12 HA          0.4130    0.5160    1.4490 h1        1 ASI      0.034700
     13 H21        -0.2100   -0.8690   -1.2450 hc        1 ASI      0.027700
     14 H22        -0.3790   -1.5560    0.4240 hc        1 ASI      0.027700
@<TRIPOS>BOND
     1    1    2 1   
     2    1   10 1   
     3    1   11 1   
     4    2    3 1   
     5    2    6 1   
     6    2   12 1   
     7    3    4 1   
     8    3    5 1   
     9    6    7 1   
    10    6   13 1   
    11    6   14 1   
    12    7    8 1   
    13    7    9 1   
@<TRIPOS>SUBSTRUCTURE
     1 ASI         1 TEMP              0 ****  ****    0 ROOT
