@<TRIPOS>MOLECULE
ASJ
   16    15     1     0     0
SMALL
bcc


@<TRIPOS>ATOM
      1 C          -1.4330   -0.0330   -0.4310 c3        1 ASJ      0.133400
      2 N           0.5320    1.1980   -1.0390 n3        1 ASJ     -0.913800
      3 O          -1.7820   -0.4700   -1.7260 oh        1 ASJ     -0.630800
      4 CA          0.0720    0.0600   -0.3190 c3        1 ASJ      0.136500
      5 CB          0.4620    0.1910    1.1350 c3        1 ASJ     -0.229400
      6 CG          1.5600   -0.7990    1.4540 c         1 ASJ      0.907600
      7 OD1         2.7470   -0.4010    1.5900 o         1 ASJ     -0.849300
      8 OD2         1.2870   -2.0220    1.5830 o         1 ASJ     -0.849300
      9 H          -1.7710   -0.6710    0.2310 h1        1 ASJ      0.027200
     10 HA         -1.8270    0.8490   -0.2670 h1        1 ASJ      0.027200
     11 HN          0.4500    1.0440   -1.9380 hn        1 ASJ      0.357300
     12 HNA         1.4110    1.3530   -0.8340 hn        1 ASJ      0.357300
     13 HO         -2.6510   -0.6580   -1.7510 ho        1 ASJ      0.412000
     14 HAA         0.4770   -0.7480   -0.6940 h1        1 ASJ      0.057700
     15 HB          0.7820    1.0990    1.3050 hc        1 ASJ      0.028700
     16 HBA        -0.3160    0.0090    1.6990 hc        1 ASJ      0.028700
@<TRIPOS>BOND
     1    1    3 1   
     2    1    4 1   
     3    1    9 1   
     4    1   10 1   
     5    2    4 1   
     6    2   11 1   
     7    2   12 1   
     8    3   13 1   
     9    4    5 1   
    10    4   14 1   
    11    5    6 1   
    12    5   15 1   
    13    5   16 1   
    14    6    7 1   
    15    6    8 1   
@<TRIPOS>SUBSTRUCTURE
     1 ASJ         1 TEMP              0 ****  ****    0 ROOT
