@<TRIPOS>MOLECULE
ASJ
   16    15     1     0     0
SMALL
bcc


@<TRIPOS>ATOM
      1 C          -2.0370   -0.9580    0.1140 c3        1 ASJ      0.133400
      2 N          -0.9650    1.2330    0.5410 n3        1 ASJ     -0.913800
      3 O          -3.2280   -0.4550   -0.4630 oh        1 ASJ     -0.630800
      4 CA         -0.8120   -0.0530   -0.1260 c3        1 ASJ      0.136500
      5 CB          0.4440   -0.8390    0.2540 c3        1 ASJ     -0.229400
      6 CG          1.7290   -0.0250    0.0310 c         1 ASJ      0.907600
      7 OD1         2.6120   -0.5120   -0.7290 o         1 ASJ     -0.849300
      8 OD2         1.8540    1.0850    0.6320 o         1 ASJ     -0.849300
      9 H          -2.2030   -1.1200    1.2140 h1        1 ASJ      0.027200
     10 HA         -1.8740   -1.9510   -0.3830 h1        1 ASJ      0.027200
     11 HN         -0.8840    1.0950    1.5320 hn        1 ASJ      0.357300
     12 HNA        -0.1870    1.8170    0.2700 hn        1 ASJ      0.357300
     13 HO         -3.2470    0.4960   -0.3050 ho        1 ASJ      0.412000
     14 HAA        -0.7680    0.1630   -1.2350 h1        1 ASJ      0.057700
     15 HB          0.3990   -1.1300    1.3340 hc        1 ASJ      0.028700
     16 HBA         0.4930   -1.7730   -0.3590 hc        1 ASJ      0.028700
@<TRIPOS>BOND
     1    1    3 1   
     2    1    4 1   
     3    1    9 1   
     4    1   10 1   
     5    2    4 1   
     6    2   11 1   
     7    2   12 1   
     8    3   13 1   
     9    4    5 1   
    10    4   14 1   
    11    5    6 1   
    12    5   15 1   
    13    5   16 1   
    14    6    7 1   
    15    6    8 1   
@<TRIPOS>SUBSTRUCTURE
     1 ASJ         1 TEMP              0 ****  ****    0 ROOT
