@<TRIPOS>MOLECULE
ASK
   17    16     1     0     0
SMALL
bcc


@<TRIPOS>ATOM
      1 N          -1.5910    0.6650    0.1210 n3        1 ASK     -0.905800
      2 CA         -0.2400    0.2300    0.0270 c3        1 ASK      0.090500
      3 CB          0.3150    0.0080    1.4160 c3        1 ASK     -0.232400
      4 CG          0.7920    1.3260    1.9850 c         1 ASK      0.910600
      5 OD1         0.0710    1.9570    2.8020 o         1 ASK     -0.843800
      6 OD2         1.9090    1.7930    1.6410 o         1 ASK     -0.843800
      7 C          -0.1790   -1.0640   -0.7520 c         1 ASK      0.573100
      8 O          -0.6680   -2.0750   -0.2890 o         1 ASK     -0.569100
      9 CM          0.4900   -1.0990   -2.1080 c3        1 ASK     -0.205100
     10 H          -1.6560    1.5270   -0.1810 hn        1 ASK      0.364800
     11 H2         -2.1220    0.1220   -0.3910 hn        1 ASK      0.364800
     12 HA          0.2910    0.9110   -0.4300 h1        1 ASK      0.064700
     13 HB2         1.0650   -0.6180    1.3710 hc        1 ASK      0.034200
     14 HB3        -0.3840   -0.3620    1.9910 hc        1 ASK      0.034200
     15 HM1         0.4990   -2.0200   -2.4440 hc        1 ASK      0.054367
     16 HM2        -0.0050   -0.5280   -2.7320 hc        1 ASK      0.054367
     17 HM3         1.4110   -0.7730   -2.0260 hc        1 ASK      0.054367
@<TRIPOS>BOND
     1    1    2 1   
     2    1   10 1   
     3    1   11 1   
     4    2    3 1   
     5    2    7 1   
     6    2   12 1   
     7    3    4 1   
     8    3   13 1   
     9    3   14 1   
    10    4    5 1   
    11    4    6 1   
    12    7    8 2   
    13    7    9 1   
    14    9   15 1   
    15    9   16 1   
    16    9   17 1   
@<TRIPOS>SUBSTRUCTURE
     1 ASK         1 TEMP              0 ****  ****    0 ROOT
