@<TRIPOS>MOLECULE
ASK
   17    16     1     0     0
SMALL
bcc


@<TRIPOS>ATOM
      1 N           0.4650    1.7090    0.2670 n3        1 ASK     -0.905800
      2 CA          0.5410    0.2590    0.2890 c3        1 ASK      0.090500
      3 CB         -0.5220   -0.4750   -0.5390 c3        1 ASK     -0.232400
      4 CG         -1.9350   -0.1830   -0.0020 c         1 ASK      0.910600
      5 OD1        -2.3360    1.0180    0.0030 o         1 ASK     -0.843800
      6 OD2        -2.6260   -1.1620    0.3950 o         1 ASK     -0.843800
      7 C           1.9030   -0.2550   -0.1620 c         1 ASK      0.573100
      8 O           2.5530    0.2360   -1.0930 o         1 ASK     -0.569100
      9 CM          2.4020   -1.4460    0.5970 c3        1 ASK     -0.205100
     10 H           0.6650    2.0350   -0.6610 hn        1 ASK      0.364800
     11 H2         -0.4840    1.9740    0.4910 hn        1 ASK      0.364800
     12 HA          0.3990   -0.0460    1.3710 h1        1 ASK      0.064700
     13 HB2        -0.4700   -0.1480   -1.6070 hc        1 ASK      0.034200
     14 HB3        -0.3340   -1.5770   -0.4950 hc        1 ASK      0.034200
     15 HM1         1.6030   -2.2270    0.6350 hc        1 ASK      0.054367
     16 HM2         3.3150   -1.8750    0.1190 hc        1 ASK      0.054367
     17 HM3         2.6490   -1.1380    1.6420 hc        1 ASK      0.054367
@<TRIPOS>BOND
     1    1    2 1   
     2    1   10 1   
     3    1   11 1   
     4    2    3 1   
     5    2    7 1   
     6    2   12 1   
     7    3    4 1   
     8    3   13 1   
     9    3   14 1   
    10    4    5 1   
    11    4    6 1   
    12    7    8 2   
    13    7    9 1   
    14    9   15 1   
    15    9   16 1   
    16    9   17 1   
@<TRIPOS>SUBSTRUCTURE
     1 ASK         1 TEMP              0 ****  ****    0 ROOT
