@<TRIPOS>MOLECULE
ASL
   23    22     1     0     0
SMALL
bcc


@<TRIPOS>ATOM
      1 N           2.3360   -0.3770   -1.8280 n3        1 ASL     -0.887800
      2 CA          2.4240    0.2470   -0.5150 c3        1 ASL      0.032500
      3 C           3.7330   -0.0910    0.2720 c         1 ASL      0.885600
      4 O           4.6490   -0.7260   -0.3320 o         1 ASL     -0.854300
      5 CB          1.2220   -0.0530    0.3820 c3        1 ASL     -0.118400
      6 CG         -0.0270    0.6580   -0.0450 c         1 ASL      0.634100
      7 OD1        -1.1520   -0.0870    0.1610 os        1 ASL     -0.414900
      8 OD2        -0.1390    1.8060   -0.4940 o         1 ASL     -0.598000
      9 C3         -2.7910    1.5080    0.9610 c3        1 ASL     -0.103100
     10 C2         -2.4260    0.5170   -0.1260 c3        1 ASL      0.029100
     11 C1         -3.4850   -0.6240   -0.1890 c         1 ASL      0.923600
     12 O1         -3.8240   -1.2090    0.8750 o         1 ASL     -0.842800
     13 O2         -4.0060   -0.8500   -1.3190 o         1 ASL     -0.842800
     14 H1          3.2750   -0.4580   -2.1850 hn        1 ASL      0.329800
     15 H2          1.9860   -1.3120   -1.7260 hn        1 ASL      0.329800
     16 H4          2.4470    1.3630   -0.6990 h1        1 ASL      0.061700
     17 H6          1.0240   -1.1550    0.4390 hc        1 ASL      0.079700
     18 H7          1.4760    0.3070    1.4180 hc        1 ASL      0.079700
     19 H8         -3.7590    1.9980    0.7020 hc        1 ASL      0.027033
     20 H9         -2.9100    0.9680    1.9310 hc        1 ASL      0.027033
     21 H10        -1.9990    2.2880    1.0650 hc        1 ASL      0.027033
     22 H11        -2.3630    1.0290   -1.1230 h1        1 ASL      0.047700
     23 OXT         3.8340    0.3110    1.4650 o         1 ASL     -0.854300
@<TRIPOS>BOND
     1    1    2 1   
     2    1   14 1   
     3    1   15 1   
     4    2    3 1   
     5    2    5 1   
     6    2   16 1   
     7    3    4 1   
     8    3   23 1   
     9    5    6 1   
    10    5   17 1   
    11    5   18 1   
    12    6    7 1   
    13    6    8 2   
    14    7   10 1   
    15    9   10 1   
    16    9   19 1   
    17    9   20 1   
    18    9   21 1   
    19   10   11 1   
    20   10   22 1   
    21   11   12 1   
    22   11   13 1   
@<TRIPOS>SUBSTRUCTURE
     1 ASL         1 TEMP              0 ****  ****    0 ROOT
