@<TRIPOS>MOLECULE
ASM
   22    18     1     0     0
SMALL
bcc


@<TRIPOS>ATOM
      1 N          -0.8830    1.9960   -2.5990 n3        1 ASM     -0.883800
      2 CA         -0.9080    0.6880   -2.0170 c3        1 ASM      0.015500
      3 CB         -0.3770    0.7620   -0.6180 c3        1 ASM     -0.133400
      4 CG          0.1430   -0.6240   -0.2020 c         1 ASM      0.691100
      5 OD1        -0.0970   -1.5480   -0.8580 o         1 ASM     -0.593100
      6 ND2         0.8510   -0.7970    1.0600 n         1 ASM     -0.259400
      7 CE1         1.2730   -1.9820    1.5690 c1        1 ASM     -0.102800
      8 CH1         1.8730   -1.7390    2.7400 cg        1 ASM     -0.217500
      9 CE2         1.2070    0.2130    1.9580 c1        1 ASM     -0.102800
     10 CH2         1.8260   -0.3520    2.9770 cg        1 ASM     -0.217500
     11 C          -2.2970    0.1960   -1.9850 c         1 ASM      0.888600
     12 O          -2.6060   -0.9760   -2.5370 o         1 ASM     -0.833800
     13 OXT        -3.1830    0.8570   -1.3640 o         1 ASM     -0.833800
     14 H          -1.5540    2.0910   -3.0930 hn        1 ASM      0.336300
     15 H2         -0.9000    2.6050   -1.9560 hn        1 ASM      0.336300
     16 HA         -0.3410    0.0710   -2.5600 h1        1 ASM      0.055700
     17 HB2        -1.0650    1.0270   -0.0390 hc        1 ASM      0.083700
     18 HB3         0.3420    1.4070   -0.5780 hc        1 ASM      0.083700
     19 HE1         1.2220   -2.8230    1.1350 DU        1 ASM      0.172000
     20 HH1         2.2760   -2.4140    3.3340 DU        1 ASM      0.172000
     21 HE2         1.0030    1.2210    1.8540 DU        1 ASM      0.172000
     22 HH2         2.1960    0.1210    3.7790 DU        1 ASM      0.172000
@<TRIPOS>BOND
     1    1    2 1   
     2    1   14 1   
     3    1   15 1   
     4    2    3 1   
     5    2   11 1   
     6    2   16 1   
     7    3    4 1   
     8    3   17 1   
     9    3   18 1   
    10    4    5 2   
    11    4    6 1   
    12    6    7 1   
    13    6    9 1   
    14    7    8 3   
    15    8   10 1   
    16    9   10 3   
    17   11   12 1   
    18   11   13 1   
@<TRIPOS>SUBSTRUCTURE
     1 ASM         1 TEMP              0 ****  ****    0 ROOT
