@<TRIPOS>MOLECULE
ASM
   22    22     1     0     0
SMALL
bcc


@<TRIPOS>ATOM
      1 N          -2.5920   -3.9960   -1.9530 n3        1 ASM     -0.892800
      2 CA         -2.4570   -4.7340   -3.1990 c3        1 ASM      0.014500
      3 CB         -1.0160   -4.7480   -3.7170 c3        1 ASM     -0.127400
      4 CG         -0.4770   -3.3540   -3.9140 c         1 ASM      0.589900
      5 OD1        -0.6510   -2.6990   -4.9540 o         1 ASM     -0.587100
      6 ND2         0.2960   -2.7580   -2.8860 n         1 ASM     -0.070200
      7 CE1         0.9340   -1.5090   -2.9900 cc        1 ASM     -0.124800
      8 CH1         1.6030   -1.2450   -1.7970 cd        1 ASM     -0.216000
      9 CE2         0.5620   -3.2710   -1.6080 cc        1 ASM     -0.124800
     10 CH2         1.3660   -2.3640   -0.9180 cd        1 ASM     -0.216000
     11 C          -2.9290   -6.2310   -3.1320 c         1 ASM      0.891600
     12 O          -2.7870   -6.9230   -4.1750 o         1 ASM     -0.830800
     13 OXT        -3.4210   -6.6390   -2.0450 o         1 ASM     -0.830800
     14 H          -3.5740   -3.9050   -1.7580 hn        1 ASM      0.337300
     15 H2         -2.2100   -4.5580   -1.2100 hn        1 ASM      0.337300
     16 HA         -3.0980   -4.2220   -3.9730 h1        1 ASM      0.055700
     17 HB2        -1.0350   -5.2610   -4.7190 hc        1 ASM      0.082700
     18 HB3        -0.3650   -5.3500   -3.0340 hc        1 ASM      0.082700
     19 HE1         0.8470   -0.9250   -3.9070 h4        1 ASM      0.176500
     20 HH1         2.1910   -0.3640   -1.5640 ha        1 ASM      0.138000
     21 HE2         0.1400   -4.2230   -1.2800 h4        1 ASM      0.176500
     22 HH2         1.7420   -2.4730    0.0930 ha        1 ASM      0.138000
@<TRIPOS>BOND
     1    1    2 1   
     2    1   14 1   
     3    1   15 1   
     4    2    3 1   
     5    2   11 1   
     6    2   16 1   
     7    3    4 1   
     8    3   17 1   
     9    3   18 1   
    10    4    5 2   
    11    4    6 1   
    12    6    7 1   
    13    6    9 1   
    14    7    8 2   
    15    7   19 1   
    16    8   10 1   
    17    8   20 1   
    18    9   10 2   
    19    9   21 1   
    20   10   22 1   
    21   11   12 1   
    22   11   13 1   
@<TRIPOS>SUBSTRUCTURE
     1 ASM         1 TEMP              0 ****  ****    0 ROOT
