@<TRIPOS>MOLECULE
ASN
   16    15     1     0     0
SMALL
bcc


@<TRIPOS>ATOM
      1 N           0.0700    1.1840    1.1660 n3        1 ASN     -0.905800
      2 CA         -0.2680    0.4050   -0.0180 c3        1 ASN      0.005500
      3 C          -1.8040    0.1520   -0.2180 c         1 ASN      0.893600
      4 O          -2.6010    0.7200    0.5790 o         1 ASN     -0.834800
      5 CB          0.4350   -0.9480   -0.0690 c3        1 ASN     -0.131400
      6 CG          1.9340   -0.9200    0.1130 c         1 ASN      0.655100
      7 OD1         2.5600   -1.9210    0.5370 o         1 ASN     -0.671100
      8 ND2         2.6540    0.1970   -0.2610 n         1 ASN     -0.652000
      9 OXT        -2.1430   -0.5850   -1.1830 o         1 ASN     -0.834800
     10 H          -0.6130    1.9210    1.2420 hn        1 ASN      0.338300
     11 H2         -0.0510    0.6040    1.9770 hn        1 ASN      0.338300
     12 HA          0.0510    1.0210   -0.9100 h1        1 ASN      0.040700
     13 HB2         0.0150   -1.6260    0.7210 hc        1 ASN      0.085200
     14 HB3         0.2030   -1.4120   -1.0660 hc        1 ASN      0.085200
     15 HD21        2.1780    1.0610   -0.3560 hn        1 ASN      0.294000
     16 HD22        3.6040    0.2420    0.0160 hn        1 ASN      0.294000
@<TRIPOS>BOND
     1    1    2 1   
     2    1   10 1   
     3    1   11 1   
     4    2    3 1   
     5    2    5 1   
     6    2   12 1   
     7    3    4 1   
     8    3    9 1   
     9    5    6 1   
    10    5   13 1   
    11    5   14 1   
    12    6    7 2   
    13    6    8 1   
    14    8   15 1   
    15    8   16 1   
@<TRIPOS>SUBSTRUCTURE
     1 ASN         1 TEMP              0 ****  ****    0 ROOT
