@<TRIPOS>MOLECULE
ASO
   23    23     1     0     0
SMALL
bcc


@<TRIPOS>ATOM
      1 C1          1.7430    0.1650   -0.3510 c3        1 ASO      0.099400
      2 C2          0.8410   -0.2770   -1.5060 c3        1 ASO      0.072100
      3 C3         -0.5870    0.2420   -1.2780 c3        1 ASO      0.109100
      4 C4         -1.0790   -0.1960    0.1120 c3        1 ASO      0.125100
      5 C5         -0.0720    0.2510    1.1830 c3        1 ASO      0.095100
      6 C6         -0.4530   -0.3070    2.5570 c3        1 ASO      0.140400
      7 O2          1.2720    0.2860   -2.7350 oh        1 ASO     -0.601800
      8 O3         -1.4890   -0.3170   -2.2180 oh        1 ASO     -0.607800
      9 O4         -2.3150    0.4240    0.4170 oh        1 ASO     -0.594800
     10 O5          1.2260   -0.2780    0.8940 os        1 ASO     -0.418600
     11 O6          0.3860    0.2060    3.5680 oh        1 ASO     -0.594800
     12 H11         1.8560    1.2810   -0.3540 h1        1 ASO      0.059700
     13 H12         2.7520   -0.3220   -0.4200 h1        1 ASO      0.059700
     14 H2          0.8260   -1.4000   -1.5820 h1        1 ASO      0.061700
     15 H3         -0.6030    1.3640   -1.3620 h1        1 ASO      0.065700
     16 H4         -1.1990   -1.3150    0.1300 h1        1 ASO      0.060700
     17 H5         -0.0210    1.3730    1.2200 h1        1 ASO      0.070700
     18 H61        -0.4080   -1.4280    2.5410 h1        1 ASO      0.063700
     19 H62        -1.4890    0.0390    2.8190 h1        1 ASO      0.063700
     20 HO2         2.1560   -0.0580   -2.9060 ho        1 ASO      0.410000
     21 HO3        -1.1460   -0.0940   -3.0940 ho        1 ASO      0.425000
     22 HO4        -2.9120    0.2140   -0.3150 ho        1 ASO      0.425000
     23 HO6         1.2900   -0.0470    3.3400 ho        1 ASO      0.409000
@<TRIPOS>BOND
     1    1    2 1   
     2    1   10 1   
     3    1   12 1   
     4    1   13 1   
     5    2    3 1   
     6    2    7 1   
     7    2   14 1   
     8    3    4 1   
     9    3    8 1   
    10    3   15 1   
    11    4    5 1   
    12    4    9 1   
    13    4   16 1   
    14    5    6 1   
    15    5   10 1   
    16    5   17 1   
    17    6   11 1   
    18    6   18 1   
    19    6   19 1   
    20    7   20 1   
    21    8   21 1   
    22    9   22 1   
    23   11   23 1   
@<TRIPOS>SUBSTRUCTURE
     1 ASO         1 TEMP              0 ****  ****    0 ROOT
