@<TRIPOS>MOLECULE
ASO
   23    23     1     0     0
SMALL
bcc


@<TRIPOS>ATOM
      1 C1         -0.8040    0.3080   -1.5250 c3        1 ASO      0.088400
      2 C2          0.7190    0.3080   -1.5250 c3        1 ASO      0.078100
      3 C3          1.2810    0.3080   -0.1550 c3        1 ASO      0.076100
      4 C4          0.7050   -0.7740    0.6890 c3        1 ASO      0.117100
      5 C5         -0.8170   -0.7690    0.6780 c3        1 ASO      0.101100
      6 C6         -1.3050    0.4480    1.4070 c3        1 ASO      0.101400
      7 O2          1.1840   -0.8630   -2.2180 oh        1 ASO     -0.587800
      8 O3          1.0000    1.5910    0.4680 oh        1 ASO     -0.597800
      9 O4          1.1690   -2.0400    0.2010 oh        1 ASO     -0.580800
     10 O5         -1.3690   -0.7630   -0.6800 os        1 ASO     -0.416600
     11 O6         -2.6200    0.2180    1.8850 oh        1 ASO     -0.597800
     12 H11        -1.1200    0.1860   -2.4410 h1        1 ASO      0.067700
     13 H12        -1.1200    1.1700   -1.1940 h1        1 ASO      0.067700
     14 H2          1.0350    1.1020   -1.9970 h1        1 ASO      0.079700
     15 H3          2.2480    0.1860   -0.2100 h1        1 ASO      0.071700
     16 H4          1.0140   -0.6560    1.6080 h1        1 ASO      0.112700
     17 H5         -1.1380   -1.5650    1.1440 h1        1 ASO      0.110700
     18 H61        -0.7130    0.6360    2.1600 h1        1 ASO      0.044200
     19 H62        -1.3100    1.2120    0.7980 h1        1 ASO      0.044200
     20 HO2         1.5130   -0.6280   -3.0080 ho        1 ASO      0.407000
     21 HO3         1.7560    2.0460    0.5620 ho        1 ASO      0.408000
     22 HO4         1.5250   -2.5030    0.8700 ho        1 ASO      0.400000
     23 HO6        -2.8310    0.8410    2.4820 ho        1 ASO      0.406000
@<TRIPOS>BOND
     1    1    2 1   
     2    1   10 1   
     3    1   12 1   
     4    1   13 1   
     5    2    3 1   
     6    2    7 1   
     7    2   14 1   
     8    3    4 1   
     9    3    8 1   
    10    3   15 1   
    11    4    5 1   
    12    4    9 1   
    13    4   16 1   
    14    5    6 1   
    15    5   10 1   
    16    5   17 1   
    17    6   11 1   
    18    6   18 1   
    19    6   19 1   
    20    7   20 1   
    21    8   21 1   
    22    9   22 1   
    23   11   23 1   
@<TRIPOS>SUBSTRUCTURE
     1 ASO         1 TEMP              0 ****  ****    0 ROOT
