@<TRIPOS>MOLECULE
ASP
   14    13     1     0     0
SMALL
bcc


@<TRIPOS>ATOM
      1 N          -0.4380    1.7610    0.0470 n3        1 ASP     -0.918800
      2 CA         -0.5530    0.3760   -0.3830 c3        1 ASP      0.067500
      3 C          -1.9830   -0.1900   -0.1370 c         1 ASP      0.909600
      4 O          -2.5520    0.0150    0.9790 o         1 ASP     -0.879300
      5 CB          0.4540   -0.5900    0.2600 c3        1 ASP     -0.195400
      6 CG          1.9160   -0.1670    0.1340 c         1 ASP      0.899600
      7 OD1         2.7170   -0.9010   -0.5260 o         1 ASP     -0.887800
      8 OD2         2.3250    0.8810    0.7300 o         1 ASP     -0.887800
      9 OXT        -2.5390   -0.8440   -1.0710 o         1 ASP     -0.879300
     10 H          -0.9410    1.8660    0.9100 hn        1 ASP      0.340800
     11 H2          0.5310    1.9650    0.2320 hn        1 ASP      0.340800
     12 HA         -0.3700    0.3720   -1.4970 h1        1 ASP      0.034700
     13 HB2         0.2130   -0.6890    1.3500 hc        1 ASP      0.027700
     14 HB3         0.3220   -1.5930   -0.2180 hc        1 ASP      0.027700
@<TRIPOS>BOND
     1    1    2 1   
     2    1   10 1   
     3    1   11 1   
     4    2    3 1   
     5    2    5 1   
     6    2   12 1   
     7    3    4 1   
     8    3    9 1   
     9    5    6 1   
    10    5   13 1   
    11    5   14 1   
    12    6    7 1   
    13    6    8 1   
@<TRIPOS>SUBSTRUCTURE
     1 ASP         1 TEMP              0 ****  ****    0 ROOT
