@<TRIPOS>MOLECULE
ASQ
   18    17     1     0     0
SMALL
bcc


@<TRIPOS>ATOM
      1 N          -2.6190   -0.1370    0.6980 n3        1 ASQ     -0.912800
      2 CA         -1.2180   -0.3700    0.7940 c3        1 ASQ      0.080500
      3 C          -0.8460   -0.6150    2.2380 c         1 ASQ      0.914600
      4 O          -1.1600    0.2260    3.1200 o         1 ASQ     -0.887800
      5 CB         -0.4700    0.8370    0.2780 c3        1 ASQ     -0.129400
      6 CG          0.8530    0.3980   -0.3090 c         1 ASQ      0.649100
      7 OD1         1.8130    0.2280    0.4150 o         1 ASQ     -0.655000
      8 OD2         0.9760    0.2040   -1.6950 os        1 ASQ     -0.501500
      9 OXT        -0.2000   -1.6480    2.5550 o         1 ASQ     -0.887800
     10 P           2.4250    0.0750   -2.3110 p5        1 ASQ      1.321900
     11 O1P         3.3530    1.0490   -1.6240 o         1 ASQ     -0.925500
     12 O2P         2.3740    0.3850   -3.7880 o         1 ASQ     -0.925500
     13 O3P         2.9350   -1.3330   -2.1090 o         1 ASQ     -0.925500
     14 H          -2.8530   -0.0410   -0.1820 hn        1 ASQ      0.344800
     15 H2         -3.0720   -0.8470    1.0590 hn        1 ASQ      0.344800
     16 HA         -0.9810   -1.1530    0.2590 h1        1 ASQ     -0.000300
     17 HB2        -0.3080    1.4600    1.0160 hc        1 ASQ      0.046200
     18 HB3        -1.0030    1.2800   -0.4120 hc        1 ASQ      0.046200
@<TRIPOS>BOND
     1    1    2 1   
     2    1   14 1   
     3    1   15 1   
     4    2    3 1   
     5    2    5 1   
     6    2   16 1   
     7    3    4 1   
     8    3    9 1   
     9    5    6 1   
    10    5   17 1   
    11    5   18 1   
    12    6    7 2   
    13    6    8 1   
    14    8   10 1   
    15   10   11 1   
    16   10   12 1   
    17   10   13 1   
@<TRIPOS>SUBSTRUCTURE
     1 ASQ         1 TEMP              0 ****  ****    0 ROOT
