@<TRIPOS>MOLECULE
ASQ
   18    17     1     0     0
SMALL
bcc


@<TRIPOS>ATOM
      1 N           2.1720    0.1470   -2.0570 n3        1 ASQ     -0.917800
      2 CA          2.6190   -0.7730   -1.0230 c3        1 ASQ      0.068500
      3 C           2.3240   -2.2580   -1.3810 c         1 ASQ      0.909600
      4 O           1.2090   -2.5810   -1.8940 o         1 ASQ     -0.884800
      5 CB          2.0470   -0.4740    0.3720 c3        1 ASQ     -0.182400
      6 CG          2.4750    0.8910    0.9020 c         1 ASQ      0.720100
      7 OD1         3.5120    1.0020    1.5990 o         1 ASQ     -0.717000
      8 OD2         1.7350    1.9070    0.5780 os        1 ASQ     -0.550500
      9 OXT         3.2270   -3.1220   -1.1540 o         1 ASQ     -0.884800
     10 P           0.9910    3.5040    1.1880 p5        1 ASQ      1.358900
     11 O1P         0.5150    3.1110    2.5510 o         1 ASQ     -0.912167
     12 O2P        -0.0680    3.6630    0.1430 o         1 ASQ     -0.912167
     13 O3P         2.1090    4.4940    1.1240 o         1 ASQ     -0.912167
     14 H           2.0450    1.0590   -1.6460 hn        1 ASQ      0.347800
     15 H2          1.2770   -0.1630   -2.3930 hn        1 ASQ      0.347800
     16 HA          3.7410   -0.6630   -0.9590 h1        1 ASQ      0.040700
     17 HB2         2.4170   -1.2590    1.0780 hc        1 ASQ      0.039200
     18 HB3         0.9300   -0.5190    0.3380 hc        1 ASQ      0.039200
@<TRIPOS>BOND
     1    1    2 1   
     2    1   14 1   
     3    1   15 1   
     4    2    3 1   
     5    2    5 1   
     6    2   16 1   
     7    3    4 1   
     8    3    9 1   
     9    5    6 1   
    10    5   17 1   
    11    5   18 1   
    12    6    7 2   
    13    6    8 1   
    14    8   10 1   
    15   10   11 1   
    16   10   12 1   
    17   10   13 1   
@<TRIPOS>SUBSTRUCTURE
     1 ASQ         1 TEMP              0 ****  ****    0 ROOT
