@<TRIPOS>MOLECULE
ASS
   73    68     1     0     0
SMALL
bcc


@<TRIPOS>ATOM
      1 CAA        -0.0640    1.5530    0.3690 c1        1 ASS      0.278000
      2 CAD        -0.4800    0.5780    1.1520 c2        1 ASS     -0.523000
      3 CAE         0.1690    0.0150    2.3690 c3        1 ASS     -0.014000
      4 NBE         1.5340    0.4410    2.5250 n2        1 ASS     -0.090000
      5 CAB         2.5400   -0.3340    2.6380 c2        1 ASS     -0.032000
      6 CAW         3.9780    0.1740    2.8380 c3        1 ASS     -0.089000
      7 CBA         4.7900   -1.0770    2.8830 c2        1 ASS     -0.104000
      8 NBG         3.8680   -2.2300    2.7380 n3        1 ASS      0.044000
      9 CAC         2.6200   -1.8480    2.6120 c2        1 ASS      0.038000
     10 CAN         6.0690   -1.5040    3.0050 c2        1 ASS     -0.017000
     11 CBB         6.1050   -3.0050    2.8420 c3        1 ASS     -0.106000
     12 CAM         7.0070   -3.8260    3.6320 c1        1 ASS     -0.047000
     13 CBC         4.6310   -3.4120    2.8820 c2        1 ASS     -0.153000
     14 CAL         4.2560   -4.6770    3.2160 c2        1 ASS     -0.004000
     15 CAK         5.2500   -5.5900    3.7020 c2        1 ASS     -0.194000
     16 CAZ         6.5240   -5.1370    3.9680 c2        1 ASS     -0.003000
     17 OOX         7.3790   -6.0100    4.5920 oh        1 ASS     -0.230000
     18 CAP         4.6140   -8.2330    4.4330 c1        1 ASS     -0.052000
     19 CAO         5.5080   -9.3150    4.0670 c3        1 ASS     -0.310000
     20 H1         -1.4650    0.1170    0.9240 ha        1 ASS      0.209000
     21 H2         -0.1280   -3.3740    2.4290 ha        1 ASS      0.002857
     22 H3         -0.7770   -3.4880    2.2680 ha        1 ASS      0.002857
     23 H4          0.0460   -1.1100    2.3540 h1        1 ASS      0.110500
     24 H5         -0.3770    0.4110    3.2820 h1        1 ASS      0.110500
     25 H6          5.0370    2.5760    0.7840 ha        1 ASS      0.002857
     26 H7          4.9650    2.1850    0.2360 ha        1 ASS      0.002857
     27 H8          4.2890    0.8380    1.9860 hc        1 ASS      0.165500
     28 H9          5.1040    3.4550    3.1080 ha        1 ASS      0.002857
     29 H10         4.9640    2.7920    3.0760 ha        1 ASS      0.002857
     30 H11         1.7630   -2.5340    2.5040 h4        1 ASS      0.218000
     31 H12         4.2700    1.9520    5.7550 ha        1 ASS      0.002857
     32 H13         4.4750    2.3910    5.2820 ha        1 ASS      0.002857
     33 H14         6.9760   -0.9130    3.1640 ha        1 ASS      0.214000
     34 H15         6.5120   -3.2200    1.7860 hc        1 ASS      0.216000
     35 H16         3.2080   -5.0210    3.1960 ha        1 ASS      0.161000
     36 H17         4.9410   -6.7020    3.9510 ha        1 ASS      0.294000
     37 H18         3.7650   -8.4800    5.0880 ha        1 ASS      0.089000
     38 H19         8.2300   -5.5540    4.7210 ho        1 ASS      0.252000
     39 H20         6.5760   -8.9580    4.2150 hc        1 ASS      0.171000
     40 H21         5.4020   -9.4500    2.9400 hc        1 ASS      0.171000
     41 C17         5.1940  -10.6080    4.6770 c1        1 ASS     -0.058000
     42 C18         6.2360  -11.6080    4.8120 c3        1 ASS     -0.171000
     43 C19         5.7150  -12.9870    4.6990 c2        1 ASS     -0.275000
     44 C20         6.4480  -14.1010    4.4950 c2        1 ASS      0.007000
     45 N1          7.8090  -14.2600    4.2980 n3        1 ASS     -0.249000
     46 C22         8.7110  -13.2840    4.4620 c1        1 ASS     -0.047000
     47 C23         9.5660  -12.4440    4.5670 c1        1 ASS     -0.314000
     48 C24         8.8480  -16.8960    4.3640 c1        1 ASS     -0.060000
     49 C25         9.5860  -17.3810    3.2290 c3        1 ASS     -0.171000
     50 C26        10.0170  -18.9030    3.2440 c3        1 ASS     -0.084000
     51 C27         9.4510  -19.4020    1.9990 cu        1 ASS     -0.165000
     52 C28         8.8640  -19.6520    0.8350 cu        1 ASS      0.013000
     53 C29         8.7260  -18.2960    1.2820 cu        1 ASS     -0.170000
     54 C30         8.7690  -17.1450    1.9360 c2        1 ASS     -0.156000
     55 H22         8.5790   -7.9780    5.1810 ha        1 ASS      0.002857
     56 H23         8.0870   -7.9700    5.6480 ha        1 ASS      0.002857
     57 H24         6.6340  -11.4510    5.8670 hc        1 ASS      0.118000
     58 H25         5.9390   -7.2180    5.9970 ha        1 ASS      0.002857
     59 H26         5.5910   -7.6410    6.4020 ha        1 ASS      0.002857
     60 H27         4.6230  -13.0890    4.8070 ha        1 ASS      0.148000
     61 H28         5.9190  -15.0760    4.4290 h4        1 ASS      0.138000
     62 H30        11.7670   -9.9320    4.8370 ha        1 ASS      0.002857
     63 H31        12.2340  -10.4180    4.9020 ha        1 ASS      0.002857
     64 H32         7.1140  -11.4520    4.1200 hc        1 ASS      0.118000
     65 H33        10.3240  -11.7130    4.6600 ha        1 ASS      0.230000
     66 H34         8.7440  -17.5470    5.2440 ha        1 ASS      0.070000
     67 H35         8.1830  -15.2330    4.3000 hn        1 ASS      0.308000
     68 H36         9.5960  -19.4290    4.1370 hc        1 ASS      0.117000
     69 H37        11.1310  -18.9980    3.2640 hc        1 ASS      0.117000
     70 H38         8.6150  -20.3320    0.0420 ha        1 ASS      0.212000
     71 H39         8.3610  -16.1630    1.7160 ha        1 ASS      0.176000
     72 H40        10.5170  -16.7380    3.1630 hc        1 ASS      0.169000
     73 HBE1        4.0660    0.7580    3.7940 hc        1 ASS      0.165500
@<TRIPOS>BOND
     1    1    2 1   
     2    2    3 1   
     3    2   20 1   
     4    3    4 1   
     5    3   23 1   
     6    3   24 1   
     7    4    5 1   
     8    5    6 1   
     9    5    9 1   
    10    6    7 1   
    11    6   27 1   
    12    6   73 1   
    13    7    8 1   
    14    7   10 1   
    15    8    9 1   
    16    8   13 1   
    17    9   30 1   
    18   10   11 1   
    19   10   33 1   
    20   11   12 1   
    21   11   13 1   
    22   11   34 1   
    23   12   16 1   
    24   13   14 1   
    25   14   15 1   
    26   14   35 1   
    27   15   16 1   
    28   15   36 1   
    29   16   17 1   
    30   17   38 1   
    31   18   19 1   
    32   18   37 1   
    33   19   39 1   
    34   19   40 1   
    35   19   41 1   
    36   21   22 1   
    37   25   26 1   
    38   28   29 1   
    39   31   32 1   
    40   41   42 1   
    41   42   43 1   
    42   42   57 1   
    43   42   64 1   
    44   43   44 1   
    45   43   60 1   
    46   44   45 1   
    47   44   61 1   
    48   45   46 1   
    49   45   67 1   
    50   46   47 1   
    51   47   65 1   
    52   48   49 1   
    53   48   66 1   
    54   49   50 1   
    55   49   54 1   
    56   49   72 1   
    57   50   51 1   
    58   50   68 1   
    59   50   69 1   
    60   51   52 1   
    61   51   53 1   
    62   52   53 1   
    63   52   70 1   
    64   53   54 1   
    65   54   71 1   
    66   55   56 1   
    67   58   59 1   
    68   62   63 1   
@<TRIPOS>SUBSTRUCTURE
     1 ASS         1 TEMP              0 ****  ****    0 ROOT
