@<TRIPOS>MOLECULE
ASS
   72    65     1     0     0
SMALL
bcc


@<TRIPOS>ATOM
      1 CAA         1.3940   -0.0590    1.6000 c1        1 ASS     -0.003000
      2 CAD         2.7570    0.2110    1.4280 c2        1 ASS     -0.216000
      3 CAE         3.7300    0.1070    2.3570 c2        1 ASS     -0.239000
      4 NBE         5.1360    0.2300    2.0830 n3        1 ASS     -0.124000
      5 CAB         5.6870    1.4440    1.8940 c1        1 ASS      0.024000
      6 CAW         5.9600   -0.8660    2.0410 c1        1 ASS      0.093000
      7 CBA         5.5280   -2.2200    2.1950 c2        1 ASS     -0.157000
      8 NBG         4.2380   -2.7700    2.3830 na        1 ASS     -0.206000
      9 CAC         1.5090   -2.0280    4.3280 c3        1 ASS     -0.275000
     10 CAN         6.4710   -3.2750    2.1690 c2        1 ASS     -0.042000
     11 CBB         5.7530   -4.5030    2.3310 ca        1 ASS     -0.106000
     12 CAM         6.1440   -5.8470    2.3840 ca        1 ASS     -0.111000
     13 CBC         4.3530   -4.1500    2.4510 ca        1 ASS      0.008000
     14 CAL         3.3700   -5.1490    2.6180 ca        1 ASS     -0.132000
     15 CAK         3.7810   -6.4630    2.6650 ca        1 ASS     -0.153000
     16 CAZ         5.1550   -6.8110    2.5510 ca        1 ASS      0.055000
     17 OOX         5.5650   -8.1210    2.5960 oh        1 ASS     -0.302000
     18 CAP         3.6750  -10.3200    2.8860 c1        1 ASS     -0.082000
     19 CAO         4.1780  -11.3220    3.8060 c3        1 ASS     -0.241000
     20 H1          0.6700    0.7050    1.9000 ha        1 ASS      0.103000
     21 H2          0.5930   -1.9950    4.9570 hc        1 ASS      0.070750
     22 H3          1.3260   -1.4710    3.3800 hc        1 ASS      0.070750
     23 H4          2.9960    0.3940    0.3530 ha        1 ASS      0.192000
     24 H5          3.4950   -0.1010    3.4180 h4        1 ASS      0.148000
     25 H6          8.6250   -1.4550    0.3770 ha        1 ASS      0.003250
     26 H7          8.1160   -1.2350    0.7680 ha        1 ASS      0.003250
     27 H8          4.9410    2.2770    1.9400 ha        1 ASS      0.010000
     28 H9          8.8180   -1.2090    3.3840 ha        1 ASS      0.003250
     29 H10         8.2680   -1.0830    3.0080 ha        1 ASS      0.003250
     30 H11         3.3850   -2.2710    2.3770 hn        1 ASS      0.255000
     31 H12         1.7580   -3.0860    4.0900 hc        1 ASS      0.070750
     32 H13         2.3560   -1.5630    4.8790 hc        1 ASS      0.070750
     33 H14         7.5460   -3.1460    2.0470 ha        1 ASS      0.177000
     34 H15         7.2000   -6.1350    2.2960 ha        1 ASS      0.152000
     35 H16         2.3080   -4.8810    2.7050 ha        1 ASS      0.136000
     36 H17         3.0440   -7.2710    2.7910 ha        1 ASS      0.139000
     37 H18         2.8690  -10.6430    2.2120 ha        1 ASS      0.054000
     38 H19         4.7760   -8.6940    2.7470 ho        1 ASS      0.262000
     39 H20         3.3540  -11.5600    4.5420 hc        1 ASS      0.123500
     40 H21         4.4050  -12.2900    3.2720 hc        1 ASS      0.123500
     41 C17         5.4140  -10.8470    4.5550 c3        1 ASS     -0.141000
     42 C18         6.1970  -11.9850    5.0880 c2        1 ASS     -0.122000
     43 C19         7.2010  -13.1610    8.4570 c1        1 ASS     -0.175000
     44 C20         7.7340  -13.5310    7.4520 c1        1 ASS     -0.112000
     45 N1          8.3690  -13.9680    6.3100 n3        1 ASS     -0.015000
     46 C22         8.2670  -13.3410    5.1220 c1        1 ASS     -0.074000
     47 C23         7.5000  -12.1660    4.8170 c2        1 ASS     -0.220000
     48 C24         9.0900  -15.1480    6.4540 c1        1 ASS      0.091000
     49 C25         9.8780  -15.6510    5.3510 c2        1 ASS     -0.266000
     50 C26        10.6200  -14.8990    4.5210 c2        1 ASS     -0.073000
     51 C27        11.3490  -15.4080    3.3370 c3        1 ASS     -0.207000
     52 C28        10.8650  -14.9090    2.0490 c1        1 ASS     -0.002000
     53 C29         9.7450  -14.0390    1.9860 c2        1 ASS     -0.560000
     54 C30         9.2960  -13.5080    0.8590 c1        1 ASS      0.339000
     55 H22         5.1030  -10.1870    5.4100 hc        1 ASS      0.114500
     56 H23         6.0420  -10.2130    3.8670 hc        1 ASS      0.114500
     57 H24         5.0590  -10.7190    1.1640 ha        1 ASS      0.003250
     58 H25         5.6350  -12.7070    5.7040 ha        1 ASS      0.126000
     59 H26         6.7290  -12.8250    9.3440 ha        1 ASS      0.238000
     60 H27         7.5820   -9.8090    2.3270 ha        1 ASS      0.003250
     61 H28         7.6220   -9.1380    2.4200 ha        1 ASS      0.003250
     62 H30         7.6280  -12.0700    1.8210 ha        1 ASS      0.003250
     63 H31         7.3550  -12.0580    1.1990 ha        1 ASS      0.003250
     64 H32         8.0570  -11.4450    4.1840 ha        1 ASS      0.163000
     65 H33         5.5270  -10.3550    1.5010 ha        1 ASS      0.003250
     66 H34         9.7160  -11.3700    2.4010 ha        1 ASS      0.003250
     67 H35         9.6730  -10.7220    2.5980 ha        1 ASS      0.003250
     68 H36        10.6860  -13.8040    4.6670 ha        1 ASS      0.132000
     69 H37        12.4430  -15.1290    3.4000 hc        1 ASS      0.144500
     70 H38        11.3120  -16.5350    3.2760 hc        1 ASS      0.144500
     71 H39         9.1800  -13.7690    2.9230 ha        1 ASS      0.217000
     72 H40         9.8580  -16.7530    5.2780 ha        1 ASS      0.159000
@<TRIPOS>BOND
     1    1    2 1   
     2    1   20 1   
     3    2    3 1   
     4    2   23 1   
     5    3    4 1   
     6    3   24 1   
     7    4    5 1   
     8    4    6 1   
     9    5   27 1   
    10    6    7 1   
    11    7    8 1   
    12    7   10 1   
    13    8   13 1   
    14    8   30 1   
    15    9   21 1   
    16    9   22 1   
    17    9   31 1   
    18    9   32 1   
    19   10   11 1   
    20   10   33 1   
    21   11   12 1   
    22   11   13 1   
    23   12   16 1   
    24   12   34 1   
    25   13   14 1   
    26   14   15 1   
    27   14   35 1   
    28   15   16 1   
    29   15   36 1   
    30   16   17 1   
    31   17   38 1   
    32   18   19 1   
    33   18   37 1   
    34   19   39 1   
    35   19   40 1   
    36   19   41 1   
    37   25   26 1   
    38   28   29 1   
    39   41   42 1   
    40   41   55 1   
    41   41   56 1   
    42   42   47 1   
    43   42   58 1   
    44   43   44 1   
    45   43   59 1   
    46   44   45 1   
    47   45   46 1   
    48   45   48 1   
    49   46   47 1   
    50   47   64 1   
    51   48   49 1   
    52   49   50 1   
    53   49   72 1   
    54   50   51 1   
    55   50   68 1   
    56   51   52 1   
    57   51   69 1   
    58   51   70 1   
    59   52   53 1   
    60   53   54 1   
    61   53   71 1   
    62   57   65 1   
    63   60   61 1   
    64   62   63 1   
    65   66   67 1   
@<TRIPOS>SUBSTRUCTURE
     1 ASS         1 TEMP              0 ****  ****    0 ROOT
