@<TRIPOS>MOLECULE
ASS
   73    68     1     0     0
SMALL
bcc


@<TRIPOS>ATOM
      1 CAA         2.3890    0.1560    4.3330 c1        1 ASS     -0.038000
      2 CAD         3.4030   -0.6840    4.3160 c2        1 ASS     -0.028000
      3 CAE         3.9660   -1.4060    5.3520 c2        1 ASS     -0.327000
      4 NBE         5.0020   -2.3380    5.1290 n3        1 ASS      0.124000
      5 CAB         5.7900   -2.7170    6.1100 c2        1 ASS     -0.137000
      6 CAW         5.2210   -2.6600    3.7760 c1        1 ASS     -0.100000
      7 CBA         5.4510   -3.8990    3.2240 c2        1 ASS     -0.222000
      8 NBG         5.4050   -5.2420    3.8020 n3        1 ASS     -0.065000
      9 CAC         4.9830   -5.6720    4.9550 c1        1 ASS     -0.160000
     10 CAN         5.8480   -3.9670    1.8640 c2        1 ASS      0.159000
     11 CBB         5.9920   -5.3830    1.4570 c3        1 ASS      0.014000
     12 CAM         7.1060   -5.8270    0.6430 c2        1 ASS     -0.553000
     13 CBC         5.8960   -6.1340    2.7760 c2        1 ASS     -0.027000
     14 CAL         6.3250   -7.3970    2.9090 c2        1 ASS     -0.122000
     15 CAK         6.9060   -8.1000    1.7330 c3        1 ASS     -0.131000
     16 CAZ         7.5880   -7.1300    0.7090 c2        1 ASS      0.285000
     17 OOX         8.4970   -7.6130   -0.0100 o         1 ASS     -0.450000
     18 CAP         0.8450  -12.7110    3.2290 c2        1 ASS     -0.114000
     19 CAO        -0.1710  -12.6800    2.1560 c3        1 ASS     -0.179000
     20 H1          1.6510    0.9250    4.3330 ha        1 ASS      0.259000
     21 H2          2.5710    0.9910    2.1160 ha        1 ASS      0.002833
     22 H3          2.1110    0.5060    1.9940 ha        1 ASS      0.002833
     23 H4          3.8450   -0.8250    3.2760 ha        1 ASS      0.267000
     24 H5          3.6440   -1.2960    6.3970 h4        1 ASS      0.179000
     25 H6          4.6170   -1.0850    1.2440 ha        1 ASS      0.002833
     26 H7          4.1370   -0.6100    1.1740 ha        1 ASS      0.002833
     27 H8          6.5760   -3.4700    5.9260 h4        1 ASS      0.177500
     28 H9          6.8130   -1.6700   -0.4820 ha        1 ASS      0.002833
     29 H10         6.2730   -1.3820   -0.1930 ha        1 ASS      0.002833
     30 H11         2.7750   -6.7170    4.9270 ha        1 ASS      0.002833
     31 H12         2.4920   -6.1010    4.9590 ha        1 ASS      0.002833
     32 H13         4.5870   -4.9270    5.6730 ha        1 ASS      0.043000
     33 H14         5.9840   -3.1040    1.2000 ha        1 ASS      0.185000
     34 H15         5.0140   -5.5520    0.8700 hc        1 ASS      0.157000
     35 H16         6.2260   -7.9340    3.8660 ha        1 ASS      0.151000
     36 H17         6.0500   -8.5570    1.1470 hc        1 ASS      0.135000
     37 H18         1.2380  -13.7130    3.4840 ha        1 ASS      0.138000
     38 H19         3.4850  -10.8160    2.4240 ha        1 ASS      0.111500
     39 H20        -0.5180  -11.6400    1.9380 hc        1 ASS      0.086333
     40 H21        -1.0580  -13.2930    2.4580 hc        1 ASS      0.086333
     41 C17         1.2780  -11.6610    3.8660 c1        1 ASS     -0.152000
     42 C18         1.6950  -10.6190    4.5370 c2        1 ASS     -0.098000
     43 C19         2.8300   -9.7900    4.1830 c2        1 ASS     -0.119000
     44 C20         3.6280   -9.9890    3.1300 c2        1 ASS     -0.225000
     45 N1         10.7120  -12.7370    0.3690 n2        1 ASS      0.074000
     46 C22        11.5400  -13.5560    0.3940 c1        1 ASS      0.079000
     47 C23        12.5560  -14.5680    0.4000 c3        1 ASS     -0.134000
     48 C24         9.7550  -11.7840    0.3050 c2        1 ASS     -0.215000
     49 C25         9.3010  -11.0320    1.3780 c2        1 ASS      0.172000
     50 C26         9.7870  -11.1750    2.7310 c2        1 ASS     -0.218000
     51 C27         9.3350  -10.3720    3.7160 c2        1 ASS     -0.040000
     52 C28         8.3180   -9.3230    3.5000 c3        1 ASS     -0.167000
     53 C29         7.8470   -9.1950    2.0990 c2        1 ASS      0.063000
     54 C30         8.3010  -10.0340    1.1240 c2        1 ASS     -0.195000
     55 H22         1.1570  -10.3210    5.4570 ha        1 ASS      0.139000
     56 H23         0.2540  -13.1160    1.2170 hc        1 ASS      0.086333
     57 H24        12.2390  -15.4240    1.0550 hc        1 ASS      0.153000
     58 H25         9.3630  -11.6210   -0.7200 h4        1 ASS      0.208000
     59 H26         3.0100   -8.9390    4.8650 ha        1 ASS      0.128000
     60 H27         4.4740   -9.3220    2.9110 ha        1 ASS      0.111500
     61 H28         7.5360   -5.1350   -0.0840 ha        1 ASS      0.147000
     62 H30        12.1910  -13.6660    2.8970 ha        1 ASS      0.002833
     63 H31        12.2370  -13.5580    3.5650 ha        1 ASS      0.002833
     64 H32        13.5180  -14.1390    0.7900 hc        1 ASS      0.153000
     65 H33        12.7160  -14.9430   -0.6480 hc        1 ASS      0.153000
     66 H34         5.2910   -9.5520    5.2530 ha        1 ASS      0.002833
     67 H35         5.8200   -9.4860    5.6730 ha        1 ASS      0.002833
     68 H36        10.5440  -11.9470    2.9460 ha        1 ASS      0.134000
     69 H37         9.7120  -10.4720    4.7480 ha        1 ASS      0.148000
     70 H38         8.7330   -8.3270    3.8360 hc        1 ASS      0.156000
     71 H39         7.4360   -9.5500    4.1730 hc        1 ASS      0.156000
     72 H40         7.9630   -9.8900    0.0810 ha        1 ASS      0.184000
     73 HBE1        5.6990   -2.2780    7.1180 h4        1 ASS      0.177500
@<TRIPOS>BOND
     1    1    2 1   
     2    1   20 1   
     3    2    3 1   
     4    2   23 1   
     5    3    4 1   
     6    3   24 1   
     7    4    5 1   
     8    4    6 1   
     9    5   27 1   
    10    5   73 1   
    11    6    7 1   
    12    7    8 1   
    13    7   10 1   
    14    8    9 1   
    15    8   13 1   
    16    9   32 1   
    17   10   11 1   
    18   10   33 1   
    19   11   12 1   
    20   11   13 1   
    21   11   34 1   
    22   12   16 1   
    23   12   61 1   
    24   13   14 1   
    25   14   15 1   
    26   14   35 1   
    27   15   16 1   
    28   15   36 1   
    29   15   53 1   
    30   16   17 1   
    31   18   19 1   
    32   18   37 1   
    33   18   41 1   
    34   19   39 1   
    35   19   40 1   
    36   19   56 1   
    37   21   22 1   
    38   25   26 1   
    39   28   29 1   
    40   30   31 1   
    41   38   44 1   
    42   41   42 1   
    43   42   43 1   
    44   42   55 1   
    45   43   44 1   
    46   43   59 1   
    47   44   60 1   
    48   45   46 1   
    49   45   48 1   
    50   46   47 1   
    51   47   57 1   
    52   47   64 1   
    53   47   65 1   
    54   48   49 1   
    55   48   58 1   
    56   49   50 1   
    57   49   54 1   
    58   50   51 1   
    59   50   68 1   
    60   51   52 1   
    61   51   69 1   
    62   52   53 1   
    63   52   70 1   
    64   52   71 1   
    65   53   54 1   
    66   54   72 1   
    67   62   63 1   
    68   66   67 1   
@<TRIPOS>SUBSTRUCTURE
     1 ASS         1 TEMP              0 ****  ****    0 ROOT
