@<TRIPOS>MOLECULE
ASU
   22    21     1     0     0
SMALL
bcc


@<TRIPOS>ATOM
      1 P           2.4700   -2.3140    1.8180 p4        1 ASU      1.699200
      2 OP1         3.9820   -2.3140    1.8180 o         1 ASU     -0.921500
      3 OP2         1.9660   -2.3140    3.2430 os        1 ASU     -1.275000
      4 OP3         1.9660   -3.5470    1.1060 o         1 ASU     -0.970300
      5 O5'         1.9390   -1.0130    1.0670 os        1 ASU     -0.560200
      6 S4'         0.8050    0.9400   -1.1610 ss        1 ASU     -0.482200
      7 O1'        -0.8930    2.3750   -2.5250 oh        1 ASU     -0.620800
      8 C2'        -1.6480    0.4650   -1.3320 c3        1 ASU     -0.130400
      9 C5'         0.5430   -0.8850    0.8360 c3        1 ASU      0.246400
     10 C4'         0.2110    0.6020    0.4320 c3        1 ASU      0.007400
     11 C1'        -0.5950    0.9970   -2.1490 c3        1 ASU      0.250200
     12 C3'        -1.1940    0.7870    0.3480 c3        1 ASU      0.162100
     13 O3'        -1.5070    2.0190    0.6720 oh        1 ASU     -0.685800
     14 HO'1       -0.5230    2.5540   -3.3120 ho        1 ASU      0.423000
     15 H2'        -1.7310   -0.4960   -1.4770 hc        1 ASU      0.047700
     16 H2''       -2.4910    0.9100   -1.5410 hc        1 ASU      0.047700
     17 H5'         0.0560   -1.1180    1.6490 h1        1 ASU      0.001200
     18 H5''        0.2770   -1.4860    0.1140 h1        1 ASU      0.001200
     19 H4'         0.5970    1.2240    1.0770 h1        1 ASU      0.089700
     20 H1'        -0.4710    0.4460   -2.9450 h2        1 ASU      0.061700
     21 H3'        -1.6490    0.1600    0.9420 h1        1 ASU      0.111700
     22 HO'3       -2.1110    2.0090    1.3220 ho        1 ASU      0.497000
@<TRIPOS>BOND
     1    1    2 1   
     2    1    4 2   
     3    1    5 1   
     4    5    9 1   
     5    6   10 1   
     6    6   11 1   
     7    7   11 1   
     8    7   14 1   
     9    8   11 1   
    10    8   12 1   
    11    8   15 1   
    12    8   16 1   
    13    9   10 1   
    14    9   17 1   
    15    9   18 1   
    16   10   12 1   
    17   10   19 1   
    18   11   20 1   
    19   12   13 1   
    20   12   21 1   
    21   13   22 1   
@<TRIPOS>SUBSTRUCTURE
     1 ASU         1 TEMP              0 ****  ****    0 ROOT
