@<TRIPOS>MOLECULE
ASU
   22    22     1     0     0
SMALL
bcc


@<TRIPOS>ATOM
      1 P          -1.0770    0.1320   -2.3560 p5        1 ASU      1.325900
      2 OP1        -0.5470    1.4360   -2.8750 o         1 ASU     -0.922500
      3 OP2        -1.3090   -0.9780   -3.3350 o         1 ASU     -0.922500
      4 OP3        -2.1020    0.2690   -1.2460 o         1 ASU     -0.922500
      5 O5'         0.2570   -0.4550   -1.4080 os        1 ASU     -0.562200
      6 S4'         1.5520    0.5780    2.1660 ss        1 ASU     -0.473200
      7 O1'         0.7430    0.1000    4.6790 oh        1 ASU     -0.619800
      8 C2'        -0.9930    0.2410    2.9810 c3        1 ASU     -0.128400
      9 C5'         0.6930    0.4210   -0.4510 c3        1 ASU      0.247400
     10 C4'         0.4290   -0.1500    0.9550 c3        1 ASU     -0.000600
     11 C1'         0.3430    0.7560    3.4880 c3        1 ASU      0.243200
     12 C3'        -0.9930    0.1180    1.4510 c3        1 ASU      0.178100
     13 O3'        -1.8410   -0.9540    1.1150 oh        1 ASU     -0.684800
     14 H2''       -1.8130    0.9320    3.2960 hc        1 ASU      0.044200
     15 H5'         0.1950    1.4270   -0.5590 h1        1 ASU      0.002700
     16 H5''        1.8130    0.5580   -0.5390 h1        1 ASU      0.002700
     17 H4'         0.6200   -1.2500    0.9300 h1        1 ASU      0.075700
     18 H1'         0.2980    1.8370    3.7790 h2        1 ASU      0.071700
     19 H3'        -1.3830    1.0680    0.9820 h1        1 ASU      0.086700
     20 HO'3       -2.0260   -0.8440    0.1370 ho        1 ASU      0.511000
     21 HO'1        0.9290   -0.8170    4.4420 ho        1 ASU      0.402000
     22 H2'        -1.2100   -0.7630    3.4310 hc        1 ASU      0.044200
@<TRIPOS>BOND
     1    1    2 1   
     2    1    3 1   
     3    1    4 1   
     4    1    5 1   
     5    5    9 1   
     6    6   10 1   
     7    6   11 1   
     8    7   11 1   
     9    7   21 1   
    10    8   11 1   
    11    8   12 1   
    12    8   14 1   
    13    8   22 1   
    14    9   10 1   
    15    9   15 1   
    16    9   16 1   
    17   10   12 1   
    18   10   17 1   
    19   11   18 1   
    20   12   13 1   
    21   12   19 1   
    22   13   20 1   
@<TRIPOS>SUBSTRUCTURE
     1 ASU         1 TEMP              0 ****  ****    0 ROOT
