@<TRIPOS>MOLECULE
ASV
   45    44     1     0     0
SMALL
bcc


@<TRIPOS>ATOM
      1 C1          3.3480    0.0740    2.8320 c         1 ASV      0.893600
      2 C2          2.9230   -0.6430    1.5110 c3        1 ASV     -0.020500
      3 C3          4.0440   -0.5490    0.4690 c3        1 ASV     -0.082400
      4 C4          5.4250   -0.5260    1.1040 c3        1 ASV     -0.086400
      5 C7          5.9090    0.8950    1.3490 c3        1 ASV     -0.162400
      6 C10         6.7510    1.0230    2.5910 c         1 ASV      0.587100
      7 N11         6.0000    1.0110    3.8870 n4        1 ASV     -0.695800
      8 C12         6.7730    1.4800    5.0810 c3        1 ASV      0.057500
      9 C13         7.4510    0.2540    5.7460 c         1 ASV      0.636100
     10 N14         1.6520   -0.0120    1.0290 n4        1 ASV     -0.828600
     11 O15         7.9670    1.1670    2.6290 o         1 ASV     -0.468100
     12 C16         5.8740    2.1720    6.1050 c3        1 ASV     -0.040300
     13 S17         4.9120    3.4300    5.3290 sh        1 ASV     -0.335900
     14 O18         6.9000   -0.3190    6.6960 o         1 ASV     -0.523100
     15 O19         3.2950    1.3390    2.8420 o         1 ASV     -0.792300
     16 O20         3.7650   -0.6410    3.7720 o         1 ASV     -0.792300
     17 N29         8.6730   -0.1470    5.2230 n         1 ASV     -0.518900
     18 C30         8.9560   -1.5680    5.1690 c3        1 ASV      0.043900
     19 C31         8.1210   -2.2520    4.0750 c         1 ASV      0.623100
     20 C32        10.4120   -1.8490    4.9320 c2        1 ASV     -0.245200
     21 C33        11.2950   -1.9130    5.9260 c2        1 ASV     -0.126000
     22 O42         7.2110   -1.7130    3.4300 o         1 ASV     -0.575000
     23 O43         8.3410   -3.5470    3.7570 oh        1 ASV     -0.543100
     24 H2          2.7110   -1.7270    1.7420 hx        1 ASV      0.122700
     25 H3C1        3.9210    0.3640   -0.1730 hc        1 ASV      0.062700
     26 H3C2        3.9750   -1.4440   -0.2060 hc        1 ASV      0.062700
     27 H4C1        6.1470   -1.0360    0.4090 hc        1 ASV      0.096200
     28 H4C2        5.4230   -1.1320    2.0540 hc        1 ASV      0.096200
     29 H7C1        6.5490    1.2340    0.4870 hc        1 ASV      0.110700
     30 H7C2        5.0350    1.6040    1.4290 hc        1 ASV      0.110700
     31 H11         5.1450    1.6240    3.7850 hn        1 ASV      0.513800
     32 H12         7.5520    2.2210    4.7230 hx        1 ASV      0.125700
     33 H141        1.4940   -0.2040    0.0400 hn        1 ASV      0.457800
     34 H142        1.7330    1.0070    1.1830 hn        1 ASV      0.457800
     35 H161        5.2450    1.4210    6.6480 h1        1 ASV      0.123700
     36 H162        6.5410    2.6560    6.8650 h1        1 ASV      0.123700
     37 H17         3.6910    2.9300    5.4950 hs        1 ASV      0.241800
     38 H29         9.0690   -3.9040    4.2920 ho        1 ASV      0.450000
     39 H30         8.6270   -2.0220    6.1580 h1        1 ASV      0.124700
     40 H321       10.7050   -1.9810    3.8780 ha        1 ASV      0.144000
     41 H331       11.0220   -1.7650    6.9820 ha        1 ASV      0.136500
     42 H332       12.3600   -2.1220    5.7440 ha        1 ASV      0.136500
     43 H112        5.6510    0.0370    4.0460 hn        1 ASV      0.513800
     44 H143        0.8670   -0.3650    1.5810 hn        1 ASV      0.457800
     45 H292        9.0510    0.3900    4.4690 hn        1 ASV      0.326500
@<TRIPOS>BOND
     1    1    2 1   
     2    1   15 1   
     3    1   16 1   
     4    2    3 1   
     5    2   10 1   
     6    2   24 1   
     7    3    4 1   
     8    3   25 1   
     9    3   26 1   
    10    4    5 1   
    11    4   27 1   
    12    4   28 1   
    13    5    6 1   
    14    5   29 1   
    15    5   30 1   
    16    6    7 1   
    17    6   11 2   
    18    7    8 1   
    19    7   31 1   
    20    7   43 1   
    21    8    9 1   
    22    8   12 1   
    23    8   32 1   
    24    9   14 2   
    25    9   17 1   
    26   10   33 1   
    27   10   34 1   
    28   10   44 1   
    29   12   13 1   
    30   12   35 1   
    31   12   36 1   
    32   13   37 1   
    33   17   18 1   
    34   17   45 1   
    35   18   19 1   
    36   18   20 1   
    37   18   39 1   
    38   19   22 2   
    39   19   23 1   
    40   20   21 2   
    41   20   40 1   
    42   21   41 1   
    43   21   42 1   
    44   23   38 1   
@<TRIPOS>SUBSTRUCTURE
     1 ASV         1 TEMP              0 ****  ****    0 ROOT
