@<TRIPOS>MOLECULE
ASV
   45    44     1     0     0
SMALL
bcc


@<TRIPOS>ATOM
      1 C1          2.1920    0.0070    2.1310 c         1 ASV      0.934600
      2 C2          3.0670   -1.0490    1.2860 c3        1 ASV     -0.075500
      3 C3          4.0200   -0.3010    0.3560 c3        1 ASV     -0.081400
      4 C4          5.3650   -0.0200    1.0030 c3        1 ASV     -0.065400
      5 C7          5.1800    0.7100    2.3140 c3        1 ASV     -0.173400
      6 C10         6.4410    1.2820    2.8630 c         1 ASV      0.589100
      7 N11         6.2320    1.9570    4.2190 n4        1 ASV     -0.699800
      8 C12         7.4600    1.9820    5.0760 c3        1 ASV      0.055500
      9 C13         7.6980    0.5470    5.6140 c         1 ASV      0.639100
     10 N14         2.1030   -1.9110    0.5310 n4        1 ASV     -0.828600
     11 O15         7.5810    1.2840    2.4270 o         1 ASV     -0.453100
     12 C16         7.3200    2.9440    6.2520 c3        1 ASV     -0.042300
     13 S17         6.7490    4.5030    5.6410 sh        1 ASV     -0.353900
     14 O18         7.0620    0.1600    6.6070 o         1 ASV     -0.548100
     15 O19         1.0950    0.3110    1.6110 o         1 ASV     -0.766300
     16 O20         2.7030    0.4000    3.2010 o         1 ASV     -0.766300
     17 N29         8.6040   -0.2280    4.9300 n         1 ASV     -0.524900
     18 C30         8.5870   -1.6700    5.0710 c3        1 ASV      0.048900
     19 C31         7.5310   -2.3110    4.1610 c         1 ASV      0.622100
     20 C32         9.9290   -2.2800    4.7740 c2        1 ASV     -0.251200
     21 C33        10.8320   -2.5130    5.7220 c2        1 ASV     -0.125000
     22 O42         6.6750   -1.7080    3.5040 o         1 ASV     -0.551000
     23 O43         7.4730   -3.6590    4.0480 oh        1 ASV     -0.549100
     24 H2          3.6380   -1.7070    1.9970 hx        1 ASV      0.099700
     25 H3C1        4.2210   -0.8850   -0.5830 hc        1 ASV      0.064700
     26 H3C2        3.5360    0.6670    0.0510 hc        1 ASV      0.064700
     27 H4C1        5.9840    0.5920    0.2950 hc        1 ASV      0.073700
     28 H4C2        5.9150   -0.9810    1.1940 hc        1 ASV      0.073700
     29 H7C1        4.4090    1.5280    2.2050 hc        1 ASV      0.145700
     30 H7C2        4.7680   -0.0280    3.0750 hc        1 ASV      0.145700
     31 H11         5.9340    2.9460    4.0770 hn        1 ASV      0.482800
     32 H12         8.3190    2.3290    4.4210 hx        1 ASV      0.135700
     33 H141        1.2840   -1.3080    0.3030 hn        1 ASV      0.453467
     34 H142        2.5110   -2.2860   -0.3220 hn        1 ASV      0.453467
     35 H161        8.3320    3.0680    6.7180 h1        1 ASV      0.123200
     36 H162        6.6450    2.5180    7.0370 h1        1 ASV      0.123200
     37 H17         5.8550    4.8070    6.5780 hs        1 ASV      0.255800
     38 H29         9.0410    0.1360    4.1110 hn        1 ASV      0.337500
     39 H30         8.2770   -1.9100    6.1390 h1        1 ASV      0.123700
     40 H321       10.1200   -2.5080    3.7130 ha        1 ASV      0.147000
     41 H331       10.6650   -2.2790    6.7840 ha        1 ASV      0.138000
     42 H332       11.8090   -2.9660    5.4930 ha        1 ASV      0.138000
     43 H112        5.4740    1.4650    4.7140 hn        1 ASV      0.482800
     44 H143        1.7850   -2.6710    1.1320 hn        1 ASV      0.453467
     45 H292        8.1780   -4.0720    4.5720 ho        1 ASV      0.449000
@<TRIPOS>BOND
     1    1    2 1   
     2    1   15 1   
     3    1   16 1   
     4    2    3 1   
     5    2   10 1   
     6    2   24 1   
     7    3    4 1   
     8    3   25 1   
     9    3   26 1   
    10    4    5 1   
    11    4   27 1   
    12    4   28 1   
    13    5    6 1   
    14    5   29 1   
    15    5   30 1   
    16    6    7 1   
    17    6   11 2   
    18    7    8 1   
    19    7   31 1   
    20    7   43 1   
    21    8    9 1   
    22    8   12 1   
    23    8   32 1   
    24    9   14 2   
    25    9   17 1   
    26   10   33 1   
    27   10   34 1   
    28   10   44 1   
    29   12   13 1   
    30   12   35 1   
    31   12   36 1   
    32   13   37 1   
    33   17   18 1   
    34   17   38 1   
    35   18   19 1   
    36   18   20 1   
    37   18   39 1   
    38   19   22 2   
    39   19   23 1   
    40   20   21 2   
    41   20   40 1   
    42   21   41 1   
    43   21   42 1   
    44   23   45 1   
@<TRIPOS>SUBSTRUCTURE
     1 ASV         1 TEMP              0 ****  ****    0 ROOT
