@<TRIPOS>MOLECULE
ASV
   42    41     1     0     0
SMALL
bcc


@<TRIPOS>ATOM
      1 C1         -0.2930   -0.6900    6.7630 c         1 ASV      0.886600
      2 C2          0.3750   -0.5160    5.3590 c3        1 ASV      0.022500
      3 C3         -0.7230   -0.2330    4.3320 c3        1 ASV     -0.065400
      4 C4         -0.1720    0.2480    3.0050 c3        1 ASV     -0.074400
      5 C7         -1.2990    0.5750    2.0470 c3        1 ASV     -0.150400
      6 C10        -0.8130    1.1770    0.7410 c         1 ASV      0.667100
      7 N11         0.0220    0.4040   -0.0430 n         1 ASV     -0.552900
      8 C12         0.4640    0.7980   -1.3530 c3        1 ASV      0.045700
      9 C13         0.0350   -0.2430   -2.4390 c         1 ASV      0.629100
     10 N14         1.2590   -1.6110    4.9770 n3        1 ASV     -0.891800
     11 O15        -1.1530    2.3270    0.3910 o         1 ASV     -0.630100
     12 C16         1.9920    0.8960   -1.4730 c3        1 ASV     -0.006300
     13 S17         2.5690    2.3450   -0.6310 sh        1 ASV     -0.354900
     14 O18        -0.1180   -1.4450   -2.1220 o         1 ASV     -0.651100
     15 O19         0.0110   -1.7110    7.4470 o         1 ASV     -0.849300
     16 O20        -1.0850    0.2110    7.1560 o         1 ASV     -0.849300
     17 N29        -0.1190    0.2300   -3.7060 n         1 ASV     -0.521900
     18 C30        -0.4240   -0.5930   -4.8560 c3        1 ASV     -0.016100
     19 C31        -1.0300    0.2880   -6.0240 c         1 ASV      0.921600
     20 C32         0.7860   -1.2840   -5.4200 c2        1 ASV     -0.125200
     21 C33         0.8770   -2.6030   -5.5740 c2        1 ASV     -0.252000
     22 O42        -1.9270   -0.2480   -6.7220 o         1 ASV     -0.825300
     23 O43        -0.5710    1.4530   -6.1760 o         1 ASV     -0.825300
     24 H2          1.0280    0.4030    5.4340 h1        1 ASV      0.042700
     25 H3C1       -1.3430   -1.1530    4.1700 hc        1 ASV      0.046200
     26 H3C2       -1.3940    0.5500    4.7770 hc        1 ASV      0.046200
     27 H4C1        0.4580    1.1610    3.1700 hc        1 ASV      0.047200
     28 H4C2        0.4930   -0.5380    2.5630 hc        1 ASV      0.047200
     29 H7C1       -1.8930   -0.3500    1.8240 hc        1 ASV      0.064200
     30 H7C2       -1.9910    1.3220    2.5200 hc        1 ASV      0.064200
     31 H11         0.1570   -0.5530    0.1930 hn        1 ASV      0.326500
     32 H12         0.0120    1.8110   -1.5860 h1        1 ASV      0.110700
     33 H141        1.7360   -1.9130    5.8110 hn        1 ASV      0.329300
     34 H142        0.6960   -2.3880    4.6790 hn        1 ASV      0.329300
     35 H161        2.4760   -0.0180   -1.0530 h1        1 ASV      0.069200
     36 H162        2.2660    0.9680   -2.5540 h1        1 ASV      0.069200
     37 H17         3.8590    2.1860   -0.8550 hs        1 ASV      0.172800
     38 H29        -0.0230    1.2040   -3.9000 hn        1 ASV      0.333500
     39 H30        -1.1950   -1.3590   -4.5510 h1        1 ASV      0.069700
     40 H321        1.5900   -0.6070   -5.7510 ha        1 ASV      0.111000
     41 H331        0.0860   -3.2920   -5.2540 ha        1 ASV      0.094000
     42 H332        1.7470   -3.0790   -6.0400 ha        1 ASV      0.094000
@<TRIPOS>BOND
     1    1    2 1   
     2    1   15 1   
     3    1   16 1   
     4    2    3 1   
     5    2   10 1   
     6    2   24 1   
     7    3    4 1   
     8    3   25 1   
     9    3   26 1   
    10    4    5 1   
    11    4   27 1   
    12    4   28 1   
    13    5    6 1   
    14    5   29 1   
    15    5   30 1   
    16    6    7 1   
    17    6   11 2   
    18    7    8 1   
    19    7   31 1   
    20    8    9 1   
    21    8   12 1   
    22    8   32 1   
    23    9   14 2   
    24    9   17 1   
    25   10   33 1   
    26   10   34 1   
    27   12   13 1   
    28   12   35 1   
    29   12   36 1   
    30   13   37 1   
    31   17   18 1   
    32   17   38 1   
    33   18   19 1   
    34   18   20 1   
    35   18   39 1   
    36   19   22 1   
    37   19   23 1   
    38   20   21 2   
    39   20   40 1   
    40   21   41 1   
    41   21   42 1   
@<TRIPOS>SUBSTRUCTURE
     1 ASV         1 TEMP              0 ****  ****    0 ROOT
