@<TRIPOS>MOLECULE
ASV
   42    39     1     0     0
SMALL
bcc


@<TRIPOS>ATOM
      1 C1         -5.8630    0.8820   -3.5850 c1        1 ASV      0.306000
      2 C2         -4.6950    1.5360   -2.8840 c2        1 ASV     -0.125000
      3 C3         -4.2720    0.6850   -1.7080 c3        1 ASV     -0.144000
      4 C4         -2.7760    0.7980   -1.5160 c3        1 ASV     -0.153000
      5 C7         -2.2880   -0.3560   -0.6680 c3        1 ASV     -0.179000
      6 C10        -1.0150    0.0450    0.0450 c2        1 ASV      0.305000
      7 N11        -0.0150   -0.9260    0.3110 n         1 ASV     -0.371000
      8 C12         0.9310   -0.7060    1.3480 c3        1 ASV      0.000000
      9 C13         2.3300   -0.8170    0.7860 c2        1 ASV      0.279000
     10 N14        -5.0800    2.8250   -2.4230 n3        1 ASV     -0.324000
     11 O15        -0.8670    1.1890    0.4250 o         1 ASV     -0.406000
     12 C16         0.7390   -1.7420    2.4330 c3        1 ASV     -0.250000
     13 S17         0.2530   -0.9400    3.9370 sh        1 ASV     -0.095000
     14 O18         2.5320   -1.4780   -0.2140 o         1 ASV     -0.411000
     15 O19        -5.7980    0.6300   -4.8170 o         1 ASV     -0.583000
     16 O20        -6.9000    0.5830   -2.9360 o         1 ASV     -0.583000
     17 N29         3.4130   -0.1860    1.4500 n         1 ASV     -0.328000
     18 C30         4.7460   -0.4450    1.0370 c3        1 ASV     -0.049000
     19 C31         5.2460    0.7070    0.1930 c2        1 ASV      0.340000
     20 C32         5.6300   -0.5980    2.2550 c2        1 ASV     -0.119000
     21 C33         6.7480   -1.3460    2.1860 c1        1 ASV     -0.252000
     22 O42         5.5430    0.5190   -1.0150 o         1 ASV     -0.559000
     23 O43         5.3700    1.8520    0.7020 o         1 ASV     -0.559000
     24 H2         -3.9480    1.6230   -3.5080 h4        1 ASV      0.082000
     25 H3C1       -4.5090   -0.2490   -1.8790 hc        1 ASV      0.086500
     26 H3C2       -4.7300    0.9950   -0.9010 hc        1 ASV      0.086500
     27 H4C1       -2.5680    1.6420   -1.0680 hc        1 ASV      0.086000
     28 H4C2       -2.3320    0.7740   -2.3870 hc        1 ASV      0.086000
     29 H7C1       -2.1100   -1.1290   -1.2410 hc        1 ASV      0.105500
     30 H7C2       -2.9720   -0.5890   -0.0090 hc        1 ASV      0.105500
     31 H11        -0.0000   -1.7060   -0.1610 hn        1 ASV      0.248000
     32 H12         0.8000    0.1870    1.7230 h1        1 ASV      0.138000
     33 H141       -4.7060    3.4660   -2.9600 hn        1 ASV      0.125500
     34 H142       -5.9920    2.8990   -2.4490 hn        1 ASV      0.125500
     35 H161        1.5790   -2.2230    2.5760 h1        1 ASV      0.120500
     36 H162        0.0440   -2.3740    2.1610 h1        1 ASV      0.120500
     37 H17        -0.1950   -1.7360    4.6800 hs        1 ASV      0.085000
     38 H29         3.2540    0.3660    2.1580 hn        1 ASV      0.249000
     39 H30         4.7710   -1.2690    0.5110 h1        1 ASV      0.110000
     40 H321        5.3910   -0.1550    3.0910 ha        1 ASV      0.113000
     41 H331        6.9890   -1.7900    1.3490 DU        1 ASV      0.109000
     42 H332        7.3200   -1.4450    2.9730 ha        1 ASV      0.080000
@<TRIPOS>BOND
     1    1   15 1   
     2    1   16 1   
     3    2    3 1   
     4    2   10 1   
     5    2   24 1   
     6    3    4 1   
     7    3   25 1   
     8    3   26 1   
     9    4    5 1   
    10    4   27 1   
    11    4   28 1   
    12    5    6 1   
    13    5   29 1   
    14    5   30 1   
    15    6    7 1   
    16    6   11 1   
    17    7    8 1   
    18    7   31 1   
    19    8    9 1   
    20    8   12 1   
    21    8   32 1   
    22    9   14 1   
    23    9   17 1   
    24   10   33 1   
    25   10   34 1   
    26   12   13 1   
    27   12   35 1   
    28   12   36 1   
    29   13   37 1   
    30   17   18 1   
    31   17   38 1   
    32   18   19 1   
    33   18   20 1   
    34   18   39 1   
    35   19   22 1   
    36   19   23 1   
    37   20   21 1   
    38   20   40 1   
    39   21   42 1   
@<TRIPOS>SUBSTRUCTURE
     1 ASV         1 TEMP              0 ****  ****    0 ROOT
