@<TRIPOS>MOLECULE
ASV
   45    44     1     0     0
SMALL
bcc


@<TRIPOS>ATOM
      1 C1          2.5310   -0.7200    2.4860 c         1 ASV      0.939600
      2 C2          3.6080   -1.2360    1.4070 c3        1 ASV     -0.081500
      3 C3          3.9830   -0.0870    0.4730 c3        1 ASV     -0.076400
      4 C4          5.2490    0.6230    0.9200 c3        1 ASV     -0.065400
      5 C7          5.0940    1.1400    2.3340 c3        1 ASV     -0.177400
      6 C10         6.1940    2.0550    2.7440 c         1 ASV      0.570100
      7 N11         6.1650    2.4100    4.2310 ny        1 ASV     -0.701800
      8 C12         7.4300    2.0150    4.9320 c3        1 ASV      0.061500
      9 C13         7.3430    0.5100    5.2970 c         1 ASV      0.638100
     10 N14         3.0050   -2.3960    0.6800 nz        1 ASV     -0.828600
     11 O15         7.1010    2.5590    2.1010 o         1 ASV     -0.435100
     12 C16         7.6440    2.7970    6.2280 c3        1 ASV     -0.046300
     13 S17         7.4090    4.5210    5.9100 sh        1 ASV     -0.338900
     14 O18         6.3990    0.1310    6.0120 o         1 ASV     -0.553100
     15 O19         1.3470   -1.0530    2.2540 o         1 ASV     -0.767800
     16 O20         2.9970   -0.0480    3.4300 o         1 ASV     -0.767800
     17 N29         8.3250   -0.3250    4.8250 ns        1 ASV     -0.522900
     18 C30         8.1470   -1.7620    4.8690 c3        1 ASV      0.052900
     19 C31         7.2950   -2.2730    3.7010 c         1 ASV      0.624100
     20 C32         9.4630   -2.4890    4.8700 c2        1 ASV     -0.253200
     21 C33        10.0670   -2.8720    5.9930 c2        1 ASV     -0.125000
     22 O42         6.6930   -1.5870    2.8700 o         1 ASV     -0.542000
     23 O43         7.1280   -3.6090    3.5380 oh        1 ASV     -0.558100
     24 H2          4.5190   -1.6110    1.9570 hx        1 ASV      0.111700
     25 H3C1        3.1300    0.6430    0.4390 hc        1 ASV      0.064200
     26 H3C2        4.1570   -0.4440   -0.5790 hc        1 ASV      0.064200
     27 H4C1        6.1200   -0.0850    0.8790 hc        1 ASV      0.070200
     28 H4C2        5.4600    1.4700    0.2140 hc        1 ASV      0.070200
     29 H7C1        4.1030    1.6690    2.4540 hc        1 ASV      0.149200
     30 H7C2        5.0620    0.2510    3.0420 hc        1 ASV      0.149200
     31 H11         5.3640    1.9350    4.6790 hn        1 ASV      0.483300
     32 H12         8.2830    2.2400    4.2200 hx        1 ASV      0.131700
     33 H141        1.9690   -2.2730    0.7320 hn        1 ASV      0.451800
     34 H142        3.3040   -2.4370   -0.2920 hn        1 ASV      0.451800
     35 H161        8.6970    2.6180    6.5690 h1        1 ASV      0.119200
     36 H162        6.9610    2.4210    7.0310 h1        1 ASV      0.119200
     37 H17         6.7290    4.8640    7.0020 hs        1 ASV      0.251800
     38 H29         7.6400   -4.0980    4.2020 ho        1 ASV      0.450000
     39 H30         7.5620   -2.0070    5.8150 h1        1 ASV      0.124700
     40 H321        9.9010   -2.6750    3.8760 ha        1 ASV      0.148000
     41 H331        9.6520   -2.6840    6.9940 ha        1 ASV      0.138500
     42 H332       11.0270   -3.4110    5.9800 ha        1 ASV      0.138500
     43 H112        6.0600    3.4400    4.3480 hn        1 ASV      0.483300
     44 H143        3.2510   -3.2630    1.1560 hn        1 ASV      0.451800
     45 H292        9.0320    0.0250    4.2200 hn        1 ASV      0.334500
@<TRIPOS>BOND
     1    1    2 1   
     2    1   15 1   
     3    1   16 1   
     4    2    3 1   
     5    2   10 1   
     6    2   24 1   
     7    3    4 1   
     8    3   25 1   
     9    3   26 1   
    10    4    5 1   
    11    4   27 1   
    12    4   28 1   
    13    5    6 1   
    14    5   29 1   
    15    5   30 1   
    16    6    7 1   
    17    6   11 2   
    18    7    8 1   
    19    7   31 1   
    20    7   43 1   
    21    8    9 1   
    22    8   12 1   
    23    8   32 1   
    24    9   14 2   
    25    9   17 1   
    26   10   33 1   
    27   10   34 1   
    28   10   44 1   
    29   12   13 1   
    30   12   35 1   
    31   12   36 1   
    32   13   37 1   
    33   17   18 1   
    34   17   45 1   
    35   18   19 1   
    36   18   20 1   
    37   18   39 1   
    38   19   22 2   
    39   19   23 1   
    40   20   21 2   
    41   20   40 1   
    42   21   41 1   
    43   21   42 1   
    44   23   38 1   
@<TRIPOS>SUBSTRUCTURE
     1 ASV         1 TEMP              0 ****  ****    0 ROOT
