@<TRIPOS>MOLECULE
ASW
   47    50     1     0     0
SMALL
bcc


@<TRIPOS>ATOM
      1 C1          0.5090    0.9220    0.1250 c3        1 ASW      0.118700
      2 O2          1.9140    0.7350    0.2550 os        1 ASW     -0.347900
      3 C3          2.3610    0.2690    1.4820 ca        1 ASW      0.099100
      4 C4          1.6110    0.3860    2.6500 ca        1 ASW     -0.210000
      5 C5          2.1480   -0.0390    3.8850 ca        1 ASW      0.164600
      6 N6          1.3810    0.0830    5.0560 nu        1 ASW     -0.781500
      7 S7          1.4580   -0.8370    6.3990 s6        1 ASW      1.470900
      8 C8          0.8770   -2.3450    5.8740 c3        1 ASW     -0.371300
      9 O9          2.7790   -1.0150    6.8440 o         1 ASW     -0.649300
     10 O10         0.5380   -0.3010    7.3220 o         1 ASW     -0.649300
     11 C11         3.4550   -0.5640    3.9100 ca        1 ASW     -0.181000
     12 C12         4.1860   -0.6970    2.7360 ca        1 ASW     -0.100000
     13 C13         3.6640   -0.3080    1.4890 ca        1 ASW      0.083600
     14 N14         4.3700   -0.5580    0.2840 nu        1 ASW     -0.590000
     15 C15         5.7260   -0.1180    0.2220 ca        1 ASW      0.154600
     16 C16         6.0630    1.1900   -0.2150 ca        1 ASW     -0.154300
     17 C17         5.0800    2.1790   -0.5380 ca        1 ASW     -0.112000
     18 C18         5.4470    3.4210   -0.9670 ca        1 ASW     -0.130500
     19 C19         6.8230    3.7620   -1.1020 ca        1 ASW     -0.118000
     20 C20         7.7970    2.8610   -0.7970 ca        1 ASW     -0.173800
     21 C21         7.4560    1.5330   -0.3330 ca        1 ASW      0.423600
     22 N22         8.4530    0.6720   -0.0260 nb        1 ASW     -0.660000
     23 C23         8.1290   -0.5700    0.3980 ca        1 ASW      0.423600
     24 C24         9.1950   -1.4940    0.7290 ca        1 ASW     -0.173800
     25 C25         8.9150   -2.7620    1.1370 ca        1 ASW     -0.118000
     26 C26         7.5680   -3.2120    1.2450 ca        1 ASW     -0.130500
     27 C27         6.5320   -2.3740    0.9530 ca        1 ASW     -0.112000
     28 C28         6.7690   -1.0260    0.5320 ca        1 ASW     -0.154300
     29 H1          0.3690    1.0880   -0.9730 h1        1 ASW      0.047367
     30 H2          0.1870    1.8250    0.7010 h1        1 ASW      0.047367
     31 H3         -0.0510    0.0180    0.4650 h1        1 ASW      0.047367
     32 H4          0.6040    0.8270    2.6100 ha        1 ASW      0.141000
     33 H5          0.7040    0.8120    5.0050 hn        1 ASW      0.457800
     34 H6          1.4100   -2.7510    4.9790 h1        1 ASW      0.118700
     35 H7         -0.2110   -2.3340    5.6220 h1        1 ASW      0.118700
     36 H8          1.0040   -3.1120    6.6810 h1        1 ASW      0.118700
     37 H9          3.9250   -0.8670    4.8630 ha        1 ASW      0.173000
     38 H10         5.2060   -1.1150    2.7880 ha        1 ASW      0.158000
     39 H11         3.8540   -0.2320   -0.5160 hn        1 ASW      0.410800
     40 H12         4.0100    1.9380   -0.4220 ha        1 ASW      0.147000
     41 H13         4.6890    4.1800   -1.2110 ha        1 ASW      0.135500
     42 H14         7.0830    4.7720   -1.4560 ha        1 ASW      0.137000
     43 H15         8.8640    3.1200   -0.8950 ha        1 ASW      0.152000
     44 H16        10.2350   -1.1400    0.6390 ha        1 ASW      0.152000
     45 H17         9.7260   -3.4630    1.3880 ha        1 ASW      0.137000
     46 H18         7.3830   -4.2480    1.5660 ha        1 ASW      0.135500
     47 H19         5.4930   -2.7310    1.0300 ha        1 ASW      0.147000
@<TRIPOS>BOND
     1    1    2 1   
     2    1   29 1   
     3    1   30 1   
     4    1   31 1   
     5    2    3 1   
     6    3    4 ar  
     7    3   13 ar  
     8    4    5 ar  
     9    4   32 1   
    10    5    6 1   
    11    5   11 ar  
    12    6    7 1   
    13    6   33 1   
    14    7    8 1   
    15    7    9 2   
    16    7   10 2   
    17    8   34 1   
    18    8   35 1   
    19    8   36 1   
    20   11   12 ar  
    21   11   37 1   
    22   12   13 ar  
    23   12   38 1   
    24   13   14 1   
    25   14   15 1   
    26   14   39 1   
    27   15   16 ar  
    28   15   28 ar  
    29   16   17 ar  
    30   16   21 ar  
    31   17   18 ar  
    32   17   40 1   
    33   18   19 ar  
    34   18   41 1   
    35   19   20 ar  
    36   19   42 1   
    37   20   21 ar  
    38   20   43 1   
    39   21   22 ar  
    40   22   23 ar  
    41   23   24 ar  
    42   23   28 ar  
    43   24   25 ar  
    44   24   44 1   
    45   25   26 ar  
    46   25   45 1   
    47   26   27 ar  
    48   26   46 1   
    49   27   28 ar  
    50   27   47 1   
@<TRIPOS>SUBSTRUCTURE
     1 ASW         1 TEMP              0 ****  ****    0 ROOT
