@<TRIPOS>MOLECULE
ASW
   47    50     1     0     0
SMALL
bcc


@<TRIPOS>ATOM
      1 C1          0.5070    0.9590    0.1510 c3        1 ASW      0.118700
      2 O2          1.9110    0.7560    0.2700 os        1 ASW     -0.347900
      3 C3          2.3610    0.2870    1.4950 ca        1 ASW      0.099100
      4 C4          1.6190    0.4090    2.6680 ca        1 ASW     -0.210000
      5 C5          2.1610   -0.0200    3.8990 ca        1 ASW      0.164600
      6 N6          1.4030    0.1070    5.0750 nh        1 ASW     -0.781500
      7 S7          1.4830   -0.8120    6.4180 s6        1 ASW      1.470900
      8 C8          0.8900   -2.3160    5.8990 c3        1 ASW     -0.371300
      9 O9          2.8050   -0.9970    6.8550 o         1 ASW     -0.649300
     10 O10         0.5720   -0.2690    7.3470 o         1 ASW     -0.649300
     11 C11         3.4650   -0.5560    3.9150 ca        1 ASW     -0.182000
     12 C12         4.1860   -0.6940    2.7360 ca        1 ASW     -0.100000
     13 C13         3.6600   -0.3010    1.4920 ca        1 ASW      0.082600
     14 N14         4.3550   -0.5570    0.2830 nh        1 ASW     -0.590000
     15 C15         5.7150   -0.1290    0.2120 ca        1 ASW      0.154600
     16 C16         6.0610    1.1760   -0.2260 ca        1 ASW     -0.154300
     17 C17         5.0850    2.1750   -0.5410 ca        1 ASW     -0.112000
     18 C18         5.4610    3.4130   -0.9720 ca        1 ASW     -0.130500
     19 C19         6.8390    3.7420   -1.1170 ca        1 ASW     -0.118000
     20 C20         7.8070    2.8320   -0.8180 ca        1 ASW     -0.173800
     21 C21         7.4560    1.5060   -0.3530 ca        1 ASW      0.424100
     22 N22         8.4480    0.6360   -0.0520 nb        1 ASW     -0.660000
     23 C23         8.1150   -0.6030    0.3740 ca        1 ASW      0.424100
     24 C24         9.1750   -1.5360    0.6970 ca        1 ASW     -0.173800
     25 C25         8.8860   -2.8020    1.1070 ca        1 ASW     -0.118000
     26 C26         7.5350   -3.2400    1.2230 ca        1 ASW     -0.130500
     27 C27         6.5050   -2.3930    0.9380 ca        1 ASW     -0.112000
     28 C28         6.7510   -1.0470    0.5160 ca        1 ASW     -0.154300
     29 H1         -0.0600    0.0610    0.4930 h1        1 ASW      0.047367
     30 H2          0.1980    1.8640    0.7290 h1        1 ASW      0.047367
     31 H3          0.3610    1.1270   -0.9470 h1        1 ASW      0.047367
     32 H4          0.6160    0.8590    2.6340 ha        1 ASW      0.141000
     33 H5          0.7300    0.8410    5.0270 hn        1 ASW      0.457800
     34 H6         -0.1990   -2.3000    5.6530 h1        1 ASW      0.118700
     35 H7          1.0160   -3.0830    6.7060 h1        1 ASW      0.118700
     36 H8          1.4160   -2.7270    5.0020 h1        1 ASW      0.118700
     37 H9          3.9380   -0.8630    4.8650 ha        1 ASW      0.173000
     38 H10         5.2030   -1.1220    2.7820 ha        1 ASW      0.158000
     39 H11         3.8370   -0.2250   -0.5140 hn        1 ASW      0.410800
     40 H12         4.0140    1.9440   -0.4200 ha        1 ASW      0.147000
     41 H13         4.7080    4.1790   -1.2120 ha        1 ASW      0.135500
     42 H14         7.1060    4.7490   -1.4720 ha        1 ASW      0.137000
     43 H15         8.8750    3.0810   -0.9230 ha        1 ASW      0.152000
     44 H16        10.2170   -1.1930    0.6010 ha        1 ASW      0.152000
     45 H17         9.6920   -3.5100    1.3520 ha        1 ASW      0.137000
     46 H18         7.3420   -4.2740    1.5450 ha        1 ASW      0.135500
     47 H19         5.4630   -2.7400    1.0210 ha        1 ASW      0.147000
@<TRIPOS>BOND
     1    1    2 1   
     2    1   29 1   
     3    1   30 1   
     4    1   31 1   
     5    2    3 1   
     6    3    4 ar  
     7    3   13 ar  
     8    4    5 ar  
     9    4   32 1   
    10    5    6 1   
    11    5   11 ar  
    12    6    7 1   
    13    6   33 1   
    14    7    8 1   
    15    7    9 2   
    16    7   10 2   
    17    8   34 1   
    18    8   35 1   
    19    8   36 1   
    20   11   12 ar  
    21   11   37 1   
    22   12   13 ar  
    23   12   38 1   
    24   13   14 1   
    25   14   15 1   
    26   14   39 1   
    27   15   16 ar  
    28   15   28 ar  
    29   16   17 ar  
    30   16   21 ar  
    31   17   18 ar  
    32   17   40 1   
    33   18   19 ar  
    34   18   41 1   
    35   19   20 ar  
    36   19   42 1   
    37   20   21 ar  
    38   20   43 1   
    39   21   22 ar  
    40   22   23 ar  
    41   23   24 ar  
    42   23   28 ar  
    43   24   25 ar  
    44   24   44 1   
    45   25   26 ar  
    46   25   45 1   
    47   26   27 ar  
    48   26   46 1   
    49   27   28 ar  
    50   27   47 1   
@<TRIPOS>SUBSTRUCTURE
     1 ASW         1 TEMP              0 ****  ****    0 ROOT
