@<TRIPOS>MOLECULE
ASW
   47    50     1     0     0
SMALL
bcc


@<TRIPOS>ATOM
      1 C1          1.4530    3.6440    1.9970 c3        1 ASW      0.118700
      2 O2          0.5230    2.6860    1.5020 os        1 ASW     -0.347900
      3 C3          1.0630    1.5400    0.9410 ca        1 ASW      0.099100
      4 C4          2.3730    1.4770    0.4700 ca        1 ASW     -0.210000
      5 C5          2.8460    0.3060   -0.1610 ca        1 ASW      0.164600
      6 N6          4.1700    0.2530   -0.6300 nh        1 ASW     -0.781500
      7 S7          5.1190   -1.0600   -0.7920 s6        1 ASW      1.470900
      8 C8          5.4020   -1.5390    0.8130 c3        1 ASW     -0.371300
      9 O9          4.4600   -2.1140   -1.4460 o         1 ASW     -0.649300
     10 O10         6.3390   -0.6240   -1.3490 o         1 ASW     -0.649300
     11 C11         1.9640   -0.7830   -0.3160 ca        1 ASW     -0.181000
     12 C12         0.6680   -0.7180    0.1770 ca        1 ASW     -0.100000
     13 C13         0.1800    0.4260    0.8340 ca        1 ASW      0.083600
     14 N14        -1.1030    0.4390    1.4390 nh        1 ASW     -0.590000
     15 C15        -2.2070    0.0320    0.6290 ca        1 ASW      0.154600
     16 C16        -2.9170    0.9590   -0.1770 ca        1 ASW     -0.154300
     17 C17        -2.5340    2.3320   -0.3050 ca        1 ASW     -0.112000
     18 C18        -3.2540    3.1940   -1.0810 ca        1 ASW     -0.130500
     19 C19        -4.4070    2.7430   -1.7840 ca        1 ASW     -0.118000
     20 C20        -4.8070    1.4430   -1.7050 ca        1 ASW     -0.173800
     21 C21        -4.0720    0.4920   -0.8980 ca        1 ASW      0.424100
     22 N22        -4.4930   -0.7930   -0.8590 nb        1 ASW     -0.660000
     23 C23        -3.8090   -1.6760   -0.0970 ca        1 ASW      0.424100
     24 C24        -4.2570   -3.0530   -0.0530 ca        1 ASW     -0.173800
     25 C25        -3.6120   -3.9700    0.7190 ca        1 ASW     -0.118000
     26 C26        -2.4840   -3.5970    1.5050 ca        1 ASW     -0.130500
     27 C27        -2.0210   -2.3140    1.4880 ca        1 ASW     -0.112000
     28 C28        -2.6530   -1.3120    0.6840 ca        1 ASW     -0.154300
     29 H1          0.8100    4.3550    2.5760 h1        1 ASW      0.047367
     30 H2          2.2110    3.1640    2.6610 h1        1 ASW      0.047367
     31 H3          1.9500    4.1710    1.1470 h1        1 ASW      0.047367
     32 H4          3.0340    2.3500    0.5760 ha        1 ASW      0.141000
     33 H5          4.5410    1.1520   -0.8510 hn        1 ASW      0.457800
     34 H6          4.4720   -1.6870    1.4140 h1        1 ASW      0.118700
     35 H7          5.9420   -2.5210    0.8360 h1        1 ASW      0.118700
     36 H8          6.0410   -0.8200    1.3810 h1        1 ASW      0.118700
     37 H9          2.2850   -1.7000   -0.8420 ha        1 ASW      0.173000
     38 H10         0.0030   -1.5890    0.0430 ha        1 ASW      0.158000
     39 H11        -1.2920    1.3250    1.8770 hn        1 ASW      0.410800
     40 H12        -1.6340    2.6950    0.2200 ha        1 ASW      0.147000
     41 H13        -2.9550    4.2480   -1.1790 ha        1 ASW      0.135500
     42 H14        -4.9670    3.4660   -2.3970 ha        1 ASW      0.137000
     43 H15        -5.6950    1.0860   -2.2510 ha        1 ASW      0.152000
     44 H16        -5.1320   -3.3340   -0.6600 ha        1 ASW      0.152000
     45 H17        -3.9540   -5.0160    0.7520 ha        1 ASW      0.137000
     46 H18        -1.9980   -4.3640    2.1270 ha        1 ASW      0.135500
     47 H19        -1.1540   -2.0300    2.1050 ha        1 ASW      0.147000
@<TRIPOS>BOND
     1    1    2 1   
     2    1   29 1   
     3    1   30 1   
     4    1   31 1   
     5    2    3 1   
     6    3    4 ar  
     7    3   13 ar  
     8    4    5 ar  
     9    4   32 1   
    10    5    6 1   
    11    5   11 ar  
    12    6    7 1   
    13    6   33 1   
    14    7    8 1   
    15    7    9 2   
    16    7   10 2   
    17    8   34 1   
    18    8   35 1   
    19    8   36 1   
    20   11   12 ar  
    21   11   37 1   
    22   12   13 ar  
    23   12   38 1   
    24   13   14 1   
    25   14   15 1   
    26   14   39 1   
    27   15   16 ar  
    28   15   28 ar  
    29   16   17 ar  
    30   16   21 ar  
    31   17   18 ar  
    32   17   40 1   
    33   18   19 ar  
    34   18   41 1   
    35   19   20 ar  
    36   19   42 1   
    37   20   21 ar  
    38   20   43 1   
    39   21   22 ar  
    40   22   23 ar  
    41   23   24 ar  
    42   23   28 ar  
    43   24   25 ar  
    44   24   44 1   
    45   25   26 ar  
    46   25   45 1   
    47   26   27 ar  
    48   26   46 1   
    49   27   28 ar  
    50   27   47 1   
@<TRIPOS>SUBSTRUCTURE
     1 ASW         1 TEMP              0 ****  ****    0 ROOT
