@<TRIPOS>MOLECULE
ASW
   49    51     1     0     0
SMALL
bcc


@<TRIPOS>ATOM
      1 C1          0.9920   -2.1640    0.0710 c3        1 ASW      0.111700
      2 O2          2.1140   -1.2720    0.0680 os        1 ASW     -0.346900
      3 C3          2.3320   -0.5130    1.1870 ca        1 ASW      0.194100
      4 C4          1.5660   -0.5980    2.3570 ca        1 ASW     -0.199000
      5 C5          1.8800    0.2130    3.4610 ca        1 ASW      0.084600
      6 N6          1.1170    0.1040    4.6750 nh        1 ASW     -0.890200
      7 S7          2.0120   -1.5030    6.1440 s4        1 ASW      1.636500
      8 C8          0.9570   -1.1710    7.3020 c3        1 ASW     -0.570800
      9 O9          1.7190   -2.5410    5.3310 o         1 ASW     -0.403400
     10 O10         3.2230   -0.9130    6.2340 o         1 ASW     -0.403400
     11 C11         2.9590    1.1150    3.3840 ca        1 ASW     -0.150000
     12 C12         3.7190    1.2020    2.2230 ca        1 ASW     -0.029000
     13 C13         3.4140    0.4070    1.1090 ca        1 ASW     -0.061400
     14 N14         4.1900    0.5290   -0.1310 n4        1 ASW     -0.487800
     15 C15         5.6460    0.4980    0.0640 ca        1 ASW     -0.057400
     16 C16         6.3670    1.7120    0.1400 ca        1 ASW     -0.082800
     17 C17         5.7790    3.0120    0.1170 ca        1 ASW     -0.207500
     18 C18         6.5570    4.1380    0.1570 ca        1 ASW     -0.034000
     19 C19         7.9740    4.0440    0.2380 ca        1 ASW     -0.126500
     20 C20         8.5860    2.8260    0.2800 ca        1 ASW     -0.121300
     21 C21         7.8060    1.6070    0.2320 ca        1 ASW      0.401100
     22 N22         8.4540    0.4220    0.2640 nb        1 ASW     -0.568000
     23 C23         7.7470   -0.7260    0.2050 ca        1 ASW      0.401100
     24 C24         8.4590   -1.9870    0.2220 ca        1 ASW     -0.121300
     25 C25         7.7820   -3.1670    0.1490 ca        1 ASW     -0.126500
     26 C26         6.3610   -3.1830    0.0670 ca        1 ASW     -0.034000
     27 C27         5.6450   -2.0170    0.0550 ca        1 ASW     -0.207500
     28 C28         6.3040   -0.7530    0.1110 ca        1 ASW     -0.082800
     29 H1          1.0410   -2.6200   -0.9540 h1        1 ASW      0.077700
     30 H2          1.1220   -2.9430    0.8610 h1        1 ASW      0.077700
     31 H3          0.0430   -1.5920    0.2070 h1        1 ASW      0.077700
     32 H4          0.7220   -1.3080    2.3960 ha        1 ASW      0.178000
     33 H5          0.1680   -0.1680    4.4580 hn        1 ASW      0.421800
     34 H6          0.9840   -0.1190    7.7200 h1        1 ASW      0.207700
     35 H7         -0.1340   -1.3460    7.0540 h1        1 ASW      0.207700
     36 H8          1.0800   -1.7960    8.2480 h1        1 ASW      0.207700
     37 H9          3.2240    1.7640    4.2380 ha        1 ASW      0.178000
     38 H10         4.5710    1.9100    2.1860 ha        1 ASW      0.192000
     39 H11         3.9320   -0.2490   -0.7640 hn        1 ASW      0.475300
     40 H12         4.6880    3.1360    0.0640 ha        1 ASW      0.121500
     41 H13         6.0950    5.1400    0.1250 ha        1 ASW      0.161500
     42 H14         8.5680    4.9740    0.2640 ha        1 ASW      0.174500
     43 H15         9.6860    2.7400    0.3450 ha        1 ASW      0.185500
     44 H16         9.5620   -1.9630    0.2880 ha        1 ASW      0.185500
     45 H17         8.3240   -4.1280    0.1500 ha        1 ASW      0.174500
     46 H18         5.8470   -4.1580    0.0120 ha        1 ASW      0.161500
     47 H19         4.5460   -2.0720    0.0090 ha        1 ASW      0.121500
     48 H62         1.1000    0.9980    5.1450 hn        1 ASW      0.421800
     49 H142        3.9310    1.4160   -0.5890 hn        1 ASW      0.475300
@<TRIPOS>BOND
     1    1    2 1   
     2    1   29 1   
     3    1   30 1   
     4    1   31 1   
     5    2    3 1   
     6    3    4 ar  
     7    3   13 ar  
     8    4    5 ar  
     9    4   32 1   
    10    5    6 1   
    11    5   11 ar  
    12    6   33 1   
    13    6   48 1   
    14    7    8 1   
    15    7    9 1   
    16    7   10 1   
    17    8   34 1   
    18    8   35 1   
    19    8   36 1   
    20   11   12 ar  
    21   11   37 1   
    22   12   13 ar  
    23   12   38 1   
    24   13   14 1   
    25   14   15 1   
    26   14   39 1   
    27   14   49 1   
    28   15   16 ar  
    29   15   28 ar  
    30   16   17 ar  
    31   16   21 ar  
    32   17   18 ar  
    33   17   40 1   
    34   18   19 ar  
    35   18   41 1   
    36   19   20 ar  
    37   19   42 1   
    38   20   21 ar  
    39   20   43 1   
    40   21   22 ar  
    41   22   23 ar  
    42   23   24 ar  
    43   23   28 ar  
    44   24   25 ar  
    45   24   44 1   
    46   25   26 ar  
    47   25   45 1   
    48   26   27 ar  
    49   26   46 1   
    50   27   28 ar  
    51   27   47 1   
@<TRIPOS>SUBSTRUCTURE
     1 ASW         1 TEMP              0 ****  ****    0 ROOT
