@<TRIPOS>MOLECULE
ASW
   47    41     1     0     0
SMALL
bcc


@<TRIPOS>ATOM
      1 C1         -3.7280    1.0680   -2.1840 c3        1 ASW     -0.074000
      2 O2         -2.5950    0.2340   -2.0780 os        1 ASW     -0.237000
      3 C3         -2.0790    0.1380   -0.7740 c2        1 ASW      0.015000
      4 C4         -2.9390    0.1400    0.3140 c1        1 ASW     -0.159000
      5 C5         -2.4300    0.0440    1.6000 c1        1 ASW      0.055000
      6 N6         -3.3080    0.0850    2.7150 n3        1 ASW     -0.833000
      7 S7         -3.0690   -0.9290    3.9860 s4        1 ASW      2.042800
      8 C8         -4.4360   -0.8350    5.1120 c2        1 ASW     -0.948000
      9 O9         -2.8510   -2.2780    3.5420 o         1 ASW     -0.537400
     10 O10        -1.8270   -0.6490    4.6500 o         1 ASW     -0.537400
     11 C11        -1.0610   -0.0540    1.7980 c1        1 ASW     -0.151000
     12 C12        -0.2010   -0.0560    0.7100 c1        1 ASW     -0.124000
     13 C13        -0.7100    0.0400   -0.5760 c2        1 ASW      0.023000
     14 N14         0.1710    0.0210   -1.6930 n3        1 ASW     -0.227000
     15 C15         1.5770    0.0790   -1.4900 c2        1 ASW      0.074000
     16 C16         2.2490   -1.1390   -1.4840 c2        1 ASW     -0.105000
     17 C17         1.5380   -2.3360   -1.6900 c2        1 ASW     -0.121000
     18 C18         2.2170   -3.5490   -1.7290 c1        1 ASW     -0.123000
     19 C19         3.6010   -3.5800   -1.5650 c1        1 ASW     -0.115000
     20 C20         4.3030   -2.3990   -1.3620 c1        1 ASW     -0.115000
     21 C21         3.6180   -1.1700   -1.3220 c1        1 ASW      0.032000
     22 N22         4.3250    0.0150   -1.1640 n1        1 ASW     -0.134000
     23 C23         3.6560    1.2310   -1.1700 c1        1 ASW      0.029000
     24 C24         4.3800    2.4330   -1.0520 c1        1 ASW     -0.115000
     25 C25         3.7140    3.6520   -1.0980 c1        1 ASW     -0.115000
     26 C26         2.3300    3.6860   -1.2620 c1        1 ASW     -0.115000
     27 C27         1.6150    2.5000   -1.3790 c1        1 ASW     -0.115000
     28 C28         2.2870    1.2640   -1.3320 c1        1 ASW     -0.074000
     29 H1         -4.0790    1.0280   -3.1000 h1        1 ASW      0.082667
     30 H2         -3.4760    1.9920   -1.9710 h1        1 ASW      0.082667
     31 H3         -4.4180    0.7640   -1.5570 h1        1 ASW      0.082667
     32 H4         -3.9020    0.2170    0.1740 ha        1 ASW      0.145000
     33 H5         -4.0170    0.6580    2.7170 hn        1 ASW      0.254000
     34 H6         -4.6530    0.1050    5.2860 ha        1 ASW      0.156667
     35 H7         -4.1970   -1.2760    5.9540 ha        1 ASW      0.156667
     36 H8         -5.2150   -1.2820    4.7190 ha        1 ASW      0.156667
     37 H9         -0.7030   -0.1210    2.7030 ha        1 ASW      0.175000
     38 H10         0.7620   -0.1240    0.8500 ha        1 ASW      0.158000
     39 H11        -0.1660   -0.0260   -2.5390 hn        1 ASW      0.208000
     40 H12         0.5700   -2.3150   -1.8050 ha        1 ASW      0.143000
     41 H13         1.7240   -4.3800   -1.8720 ha        1 ASW      0.137000
     42 H14         4.0770   -4.4320   -1.5930 ha        1 ASW      0.144000
     43 H15         5.2730   -2.4210   -1.2470 ha        1 ASW      0.144000
     44 H16         5.3490    2.4090   -0.9370 ha        1 ASW      0.144000
     45 H17         4.2160    4.4850   -1.0160 ha        1 ASW      0.144000
     46 H18         1.8630    4.5430   -1.2950 ha        1 ASW      0.144000
     47 H19         0.6460    2.5240   -1.4940 ha        1 ASW      0.144000
@<TRIPOS>BOND
     1    1    2 1   
     2    1   29 1   
     3    1   30 1   
     4    1   31 1   
     5    2    3 1   
     6    3    4 1   
     7    3   13 1   
     8    4   32 1   
     9    5    6 1   
    10    5   11 1   
    11    6    7 1   
    12    6   33 1   
    13    7    9 1   
    14    7   10 1   
    15    8   34 1   
    16    8   35 1   
    17    8   36 1   
    18   11   37 1   
    19   12   13 1   
    20   12   38 1   
    21   13   14 1   
    22   14   15 1   
    23   14   39 1   
    24   15   16 1   
    25   15   28 1   
    26   16   17 1   
    27   16   21 1   
    28   17   18 1   
    29   17   40 1   
    30   18   41 1   
    31   19   20 1   
    32   19   42 1   
    33   20   43 1   
    34   22   23 1   
    35   23   28 1   
    36   24   25 1   
    37   24   44 1   
    38   25   45 1   
    39   26   27 1   
    40   26   46 1   
    41   27   47 1   
@<TRIPOS>SUBSTRUCTURE
     1 ASW         1 TEMP              0 ****  ****    0 ROOT
