@<TRIPOS>MOLECULE
ASY
   52    51     1     0     0
SMALL
bcc


@<TRIPOS>ATOM
      1 C9          0.2670    2.3270   -1.0970 c3        1 ASY     -0.182400
      2 C8          1.6110    1.6410   -0.9610 c3        1 ASY     -0.070400
      3 C7          1.8720    1.2430    0.4760 c3        1 ASY     -0.079400
      4 C6          3.1970    0.5240    0.6140 c3        1 ASY     -0.079400
      5 C5          3.4350    0.0760    2.0410 c3        1 ASY     -0.079400
      6 C4          4.7490   -0.6620    2.1790 c3        1 ASY     -0.078400
      7 C3          4.9600   -1.1550    3.5960 c3        1 ASY     -0.066400
      8 C2          6.2710   -1.8870    3.7480 c3        1 ASY     -0.194400
      9 C1          6.3720   -2.5710    5.1240 c         1 ASY      0.907600
     10 O2          5.3760   -3.2270    5.5470 o         1 ASY     -0.852800
     11 O1          7.4610   -2.4580    5.7570 o         1 ASY     -0.852800
     12 C10        -0.0280    2.6710   -2.5290 c         1 ASY      0.572100
     13 O10         0.1500    3.8040   -2.9870 o         1 ASY     -0.538100
     14 C11        -0.5500    1.5500   -3.3900 c3        1 ASY     -0.154200
     15 C12        -1.8990    1.1020   -2.9710 c2        1 ASY     -0.171200
     16 C13        -2.4420   -0.0620   -3.3430 c2        1 ASY     -0.162200
     17 C14        -1.7560   -1.0620   -4.1950 c3        1 ASY     -0.053200
     18 C15        -2.6820   -2.1820   -4.6230 c3        1 ASY     -0.076400
     19 C16        -1.9580   -3.1860   -5.4940 c3        1 ASY     -0.080400
     20 C17        -2.8790   -4.3070   -5.9230 c3        1 ASY     -0.079400
     21 C18        -2.1630   -5.3090   -6.7910 c3        1 ASY     -0.092100
     22 H9          0.2620    3.2650   -0.4790 hc        1 ASY      0.066700
     23 H9A        -0.5440    1.6540   -0.7110 hc        1 ASY      0.066700
     24 H8          2.4220    2.3310   -1.3150 hc        1 ASY      0.044200
     25 H8A         1.6390    0.7280   -1.6130 hc        1 ASY      0.044200
     26 H7          1.0450    0.5770    0.8380 hc        1 ASY      0.040700
     27 H7A         1.8700    2.1570    1.1270 hc        1 ASY      0.040700
     28 H6          3.2130   -0.3680   -0.0660 hc        1 ASY      0.035200
     29 H6A         4.0290    1.2020    0.2890 hc        1 ASY      0.035200
     30 H5          2.5950   -0.5920    2.3700 hc        1 ASY      0.037700
     31 H5A         3.4320    0.9680    2.7210 hc        1 ASY      0.037700
     32 H4          4.7640   -1.5350    1.4740 hc        1 ASY      0.026700
     33 H4A         5.5930    0.0150    1.8850 hc        1 ASY      0.026700
     34 H3          4.9330   -0.2840    4.3020 hc        1 ASY      0.044200
     35 H3A         4.1260   -1.8470    3.8920 hc        1 ASY      0.044200
     36 H2          6.3580   -2.6820    2.9650 hc        1 ASY      0.019200
     37 H2A         7.1290   -1.1820    3.6200 hc        1 ASY      0.019200
     38 H11        -0.5900    1.8900   -4.4620 hc        1 ASY      0.073700
     39 H11A        0.1790    0.6940   -3.3350 hc        1 ASY      0.073700
     40 H12        -2.4620    1.8010   -2.3310 ha        1 ASY      0.126000
     41 H13        -3.4570   -0.3310   -3.0070 ha        1 ASY      0.124000
     42 H14        -1.3330   -0.5550   -5.1060 hc        1 ASY      0.051200
     43 H14A       -0.8830   -1.4920   -3.6300 hc        1 ASY      0.051200
     44 H15        -3.0920   -2.6980   -3.7150 hc        1 ASY      0.040700
     45 H15A       -3.5540   -1.7550   -5.1840 hc        1 ASY      0.040700
     46 H16        -1.0850   -3.6110   -4.9320 hc        1 ASY      0.041700
     47 H16A       -1.5460   -2.6700   -6.4010 hc        1 ASY      0.041700
     48 H17        -3.7530   -3.8800   -6.4830 hc        1 ASY      0.037700
     49 H17A       -3.2900   -4.8220   -5.0140 hc        1 ASY      0.037700
     50 H18        -1.7670   -4.8200   -7.7140 hc        1 ASY      0.032367
     51 H18A       -2.8590   -6.1280   -7.0960 hc        1 ASY      0.032367
     52 H18B       -1.3040   -5.7640   -6.2410 hc        1 ASY      0.032367
@<TRIPOS>BOND
     1    1    2 1   
     2    1   12 1   
     3    1   22 1   
     4    1   23 1   
     5    2    3 1   
     6    2   24 1   
     7    2   25 1   
     8    3    4 1   
     9    3   26 1   
    10    3   27 1   
    11    4    5 1   
    12    4   28 1   
    13    4   29 1   
    14    5    6 1   
    15    5   30 1   
    16    5   31 1   
    17    6    7 1   
    18    6   32 1   
    19    6   33 1   
    20    7    8 1   
    21    7   34 1   
    22    7   35 1   
    23    8    9 1   
    24    8   36 1   
    25    8   37 1   
    26    9   10 1   
    27    9   11 1   
    28   12   13 2   
    29   12   14 1   
    30   14   15 1   
    31   14   38 1   
    32   14   39 1   
    33   15   16 2   
    34   15   40 1   
    35   16   17 1   
    36   16   41 1   
    37   17   18 1   
    38   17   42 1   
    39   17   43 1   
    40   18   19 1   
    41   18   44 1   
    42   18   45 1   
    43   19   20 1   
    44   19   46 1   
    45   19   47 1   
    46   20   21 1   
    47   20   48 1   
    48   20   49 1   
    49   21   50 1   
    50   21   51 1   
    51   21   52 1   
@<TRIPOS>SUBSTRUCTURE
     1 ASY         1 TEMP              0 ****  ****    0 ROOT
