@<TRIPOS>MOLECULE
ASY
   52    50     1     0     0
SMALL
bcc


@<TRIPOS>ATOM
      1 C9          0.3840   -0.7550    0.2600 c3        1 ASY     -0.209000
      2 C8          1.8930   -0.6790    0.1840 c3        1 ASY     -0.153000
      3 C7          2.4520   -0.3670    1.5550 c3        1 ASY     -0.158000
      4 C6          3.9500   -0.1830    1.4590 c3        1 ASY     -0.157000
      5 C5          4.4630    0.4530    2.7320 c3        1 ASY     -0.158000
      6 C4          5.9700    0.5640    2.6690 c3        1 ASY     -0.157000
      7 C3          6.4570    1.4620    3.7840 c3        1 ASY     -0.144000
      8 C2          7.9610    1.6070    3.6950 c3        1 ASY     -0.223000
      9 C1          8.4260    2.6480    4.6890 c2        1 ASY      0.327000
     10 O2          8.7370    2.3060    5.8600 o         1 ASY     -0.588000
     11 O1          8.5090    3.8560    4.3440 o         1 ASY     -0.588000
     12 C10        -0.1870   -0.8650   -1.1370 c2        1 ASY      0.230000
     13 O10         0.5520   -1.0660   -2.0800 o         1 ASY     -0.292000
     14 C11        -1.6760   -0.7170   -1.3600 c3        1 ASY     -0.189000
     15 C12        -1.9210    0.2040   -2.5350 c2        1 ASY     -0.161000
     16 C13        -3.1590    0.3170   -3.0550 c1        1 ASY     -0.174000
     17 C14        -4.3030   -0.4770   -2.4650 c2        1 ASY     -0.132000
     18 C15        -5.5980   -0.0670   -3.1320 c3        1 ASY     -0.155000
     19 C16        -6.7210   -0.9540   -2.6410 c3        1 ASY     -0.159000
     20 C17        -8.0230   -0.5170   -3.2740 c3        1 ASY     -0.158000
     21 C18        -9.1520   -1.3800   -2.7540 c3        1 ASY     -0.210000
     22 H9          0.0380    0.0520    0.6910 hc        1 ASY      0.102000
     23 H9A         0.1220   -1.5400    0.7820 hc        1 ASY      0.102000
     24 H8          2.2470   -1.5370   -0.1250 hc        1 ASY      0.091500
     25 H8A         2.1530    0.0250   -0.4420 hc        1 ASY      0.091500
     26 H7          2.0430    0.4550    1.8940 hc        1 ASY      0.075500
     27 H7A         2.2520   -1.1060    2.1640 hc        1 ASY      0.075500
     28 H6          4.1590    0.3950    0.6980 hc        1 ASY      0.076500
     29 H6A         4.3780   -1.0540    1.3340 hc        1 ASY      0.076500
     30 H5          4.0740    1.3450    2.8310 hc        1 ASY      0.075500
     31 H5A         4.2090   -0.1000    3.4980 hc        1 ASY      0.075500
     32 H4          6.2330    0.9430    1.8060 hc        1 ASY      0.066000
     33 H4A         6.3670   -0.3240    2.7690 hc        1 ASY      0.066000
     34 H3          6.2180    1.0690    4.6470 hc        1 ASY      0.083000
     35 H3A         6.0390    2.3430    3.7000 hc        1 ASY      0.083000
     36 H2          8.2080    1.8860    2.7910 hc        1 ASY      0.058000
     37 H2A         8.3830    0.7490    3.9000 hc        1 ASY      0.058000
     38 H11        -2.0660   -1.5940   -1.5460 hc        1 ASY      0.110500
     39 H11A       -2.0900   -0.3400   -0.5580 hc        1 ASY      0.110500
     40 H12        -1.1820    0.7160   -2.9160 ha        1 ASY      0.148000
     41 H13        -3.3170    0.9110   -3.8130 ha        1 ASY      0.123000
     42 H14        -4.1480   -1.4310   -2.6120 ha        1 ASY      0.085500
     43 H14A       -4.3610   -0.3000   -1.5040 ha        1 ASY      0.085500
     44 H15        -5.7980    0.8640   -2.9110 hc        1 ASY      0.080500
     45 H15A       -5.5090   -0.1600   -4.1010 hc        1 ASY      0.080500
     46 H16        -6.5340   -1.8820   -2.8870 hc        1 ASY      0.079500
     47 H16A       -6.7910   -0.8830   -1.6680 hc        1 ASY      0.079500
     48 H17        -8.1970    0.4190   -3.0480 hc        1 ASY      0.077000
     49 H17A       -7.9610   -0.6110   -4.2460 hc        1 ASY      0.077000
     50 H18        -9.1980   -1.3040   -1.7780 hc        1 ASY      0.071333
     51 H18A       -8.9900   -2.3140   -3.0030 hc        1 ASY      0.071333
     52 H18B       -9.9990   -1.0800   -3.1460 hc        1 ASY      0.071333
@<TRIPOS>BOND
     1    1    2 1   
     2    1   12 1   
     3    1   22 1   
     4    1   23 1   
     5    2    3 1   
     6    2   24 1   
     7    2   25 1   
     8    3    4 1   
     9    3   26 1   
    10    3   27 1   
    11    4    5 1   
    12    4   28 1   
    13    4   29 1   
    14    5    6 1   
    15    5   30 1   
    16    5   31 1   
    17    6    7 1   
    18    6   32 1   
    19    6   33 1   
    20    7    8 1   
    21    7   34 1   
    22    7   35 1   
    23    8    9 1   
    24    8   36 1   
    25    8   37 1   
    26    9   10 1   
    27    9   11 1   
    28   12   13 1   
    29   12   14 1   
    30   14   15 1   
    31   14   38 1   
    32   14   39 1   
    33   15   16 1   
    34   15   40 1   
    35   16   41 1   
    36   17   18 1   
    37   17   42 1   
    38   17   43 1   
    39   18   19 1   
    40   18   44 1   
    41   18   45 1   
    42   19   20 1   
    43   19   46 1   
    44   19   47 1   
    45   20   21 1   
    46   20   48 1   
    47   20   49 1   
    48   21   50 1   
    49   21   51 1   
    50   21   52 1   
@<TRIPOS>SUBSTRUCTURE
     1 ASY         1 TEMP              0 ****  ****    0 ROOT
