@<TRIPOS>MOLECULE
ASY
   52    51     1     0     0
SMALL
bcc


@<TRIPOS>ATOM
      1 C9          0.6040    0.7660   -0.0750 c3        1 ASY     -0.180400
      2 C8         -0.6510    0.5010    0.7260 c3        1 ASY     -0.075400
      3 C7         -1.8630    0.4280   -0.1780 c3        1 ASY     -0.079400
      4 C6         -3.1330    0.2020    0.6140 c3        1 ASY     -0.078400
      5 C5         -4.3420    0.1450   -0.2950 c3        1 ASY     -0.079400
      6 C4         -5.6210   -0.0610    0.4880 c3        1 ASY     -0.078400
      7 C3         -6.8280   -0.0950   -0.4270 c3        1 ASY     -0.065400
      8 C2         -8.1110   -0.3060    0.3380 c3        1 ASY     -0.194400
      9 C1         -9.3390   -0.1390   -0.5750 c         1 ASY      0.907600
     10 O2         -9.3790    0.8540   -1.3590 o         1 ASY     -0.853300
     11 O1        -10.2620   -0.9990   -0.4830 o         1 ASY     -0.853300
     12 C10         1.8440    0.8060    0.7700 c         1 ASY      0.569100
     13 O10         1.9030    0.3470    1.9140 o         1 ASY     -0.531100
     14 C11         3.0220    1.4720    0.1030 c3        1 ASY     -0.155200
     15 C12         4.3260    0.9940    0.6160 c2        1 ASY     -0.162200
     16 C13         5.4340    0.9520   -0.1290 c2        1 ASY     -0.175200
     17 C14         6.7520    0.5130    0.3900 c3        1 ASY     -0.046200
     18 C15         7.4450   -0.4270   -0.5770 c3        1 ASY     -0.076400
     19 C16         8.7960   -0.8560   -0.0470 c3        1 ASY     -0.079400
     20 C17         9.4930   -1.7930   -1.0100 c3        1 ASY     -0.080400
     21 C18        10.8390   -2.2240   -0.4860 c3        1 ASY     -0.092100
     22 H9          0.7420   -0.0410   -0.8450 hc        1 ASY      0.063700
     23 H9A         0.5060    1.7400   -0.6260 hc        1 ASY      0.063700
     24 H8         -0.5360   -0.4590    1.2950 hc        1 ASY      0.052700
     25 H8A        -0.7900    1.3150    1.4850 hc        1 ASY      0.052700
     26 H7         -1.9530    1.3810   -0.7640 hc        1 ASY      0.036200
     27 H7A        -1.7310   -0.4040   -0.9190 hc        1 ASY      0.036200
     28 H6         -3.0510   -0.7550    1.1930 hc        1 ASY      0.036700
     29 H6A        -3.2630    1.0290    1.3610 hc        1 ASY      0.036700
     30 H5         -4.4160    1.0980   -0.8830 hc        1 ASY      0.035700
     31 H5A        -4.2170   -0.6890   -1.0350 hc        1 ASY      0.035700
     32 H4         -5.5570   -1.0210    1.0650 hc        1 ASY      0.026700
     33 H4A        -5.7400    0.7650    1.2360 hc        1 ASY      0.026700
     34 H3         -6.9050    0.8680   -0.9990 hc        1 ASY      0.043700
     35 H3A        -6.7030   -0.9160   -1.1800 hc        1 ASY      0.043700
     36 H2         -8.1280   -1.3240    0.8000 hc        1 ASY      0.019200
     37 H2A        -8.1940    0.4480    1.1620 hc        1 ASY      0.019200
     38 H11         2.9510    1.3250   -1.0080 hc        1 ASY      0.069700
     39 H11A        2.9320    2.5780    0.2990 hc        1 ASY      0.069700
     40 H12         4.3230    0.6760    1.6740 ha        1 ASY      0.145000
     41 H13         5.4250    1.2600   -1.1880 ha        1 ASY      0.117000
     42 H14         7.3960    1.4210    0.5520 hc        1 ASY      0.046200
     43 H14A        6.6380    0.0070    1.3860 hc        1 ASY      0.046200
     44 H15         6.8030   -1.3310   -0.7470 hc        1 ASY      0.041700
     45 H15A        7.5740    0.0800   -1.5690 hc        1 ASY      0.041700
     46 H16         9.4370    0.0490    0.1280 hc        1 ASY      0.039200
     47 H16A        8.6670   -1.3650    0.9450 hc        1 ASY      0.039200
     48 H17         8.8500   -2.6960   -1.1830 hc        1 ASY      0.039200
     49 H17A        9.6200   -1.2830   -2.0010 hc        1 ASY      0.039200
     50 H18        10.7300   -2.7560    0.4900 hc        1 ASY      0.031367
     51 H18A       11.3350   -2.9130   -1.2110 hc        1 ASY      0.031367
     52 H18B       11.5030   -1.3390   -0.3300 hc        1 ASY      0.031367
@<TRIPOS>BOND
     1    1    2 1   
     2    1   12 1   
     3    1   22 1   
     4    1   23 1   
     5    2    3 1   
     6    2   24 1   
     7    2   25 1   
     8    3    4 1   
     9    3   26 1   
    10    3   27 1   
    11    4    5 1   
    12    4   28 1   
    13    4   29 1   
    14    5    6 1   
    15    5   30 1   
    16    5   31 1   
    17    6    7 1   
    18    6   32 1   
    19    6   33 1   
    20    7    8 1   
    21    7   34 1   
    22    7   35 1   
    23    8    9 1   
    24    8   36 1   
    25    8   37 1   
    26    9   10 1   
    27    9   11 1   
    28   12   13 2   
    29   12   14 1   
    30   14   15 1   
    31   14   38 1   
    32   14   39 1   
    33   15   16 2   
    34   15   40 1   
    35   16   17 1   
    36   16   41 1   
    37   17   18 1   
    38   17   42 1   
    39   17   43 1   
    40   18   19 1   
    41   18   44 1   
    42   18   45 1   
    43   19   20 1   
    44   19   46 1   
    45   19   47 1   
    46   20   21 1   
    47   20   48 1   
    48   20   49 1   
    49   21   50 1   
    50   21   51 1   
    51   21   52 1   
@<TRIPOS>SUBSTRUCTURE
     1 ASY         1 TEMP              0 ****  ****    0 ROOT
