@<TRIPOS>MOLECULE
ASY
   52    51     1     0     0
SMALL
bcc


@<TRIPOS>ATOM
      1 C9          0.1410    2.3310   -0.9910 c3        1 ASY     -0.182400
      2 C8          1.5080    1.6830   -0.9060 c3        1 ASY     -0.070400
      3 C7          1.8030    1.2260    0.5070 c3        1 ASY     -0.079400
      4 C6          3.1510    0.5430    0.5930 c3        1 ASY     -0.079400
      5 C5          3.4230    0.0340    1.9930 c3        1 ASY     -0.079400
      6 C4          4.7600   -0.6710    2.0770 c3        1 ASY     -0.078400
      7 C3          5.0060   -1.2260    3.4650 c3        1 ASY     -0.066400
      8 C2          6.3390   -1.9250    3.5640 c3        1 ASY     -0.194400
      9 C1          6.4800   -2.6730    4.9020 c         1 ASY      0.907600
     10 O2          5.5100   -3.3770    5.3060 o         1 ASY     -0.852800
     11 O1          7.5750   -2.5600    5.5260 o         1 ASY     -0.852800
     12 C10        -0.1880    2.7280   -2.4010 c         1 ASY      0.572100
     13 O10        -0.0580    3.8870   -2.8100 o         1 ASY     -0.538100
     14 C11        -0.6830    1.6290   -3.3060 c3        1 ASY     -0.154200
     15 C12        -2.0060    1.1100   -2.8850 c2        1 ASY     -0.171200
     16 C13        -2.4950   -0.0740   -3.2670 c2        1 ASY     -0.162200
     17 C14        -1.7690   -1.0310   -4.1350 c3        1 ASY     -0.053200
     18 C15        -2.6430   -2.1920   -4.5640 c3        1 ASY     -0.076400
     19 C16        -1.8780   -3.1510   -5.4510 c3        1 ASY     -0.080400
     20 C17        -2.7470   -4.3140   -5.8810 c3        1 ASY     -0.079400
     21 C18        -1.9900   -5.2730   -6.7630 c3        1 ASY     -0.093100
     22 H9          0.1160    3.2390   -0.3310 hc        1 ASY      0.066700
     23 H9A        -0.6420    1.6150   -0.6240 hc        1 ASY      0.066700
     24 H8          2.2920    2.4140   -1.2380 hc        1 ASY      0.044200
     25 H8A         1.5550    0.8030   -1.6000 hc        1 ASY      0.044200
     26 H7          1.0020    0.5190    0.8490 hc        1 ASY      0.040700
     27 H7A         1.7830    2.1080    1.2000 hc        1 ASY      0.040700
     28 H6          3.1840   -0.3150   -0.1300 hc        1 ASY      0.035200
     29 H6A         3.9570    1.2610    0.2900 hc        1 ASY      0.035200
     30 H5          2.6080   -0.6740    2.3000 hc        1 ASY      0.037700
     31 H5A         3.4040    0.8920    2.7150 hc        1 ASY      0.037700
     32 H4          4.7900   -1.5070    1.3290 hc        1 ASY      0.026700
     33 H4A         5.5790    0.0450    1.8050 hc        1 ASY      0.026700
     34 H3          4.9650   -0.3920    4.2140 hc        1 ASY      0.044200
     35 H3A         4.1970   -1.9550    3.7380 hc        1 ASY      0.044200
     36 H2          6.4380   -2.6780    2.7410 hc        1 ASY      0.019200
     37 H2A         7.1750   -1.1900    3.4590 hc        1 ASY      0.019200
     38 H11        -0.7570    2.0170   -4.3600 hc        1 ASY      0.073700
     39 H11A        0.0800    0.8020   -3.3040 hc        1 ASY      0.073700
     40 H12        -2.5970    1.7740   -2.2330 ha        1 ASY      0.126000
     41 H13        -3.4940   -0.3940   -2.9290 ha        1 ASY      0.124000
     42 H14        -1.3810   -0.4960   -5.0450 hc        1 ASY      0.051200
     43 H14A       -0.8700   -1.4230   -3.5830 hc        1 ASY      0.051200
     44 H15        -3.0180   -2.7350   -3.6580 hc        1 ASY      0.040700
     45 H15A       -3.5400   -1.8040   -5.1150 hc        1 ASY      0.040700
     46 H16        -0.9800   -3.5380   -4.9000 hc        1 ASY      0.041700
     47 H16A       -1.5010   -2.6080   -6.3570 hc        1 ASY      0.041700
     48 H17        -3.6460   -3.9260   -6.4300 hc        1 ASY      0.037700
     49 H17A       -3.1230   -4.8550   -4.9730 hc        1 ASY      0.037700
     50 H18        -1.6270   -4.7580   -7.6860 hc        1 ASY      0.032367
     51 H18A       -2.6480   -6.1220   -7.0690 hc        1 ASY      0.032367
     52 H18B       -1.1050   -5.6890   -6.2240 hc        1 ASY      0.032367
@<TRIPOS>BOND
     1    1    2 1   
     2    1   12 1   
     3    1   22 1   
     4    1   23 1   
     5    2    3 1   
     6    2   24 1   
     7    2   25 1   
     8    3    4 1   
     9    3   26 1   
    10    3   27 1   
    11    4    5 1   
    12    4   28 1   
    13    4   29 1   
    14    5    6 1   
    15    5   30 1   
    16    5   31 1   
    17    6    7 1   
    18    6   32 1   
    19    6   33 1   
    20    7    8 1   
    21    7   34 1   
    22    7   35 1   
    23    8    9 1   
    24    8   36 1   
    25    8   37 1   
    26    9   10 1   
    27    9   11 1   
    28   12   13 2   
    29   12   14 1   
    30   14   15 1   
    31   14   38 1   
    32   14   39 1   
    33   15   16 2   
    34   15   40 1   
    35   16   17 1   
    36   16   41 1   
    37   17   18 1   
    38   17   42 1   
    39   17   43 1   
    40   18   19 1   
    41   18   44 1   
    42   18   45 1   
    43   19   20 1   
    44   19   46 1   
    45   19   47 1   
    46   20   21 1   
    47   20   48 1   
    48   20   49 1   
    49   21   50 1   
    50   21   51 1   
    51   21   52 1   
@<TRIPOS>SUBSTRUCTURE
     1 ASY         1 TEMP              0 ****  ****    0 ROOT
