@<TRIPOS>MOLECULE
ASZ
   19    18     1     0     0
SMALL
bcc


@<TRIPOS>ATOM
      1 OAC         0.1040    0.1010    0.2210 o         1 ASZ     -0.751867
      2 SAI         1.4950   -0.0430   -0.0010 s6        1 ASZ      1.426800
      3 OAE         2.2850    0.2360    1.1400 o         1 ASZ     -0.751867
      4 OAD         1.8470   -1.2430   -0.6640 o         1 ASZ     -0.751867
      5 CAG         1.9010    1.2300   -1.1870 c3        1 ASZ     -0.291600
      6 CAF         1.8000    2.6090   -0.5840 c3        1 ASZ      0.203800
      7 NAH         2.2350    3.7180   -1.4350 n3        1 ASZ     -0.738600
      8 CAB         1.7150    3.6650   -2.7800 c3        1 ASZ      0.163600
      9 CAA         2.0010    4.9950   -0.8010 c3        1 ASZ      0.163600
     10 HAG1        2.9330    1.0450   -1.5700 h1        1 ASZ      0.067200
     11 HAG2        1.2040    1.1270   -2.0530 h1        1 ASZ      0.067200
     12 HAF1        2.4540    2.6400    0.3360 h1        1 ASZ      0.041700
     13 HAF2        0.7290    2.7630   -0.2500 h1        1 ASZ      0.041700
     14 HAB1        0.5910    3.6550   -2.8260 h1        1 ASZ      0.018033
     15 HAB2        2.0820    4.5560   -3.3560 h1        1 ASZ      0.018033
     16 HAB3        2.0990    2.7350   -3.2750 h1        1 ASZ      0.018033
     17 HAA1        2.4850    4.9920    0.2110 h1        1 ASZ      0.018033
     18 HAA2        0.9100    5.2400   -0.6690 h1        1 ASZ      0.018033
     19 HAA3        2.4690    5.8040   -1.4210 h1        1 ASZ      0.018033
@<TRIPOS>BOND
     1    1    2 1   
     2    2    3 1   
     3    2    4 1   
     4    2    5 1   
     5    5    6 1   
     6    5   10 1   
     7    5   11 1   
     8    6    7 1   
     9    6   12 1   
    10    6   13 1   
    11    7    8 1   
    12    7    9 1   
    13    8   14 1   
    14    8   15 1   
    15    8   16 1   
    16    9   17 1   
    17    9   18 1   
    18    9   19 1   
@<TRIPOS>SUBSTRUCTURE
     1 ASZ         1 TEMP              0 ****  ****    0 ROOT
