@<TRIPOS>MOLECULE
ASZ
   19    16     1     0     0
SMALL
bcc


@<TRIPOS>ATOM
      1 OAC        -1.9300   -1.7340    2.1870 o         1 ASZ     -1.074000
      2 SAI        -0.4200   -1.7340    2.1870 ss        1 ASZ      2.856000
      3 OAE        -0.1260   -1.7340    3.6680 o         1 ASZ     -1.074000
      4 OAD         0.1280   -2.9730    1.5190 os        1 ASZ     -1.076000
      5 CAG         0.2240   -0.2790    1.4030 c2        1 ASZ     -0.831000
      6 CAF        -0.1670   -0.2790   -0.0580 c3        1 ASZ     -0.033000
      7 NAH         0.3410    0.8930   -0.6840 n3        1 ASZ     -0.264000
      8 CAB        -0.7390    1.6500   -1.2210 c3        1 ASZ     -0.112500
      9 CAA         1.2290    0.5230   -1.7340 c3        1 ASZ     -0.112500
     10 HAG1       -0.1430    0.5140    1.8380 ha        1 ASZ      0.106500
     11 HAG2        1.1970   -0.2720    1.4800 ha        1 ASZ      0.106500
     12 HAF1        0.2050   -1.0680   -0.4950 h1        1 ASZ      0.081000
     13 HAF2       -1.1400   -0.2930   -0.1350 h1        1 ASZ      0.081000
     14 HAB1       -1.2290    1.1060   -1.8670 h1        1 ASZ      0.057333
     15 HAB2       -1.3390    1.9170   -0.4990 h1        1 ASZ      0.057333
     16 HAB3       -0.3890    2.4460   -1.6640 h1        1 ASZ      0.057333
     17 HAA1        1.5730    1.3270   -2.1680 h1        1 ASZ      0.057333
     18 HAA2        1.9730    0.0090   -1.3660 h1        1 ASZ      0.057333
     19 HAA3        0.7510   -0.0210   -2.3890 h1        1 ASZ      0.057333
@<TRIPOS>BOND
     1    1    2 1   
     2    2    3 1   
     3    5    6 1   
     4    5   10 1   
     5    5   11 1   
     6    6    7 1   
     7    6   12 1   
     8    6   13 1   
     9    7    8 1   
    10    7    9 1   
    11    8   14 1   
    12    8   15 1   
    13    8   16 1   
    14    9   17 1   
    15    9   18 1   
    16    9   19 1   
@<TRIPOS>SUBSTRUCTURE
     1 ASZ         1 TEMP              0 ****  ****    0 ROOT
