@<TRIPOS>MOLECULE
ASZ
   19    18     1     0     0
SMALL
bcc


@<TRIPOS>ATOM
      1 OAC        -1.6460   -0.0340   -1.4250 o         1 ASZ     -0.751867
      2 SAI        -1.5650    0.0890   -0.0170 s6        1 ASZ      1.426800
      3 OAE        -1.5950    1.4280    0.4410 o         1 ASZ     -0.751867
      4 OAD        -2.4390   -0.7770    0.6830 o         1 ASZ     -0.751867
      5 CAG         0.0600   -0.5240    0.4010 c3        1 ASZ     -0.291600
      6 CAF         1.1480    0.4050   -0.0790 c3        1 ASZ      0.203800
      7 NAH         2.5130    0.0610    0.3240 n3        1 ASZ     -0.738600
      8 CAB         2.8490   -1.3280    0.1290 c3        1 ASZ      0.163600
      9 CAA         3.4810    0.9540   -0.2710 c3        1 ASZ      0.163600
     10 HAG1        0.1180   -0.6560    1.5070 h1        1 ASZ      0.067200
     11 HAG2        0.1740   -1.5340   -0.0590 h1        1 ASZ      0.067200
     12 HAF1        1.0720    0.4730   -1.2060 h1        1 ASZ      0.041700
     13 HAF2        0.9430    1.4340    0.3420 h1        1 ASZ      0.041700
     14 HAB1        2.7380   -1.6720   -0.9360 h1        1 ASZ      0.018033
     15 HAB2        3.9120   -1.5020    0.4450 h1        1 ASZ      0.018033
     16 HAB3        2.1780   -1.9530    0.7750 h1        1 ASZ      0.018033
     17 HAA1        3.1970    2.0110   -0.0280 h1        1 ASZ      0.018033
     18 HAA2        4.4920    0.7430    0.1660 h1        1 ASZ      0.018033
     19 HAA3        3.5550    0.8580   -1.3900 h1        1 ASZ      0.018033
@<TRIPOS>BOND
     1    1    2 1   
     2    2    3 1   
     3    2    4 1   
     4    2    5 1   
     5    5    6 1   
     6    5   10 1   
     7    5   11 1   
     8    6    7 1   
     9    6   12 1   
    10    6   13 1   
    11    7    8 1   
    12    7    9 1   
    13    8   14 1   
    14    8   15 1   
    15    8   16 1   
    16    9   17 1   
    17    9   18 1   
    18    9   19 1   
@<TRIPOS>SUBSTRUCTURE
     1 ASZ         1 TEMP              0 ****  ****    0 ROOT
