@<TRIPOS>MOLECULE
AT1
   37    37     1     0     0
SMALL
bcc


@<TRIPOS>ATOM
      1 N          -1.6840   -0.7420    2.7300 n3        1 AT1     -0.914800
      2 C           0.2000    0.2640    1.6840 c3        1 AT1     -0.035100
      3 O           0.8510   -2.5080    3.8010 o         1 AT1     -0.864300
      4 C1         -0.3500   -0.9710    2.3470 c3        1 AT1      0.054500
      5 C2          0.4770   -1.2890    3.5710 c         1 AT1      0.908600
      6 O1          0.8360   -0.3480    4.3610 o         1 AT1     -0.864300
      7 O2          0.3490   -0.1420   -1.9870 os        1 AT1     -0.191100
      8 O3         -2.3500    1.2430    0.0370 os        1 AT1     -0.328100
      9 N1         -0.9780    0.3870   -1.8290 nc        1 AT1     -0.512300
     10 C3          2.2120   -0.6640   -1.3820 c3        1 AT1     -0.062300
     11 C4         -3.3270    1.5870   -0.9290 c3        1 AT1     -0.026800
     12 C5         -1.1950    0.5730   -0.5350 cd        1 AT1      0.561600
     13 C6         -0.0320    0.1740    0.1600 cd        1 AT1     -0.261900
     14 C7          0.8950   -0.2600   -0.7780 cc        1 AT1      0.218000
     15 C9          2.0320   -1.9460   -2.2330 c3        1 AT1     -0.092100
     16 C10         3.1970   -0.9340   -0.2740 c3        1 AT1     -0.092100
     17 C11         2.7360    0.4800   -2.2710 c3        1 AT1     -0.092100
     18 P          -4.4160    2.8220   -0.2870 p5        1 AT1      1.196700
     19 O4         -5.2400    3.3980   -1.4170 o         1 AT1     -0.942167
     20 O5         -3.6000    3.9380    0.3650 o         1 AT1     -0.942167
     21 O6         -5.3460    2.1900    0.7470 o         1 AT1     -0.942167
     22 H2         -1.7210   -0.6130    3.5840 hn        1 AT1      0.350300
     23 H3         -2.1760   -1.4470    2.5170 hn        1 AT1      0.350300
     24 H5          1.1860    0.3300    1.8670 hc        1 AT1      0.068200
     25 H6         -0.2770    1.1010    2.0590 hc        1 AT1      0.068200
     26 H4         -0.3130   -1.7630    1.6870 h1        1 AT1      0.030700
     27 H7         -2.8890    1.9250   -1.7140 h1        1 AT1      0.019700
     28 H8         -3.8670    0.7570   -1.1730 h1        1 AT1      0.019700
     29 H11         1.5510   -1.7370   -3.0250 hc        1 AT1      0.035144
     30 H12         1.5030   -2.6580   -1.6810 hc        1 AT1      0.035144
     31 H13         2.9910   -2.3350   -2.4930 hc        1 AT1      0.035144
     32 H14         4.0170   -1.1920   -0.6400 hc        1 AT1      0.035144
     33 H15         2.8650   -1.6280    0.2820 hc        1 AT1      0.035144
     34 H16         3.3140   -0.1350    0.2470 hc        1 AT1      0.035144
     35 H17         2.1540    0.5790   -3.0590 hc        1 AT1      0.035144
     36 H18         3.6640    0.2760   -2.5680 hc        1 AT1      0.035144
     37 H19         2.7310    1.2900   -1.7740 hc        1 AT1      0.035144
@<TRIPOS>BOND
     1    1    4 1   
     2    1   22 1   
     3    1   23 1   
     4    2    4 1   
     5    2   13 1   
     6    2   24 1   
     7    2   25 1   
     8    3    5 1   
     9    4    5 1   
    10    4   26 1   
    11    5    6 1   
    12    7    9 1   
    13    7   14 1   
    14    8   11 1   
    15    8   12 1   
    16    9   12 2   
    17   10   14 1   
    18   10   15 1   
    19   10   16 1   
    20   10   17 1   
    21   11   18 1   
    22   11   27 1   
    23   11   28 1   
    24   12   13 1   
    25   13   14 2   
    26   15   29 1   
    27   15   30 1   
    28   15   31 1   
    29   16   32 1   
    30   16   33 1   
    31   16   34 1   
    32   17   35 1   
    33   17   36 1   
    34   17   37 1   
    35   18   19 1   
    36   18   20 1   
    37   18   21 1   
@<TRIPOS>SUBSTRUCTURE
     1 AT1         1 TEMP              0 ****  ****    0 ROOT
