@<TRIPOS>MOLECULE
AT1
   37    37     1     0     0
SMALL
bcc


@<TRIPOS>ATOM
      1 N          -2.5760   -1.1930    1.0090 n3        1 AT1     -0.909800
      2 C          -0.8070    0.6140    1.0960 c3        1 AT1     -0.034100
      3 O          -1.3210   -0.3320    4.1960 o         1 AT1     -0.866800
      4 C1         -1.5280   -0.5680    1.7930 c3        1 AT1      0.054500
      5 C2         -2.0480   -0.0920    3.1830 c         1 AT1      0.910600
      6 O1         -3.1570    0.5080    3.2690 o         1 AT1     -0.866800
      7 O2          2.7180   -0.2950    0.3500 os        1 AT1     -0.190100
      8 N1          2.2540   -0.1730   -0.8910 nc        1 AT1     -0.514300
      9 C4          0.6030    0.3670   -3.1550 c3        1 AT1     -0.026800
     10 C5          0.9420    0.1770   -0.8270 cd        1 AT1      0.562600
     11 C6          0.5340    0.2700    0.6040 cd        1 AT1     -0.270900
     12 C7          1.6940   -0.0140    1.2940 cc        1 AT1      0.228000
     13 C9          1.6630   -1.3710    3.3580 c3        1 AT1     -0.094433
     14 C10         1.5090    1.1040    3.4890 c3        1 AT1     -0.094433
     15 C11         3.6430    0.0310    2.8070 c3        1 AT1     -0.094433
     16 P          -0.7240    0.9660   -4.3100 p5        1 AT1      1.197700
     17 O4         -0.8930    2.4280   -3.9860 o         1 AT1     -0.943167
     18 O5          0.0030    0.7030   -5.6120 o         1 AT1     -0.943167
     19 O6         -1.9170    0.0790   -4.0780 o         1 AT1     -0.943167
     20 H2         -3.4290   -0.6760    1.1310 hn        1 AT1      0.347300
     21 H3         -2.3340   -1.1700    0.0350 hn        1 AT1      0.347300
     22 H5         -0.7190    1.4590    1.8320 hc        1 AT1      0.062700
     23 H6         -1.4160    0.9930    0.2290 hc        1 AT1      0.062700
     24 H4         -0.7610   -1.3760    1.9850 h1        1 AT1      0.042700
     25 H7          1.4870    1.0240   -3.2900 h1        1 AT1      0.019200
     26 H8          0.8590   -0.6830   -3.4080 h1        1 AT1      0.019200
     27 H11         2.1930   -1.5220    4.3300 hc        1 AT1      0.036478
     28 H12         0.5580   -1.3310    3.5570 hc        1 AT1      0.036478
     29 H13         1.8910   -2.2310    2.6870 hc        1 AT1      0.036478
     30 H14         0.4040    0.9410    3.6100 hc        1 AT1      0.036478
     31 H15         1.9700    1.1690    4.5030 hc        1 AT1      0.036478
     32 H16         1.6860    2.0640    2.9500 hc        1 AT1      0.036478
     33 H17         4.1110   -0.8420    2.2940 hc        1 AT1      0.036478
     34 H18         3.9990    0.9650    2.3120 hc        1 AT1      0.036478
     35 H19         3.9660    0.0400    3.8760 hc        1 AT1      0.036478
     36 C3          2.1210   -0.0620    2.7190 c3        1 AT1     -0.061300
     37 O3          0.0890    0.4550   -1.8420 os        1 AT1     -0.330100
@<TRIPOS>BOND
     1    1    4 1   
     2    1   20 1   
     3    1   21 1   
     4    2    4 1   
     5    2   11 1   
     6    2   22 1   
     7    2   23 1   
     8    3    5 1   
     9    4    5 1   
    10    4   24 1   
    11    5    6 1   
    12    7    8 1   
    13    7   12 1   
    14    8   10 2   
    15    9   16 1   
    16    9   25 1   
    17    9   26 1   
    18    9   37 1   
    19   10   11 1   
    20   10   37 1   
    21   11   12 2   
    22   12   36 1   
    23   13   27 1   
    24   13   28 1   
    25   13   29 1   
    26   13   36 1   
    27   14   30 1   
    28   14   31 1   
    29   14   32 1   
    30   14   36 1   
    31   15   33 1   
    32   15   34 1   
    33   15   35 1   
    34   15   36 1   
    35   16   17 1   
    36   16   18 1   
    37   16   19 1   
@<TRIPOS>SUBSTRUCTURE
     1 AT1         1 TEMP              0 ****  ****    0 ROOT
