@<TRIPOS>MOLECULE
AT1
   38    37     1     0     0
SMALL
bcc


@<TRIPOS>ATOM
      1 N           0.2770   -1.1660   -0.1310 n8        1 AT1     -0.343000
      2 C           1.4640    0.9900   -0.7090 c3        1 AT1     -0.119000
      3 O           3.5140   -0.1270    1.1780 o         1 AT1     -0.583500
      4 C1          1.5360   -0.4530   -0.1650 c3        1 AT1     -0.104000
      5 C2          2.2720   -0.3820    1.2140 c2        1 AT1      0.327000
      6 O1          1.6230   -0.5660    2.2800 o         1 AT1     -0.583500
      7 O2          2.1670    1.1270   -4.3560 os        1 AT1     -0.114000
      8 N1          0.8450    1.2230   -4.3840 n2        1 AT1     -0.129000
      9 C4         -1.8920    1.4760   -3.6420 c3        1 AT1     -0.653000
     10 C5          0.3960    1.1940   -3.1060 c2        1 AT1      0.052000
     11 C6          1.5370    1.0560   -2.1730 c2        1 AT1     -0.111000
     12 C7          2.6320    1.0270   -3.0140 c2        1 AT1     -0.070000
     13 P          -3.3680    1.7610   -2.7660 p5        1 AT1      1.971000
     14 O4         -4.4650    1.2460   -3.6150 o         1 AT1     -0.858000
     15 O5         -3.1980    0.7850   -1.4660 oh        1 AT1     -0.811000
     16 O6         -3.3450    3.1330   -2.2100 o         1 AT1     -0.858000
     17 H2         -0.4150   -0.6870   -0.6780 hn        1 AT1      0.144000
     18 H3         -0.0500   -1.2180    0.8180 hn        1 AT1      0.144000
     19 H5          0.5190    1.4890   -0.3640 hc        1 AT1      0.103000
     20 H6          2.3320    1.5610   -0.2750 hc        1 AT1      0.103000
     21 H4          2.2100   -1.0460   -0.8530 h1        1 AT1      0.079000
     22 H7         -1.6530    2.3500   -4.2930 h1        1 AT1      0.100000
     23 H8         -1.9590    0.5650   -4.2840 h1        1 AT1      0.100000
     24 H11         5.6190   -0.2160   -1.8270 hc        1 AT1      0.095833
     25 H12         4.0870    0.0480   -0.8690 hc        1 AT1      0.095833
     26 H13         4.1030   -1.1250   -2.2640 hc        1 AT1      0.095833
     27 H14         4.2950    3.1610   -2.9170 hc        1 AT1      0.095833
     28 H15         4.1030    2.4550   -1.2510 hc        1 AT1      0.095833
     29 H16         5.6880    2.2970   -2.1300 hc        1 AT1      0.095833
     30 H17         5.4720   -1.6020   -4.2850 ha        1 AT1      0.006000
     31 H18         5.9530   -1.3120   -3.9020 ha        1 AT1      0.006000
     32 H19         4.2880    0.3810   -4.9520 ha        1 AT1      0.042000
     33 C3          4.1110    0.9840   -2.8530 c3        1 AT1     -0.063000
     34 HN3        -2.6560    1.1730   -0.7890 ho        1 AT1      0.228000
     35 O3         -0.8850    1.2990   -2.6520 os        1 AT1     -0.138000
     36 C9          4.5070   -0.1540   -1.8960 c3        1 AT1     -0.195000
     37 C10         4.5800    2.3130   -2.2510 c3        1 AT1     -0.195000
     38 C11         4.8720    0.7450   -4.0900 c1        1 AT1     -0.052000
@<TRIPOS>BOND
     1    1    4 1   
     2    1   17 1   
     3    1   18 1   
     4    2    4 1   
     5    2   11 1   
     6    2   19 1   
     7    2   20 1   
     8    3    5 1   
     9    4    5 1   
    10    4   21 1   
    11    5    6 1   
    12    7    8 1   
    13    7   12 1   
    14    8   10 1   
    15    9   13 1   
    16    9   22 1   
    17    9   23 1   
    18    9   35 1   
    19   10   11 1   
    20   10   35 1   
    21   11   12 1   
    22   12   33 1   
    23   13   14 1   
    24   13   15 1   
    25   13   16 1   
    26   15   34 1   
    27   24   36 1   
    28   25   36 1   
    29   26   36 1   
    30   27   37 1   
    31   28   37 1   
    32   29   37 1   
    33   30   31 1   
    34   32   38 1   
    35   33   36 1   
    36   33   37 1   
    37   33   38 1   
@<TRIPOS>SUBSTRUCTURE
     1 AT1         1 TEMP              0 ****  ****    0 ROOT
