@<TRIPOS>MOLECULE
AT2
   41    42     1     0     0
SMALL
bcc


@<TRIPOS>ATOM
      1 C1          0.5000    0.5080    1.2190 c3        1 AT2     -0.080800
      2 C2          1.7930    0.4370    0.5030 ca        1 AT2     -0.002300
      3 C3          2.8570    1.2730    0.8510 ca        1 AT2     -0.198300
      4 C4          4.0760    1.1590    0.1500 ca        1 AT2      0.437200
      5 C6          3.2340   -0.5240   -1.1750 ca        1 AT2      0.454200
      6 C7          1.9770   -0.4890   -0.5400 ca        1 AT2     -0.216300
      7 C9          2.9170   -1.0120   -3.5940 c3        1 AT2      0.131500
      8 C10         2.6430   -2.1970   -4.5240 c3        1 AT2     -0.138400
      9 C11         2.0830   -1.6740   -5.8570 c3        1 AT2      0.081500
     10 N5          4.2810    0.2860   -0.8460 nb        1 AT2     -0.656000
     11 N8          3.4640   -1.4980   -2.2660 n4        1 AT2     -0.750700
     12 N12         2.8960   -0.6570   -6.4770 n         1 AT2     -0.420800
     13 C13         3.2750    0.4320   -5.6040 c3        1 AT2      0.081500
     14 C14         3.8690   -0.0180   -4.2630 c3        1 AT2     -0.138400
     15 C15         3.7970   -1.0000   -7.5010 c         1 AT2      0.723100
     16 O16         4.7250   -0.2910   -7.9160 o         1 AT2     -0.554000
     17 O17         3.5520   -2.2100   -8.1000 os        1 AT2     -0.443900
     18 C18         4.3170   -2.4590   -9.3050 c3        1 AT2      0.149400
     19 C19         3.8310   -3.7870   -9.8280 c3        1 AT2     -0.106100
     20 H11        -0.3340    0.0980    0.5990 hc        1 AT2      0.075033
     21 H12         0.5610   -0.0880    2.1670 hc        1 AT2      0.075033
     22 H13         0.2550    1.5660    1.4900 hc        1 AT2      0.075033
     23 H3          2.7550    2.0130    1.6610 ha        1 AT2      0.183000
     24 H4          4.9440    1.8040    0.3980 h4        1 AT2      0.065100
     25 H7          1.1530   -1.1580   -0.8330 ha        1 AT2      0.164000
     26 H9          1.9390   -0.4900   -3.3610 hx        1 AT2      0.106700
     27 H101        3.5830   -2.7780   -4.7130 hc        1 AT2      0.078200
     28 H102        1.8840   -2.8910   -4.0780 hc        1 AT2      0.078200
     29 H111        1.9500   -2.5470   -6.5590 h1        1 AT2      0.092950
     30 H112        1.0680   -1.2180   -5.6660 h1        1 AT2      0.092950
     31 HN8         2.9970   -2.3750   -2.0100 hn        1 AT2      0.461300
     32 H131        2.3440    1.0390   -5.4080 h1        1 AT2      0.092950
     33 H132        4.0270    1.0920   -6.1280 h1        1 AT2      0.092950
     34 H141        4.0130    0.8880   -3.6190 hc        1 AT2      0.078200
     35 H142        4.8730   -0.4880   -4.4320 hc        1 AT2      0.078200
     36 H181        4.1280   -1.6220  -10.0270 h1        1 AT2      0.064200
     37 H182        5.4040   -2.4790   -9.0330 h1        1 AT2      0.064200
     38 H191        4.0070   -4.5970   -9.0810 hc        1 AT2      0.055700
     39 H192        4.3890   -4.0280  -10.7650 hc        1 AT2      0.055700
     40 H193        2.7380   -3.7470  -10.0550 hc        1 AT2      0.055700
     41 H82         4.4730   -1.6780   -2.3700 hn        1 AT2      0.461300
@<TRIPOS>BOND
     1    1    2 1   
     2    1   20 1   
     3    1   21 1   
     4    1   22 1   
     5    2    3 ar  
     6    2    6 ar  
     7    3    4 ar  
     8    3   23 1   
     9    4   10 ar  
    10    4   24 1   
    11    5    6 ar  
    12    5   10 ar  
    13    5   11 1   
    14    6   25 1   
    15    7    8 1   
    16    7   11 1   
    17    7   14 1   
    18    7   26 1   
    19    8    9 1   
    20    8   27 1   
    21    8   28 1   
    22    9   12 1   
    23    9   29 1   
    24    9   30 1   
    25   11   31 1   
    26   11   41 1   
    27   12   13 1   
    28   12   15 1   
    29   13   14 1   
    30   13   32 1   
    31   13   33 1   
    32   14   34 1   
    33   14   35 1   
    34   15   16 2   
    35   15   17 1   
    36   17   18 1   
    37   18   19 1   
    38   18   36 1   
    39   18   37 1   
    40   19   38 1   
    41   19   39 1   
    42   19   40 1   
@<TRIPOS>SUBSTRUCTURE
     1 AT2         1 TEMP              0 ****  ****    0 ROOT
