@<TRIPOS>MOLECULE
AT2
   40    41     1     0     0
SMALL
bcc


@<TRIPOS>ATOM
      1 C1          0.3410    0.9480    0.5680 c3        1 AT2     -0.061800
      2 C2          1.5950    0.2540    0.1960 ca        1 AT2     -0.020300
      3 C3          2.1750   -0.6850    1.0570 ca        1 AT2     -0.278300
      4 C4          3.3600   -1.3180    0.6480 ca        1 AT2      0.426200
      5 C6          3.4160   -0.1660   -1.3660 ca        1 AT2      0.606200
      6 C7          2.2170    0.5210   -1.0260 ca        1 AT2     -0.265300
      7 C9          3.3530    0.0630   -3.8000 c3        1 AT2      0.186500
      8 C10         3.0550   -1.3840   -4.2290 c3        1 AT2     -0.125900
      9 C11         2.2430   -1.3980   -5.5240 c3        1 AT2      0.072500
     10 N5          3.9740   -1.0940   -0.5220 nb        1 AT2     -0.719000
     11 N8          4.1090    0.1820   -2.5590 nu        1 AT2     -0.808900
     12 N12         2.8250   -0.6280   -6.6070 n         1 AT2     -0.404800
     13 C13         3.2470    0.7100   -6.2280 c3        1 AT2      0.072500
     14 C14         4.0830    0.7770   -4.9500 c3        1 AT2     -0.125900
     15 C15         3.5930   -1.2740   -7.5810 c         1 AT2      0.721100
     16 O16         4.3390   -0.7380   -8.4190 o         1 AT2     -0.584000
     17 O17         3.4120   -2.6400   -7.6590 os        1 AT2     -0.443900
     18 C18         4.0470   -3.2750   -8.7870 c3        1 AT2      0.149400
     19 C19         3.6890   -4.7380   -8.6920 c3        1 AT2     -0.102100
     20 H11        -0.5390    0.3550    0.2110 hc        1 AT2      0.050033
     21 H12         0.2620    1.0600    1.6770 hc        1 AT2      0.050033
     22 H13         0.2920    1.9630    0.1030 hc        1 AT2      0.050033
     23 H3          1.7230   -0.9200    2.0280 ha        1 AT2      0.144000
     24 H4          3.8510   -2.0650    1.2980 h4        1 AT2      0.020100
     25 H7          1.7900    1.2720   -1.7050 ha        1 AT2      0.146000
     26 H9          2.3620    0.5870   -3.6460 h1        1 AT2      0.062700
     27 H101        2.4630   -1.9050   -3.4340 hc        1 AT2      0.061700
     28 H102        4.0120   -1.9490   -4.3690 hc        1 AT2      0.061700
     29 H111        2.0880   -2.4630   -5.8530 h1        1 AT2      0.071450
     30 H112        1.2300   -0.9420   -5.3230 h1        1 AT2      0.071450
     31 HN8         5.0000   -0.2770   -2.6360 hn        1 AT2      0.396800
     32 H131        3.8320    1.1690   -7.0760 h1        1 AT2      0.071450
     33 H132        2.3020    1.3080   -6.0810 h1        1 AT2      0.071450
     34 H141        5.0860    0.3070   -5.1220 hc        1 AT2      0.061700
     35 H142        4.2490    1.8540   -4.6920 hc        1 AT2      0.061700
     36 H181        5.1530   -3.1050   -8.7160 h1        1 AT2      0.055200
     37 H182        3.6620   -2.8060   -9.7290 h1        1 AT2      0.055200
     38 H191        2.5820   -4.8750   -8.7370 hc        1 AT2      0.048367
     39 H192        4.0590   -5.1720   -7.7320 hc        1 AT2      0.048367
     40 H193        4.1610   -5.2810   -9.5450 hc        1 AT2      0.048367
@<TRIPOS>BOND
     1    1    2 1   
     2    1   20 1   
     3    1   21 1   
     4    1   22 1   
     5    2    3 ar  
     6    2    6 ar  
     7    3    4 ar  
     8    3   23 1   
     9    4   10 ar  
    10    4   24 1   
    11    5    6 ar  
    12    5   10 ar  
    13    5   11 1   
    14    6   25 1   
    15    7    8 1   
    16    7   11 1   
    17    7   14 1   
    18    7   26 1   
    19    8    9 1   
    20    8   27 1   
    21    8   28 1   
    22    9   12 1   
    23    9   29 1   
    24    9   30 1   
    25   11   31 1   
    26   12   13 1   
    27   12   15 1   
    28   13   14 1   
    29   13   32 1   
    30   13   33 1   
    31   14   34 1   
    32   14   35 1   
    33   15   16 2   
    34   15   17 1   
    35   17   18 1   
    36   18   19 1   
    37   18   36 1   
    38   18   37 1   
    39   19   38 1   
    40   19   39 1   
    41   19   40 1   
@<TRIPOS>SUBSTRUCTURE
     1 AT2         1 TEMP              0 ****  ****    0 ROOT
