@<TRIPOS>MOLECULE
AT2
   40    41     1     0     0
SMALL
bcc


@<TRIPOS>ATOM
      1 C1          0.3320    0.9720    0.5550 c3        1 AT2     -0.061800
      2 C2          1.5850    0.2730    0.1890 ca        1 AT2     -0.020300
      3 C3          2.1610   -0.6630    1.0550 ca        1 AT2     -0.278300
      4 C4          3.3440   -1.3020    0.6510 ca        1 AT2      0.426200
      5 C6          3.4090   -0.1570   -1.3680 ca        1 AT2      0.606200
      6 C7          2.2100    0.5340   -1.0330 ca        1 AT2     -0.265300
      7 C9          3.3520    0.0610   -3.8030 c3        1 AT2      0.186500
      8 C10         3.0550   -1.3870   -4.2280 c3        1 AT2     -0.125900
      9 C11         2.2470   -1.4050   -5.5250 c3        1 AT2      0.072500
     10 N5          3.9620   -1.0830   -0.5180 nb        1 AT2     -0.719000
     11 N8          4.1060    0.1840   -2.5610 nh        1 AT2     -0.808900
     12 N12         2.8310   -0.6380   -6.6090 n         1 AT2     -0.404800
     13 C13         3.2520    0.7010   -6.2320 c3        1 AT2      0.072500
     14 C14         4.0850    0.7710   -4.9530 c3        1 AT2     -0.125900
     15 C15         3.6020   -1.2870   -7.5790 c         1 AT2      0.721100
     16 O16         4.3500   -0.7530   -8.4160 o         1 AT2     -0.584000
     17 O17         3.4210   -2.6530   -7.6520 os        1 AT2     -0.443900
     18 C18         4.0590   -3.2910   -8.7770 c3        1 AT2      0.149400
     19 C19         3.7000   -4.7540   -8.6780 c3        1 AT2     -0.102100
     20 H11         0.2590    1.1030    1.6630 hc        1 AT2      0.050033
     21 H12        -0.5490    0.3720    0.2140 hc        1 AT2      0.050033
     22 H13         0.2790    1.9800    0.0740 hc        1 AT2      0.050033
     23 H3          1.7050   -0.8930    2.0260 ha        1 AT2      0.144000
     24 H4          3.8320   -2.0470    1.3060 h4        1 AT2      0.020100
     25 H7          1.7870    1.2840   -1.7160 ha        1 AT2      0.146000
     26 H9          2.3610    0.5860   -3.6520 h1        1 AT2      0.062700
     27 H101        4.0130   -1.9520   -4.3640 hc        1 AT2      0.061700
     28 H102        2.4610   -1.9060   -3.4330 hc        1 AT2      0.061700
     29 H111        1.2330   -0.9480   -5.3280 h1        1 AT2      0.071450
     30 H112        2.0920   -2.4710   -5.8510 h1        1 AT2      0.071450
     31 HN8         4.9950   -0.2770   -2.6330 hn        1 AT2      0.396800
     32 H131        3.8390    1.1580   -7.0800 h1        1 AT2      0.071450
     33 H132        2.3070    1.2990   -6.0900 h1        1 AT2      0.071450
     34 H141        5.0890    0.3020   -5.1210 hc        1 AT2      0.061700
     35 H142        4.2500    1.8500   -4.6980 hc        1 AT2      0.061700
     36 H181        5.1650   -3.1220   -8.7040 h1        1 AT2      0.055200
     37 H182        3.6770   -2.8250   -9.7220 h1        1 AT2      0.055200
     38 H191        4.1750   -5.3000   -9.5280 hc        1 AT2      0.048367
     39 H192        2.5940   -4.8920   -8.7260 hc        1 AT2      0.048367
     40 H193        4.0670   -5.1850   -7.7160 hc        1 AT2      0.048367
@<TRIPOS>BOND
     1    1    2 1   
     2    1   20 1   
     3    1   21 1   
     4    1   22 1   
     5    2    3 ar  
     6    2    6 ar  
     7    3    4 ar  
     8    3   23 1   
     9    4   10 ar  
    10    4   24 1   
    11    5    6 ar  
    12    5   10 ar  
    13    5   11 1   
    14    6   25 1   
    15    7    8 1   
    16    7   11 1   
    17    7   14 1   
    18    7   26 1   
    19    8    9 1   
    20    8   27 1   
    21    8   28 1   
    22    9   12 1   
    23    9   29 1   
    24    9   30 1   
    25   11   31 1   
    26   12   13 1   
    27   12   15 1   
    28   13   14 1   
    29   13   32 1   
    30   13   33 1   
    31   14   34 1   
    32   14   35 1   
    33   15   16 2   
    34   15   17 1   
    35   17   18 1   
    36   18   19 1   
    37   18   36 1   
    38   18   37 1   
    39   19   38 1   
    40   19   39 1   
    41   19   40 1   
@<TRIPOS>SUBSTRUCTURE
     1 AT2         1 TEMP              0 ****  ****    0 ROOT
