@<TRIPOS>MOLECULE
AT2
   40    39     1     0     0
SMALL
bcc


@<TRIPOS>ATOM
      1 C1          1.4520    3.4360    5.3680 c3        1 AT2     -0.187000
      2 C2          0.5590    2.4270    4.6790 c2        1 AT2      0.002000
      3 C3         -0.7010    2.1980    5.1500 c2        1 AT2     -0.229000
      4 C4         -1.5360    1.3100    4.4900 c1        1 AT2     -0.031000
      5 C6          0.1590    0.8930    2.9010 c1        1 AT2      0.114000
      6 C7          0.9960    1.7810    3.5590 c1        1 AT2     -0.236000
      7 C9         -0.1920    0.0140    0.5810 c3        1 AT2      0.004000
      8 C10        -0.5410   -1.4210    0.4080 c3        1 AT2     -0.205000
      9 C11        -1.2400   -1.6880   -0.9060 c3        1 AT2     -0.043000
     10 N5         -1.0990    0.6650    3.3720 n1        1 AT2     -0.199000
     11 N8          0.6430    0.1580    1.7860 n3        1 AT2     -0.270000
     12 N12        -0.5060   -1.1440   -2.0530 n         1 AT2     -0.262000
     13 C13        -0.1590    0.2770   -1.8880 c3        1 AT2     -0.043000
     14 C14         0.5460    0.5530   -0.5760 c3        1 AT2     -0.205000
     15 C15        -0.7230   -1.6760   -3.3500 c2        1 AT2      0.374000
     16 O16        -1.6000   -2.4960   -3.5310 o         1 AT2     -0.396000
     17 O17         0.1120   -1.2940   -4.4140 os        1 AT2     -0.282000
     18 C18        -0.2440   -1.8630   -5.6530 c3        1 AT2      0.000000
     19 C19         0.9400   -2.6170   -6.2220 c3        1 AT2     -0.246000
     20 H11         2.3760    3.1100    5.3630 hc        1 AT2      0.089333
     21 H12         1.1530    3.5580    6.2930 hc        1 AT2      0.089333
     22 H13         1.4040    4.2920    4.8930 hc        1 AT2      0.089333
     23 H3         -1.0150    2.6590    5.9510 ha        1 AT2      0.143000
     24 H4         -2.4380    1.1460    4.8260 ha        1 AT2      0.156000
     25 H7          1.8970    1.9440    3.2220 ha        1 AT2      0.140000
     26 H9         -1.0130    0.5270    0.7010 h1        1 AT2      0.127000
     27 H101       -1.1280   -1.6940    1.1410 hc        1 AT2      0.097750
     28 H102        0.2790   -1.9530    0.4430 hc        1 AT2      0.097750
     29 H111       -2.1300   -1.2810   -0.8790 h1        1 AT2      0.112000
     30 H112       -1.3370   -2.6540   -1.0220 h1        1 AT2      0.112000
     31 HN8         1.4740   -0.2160    1.8120 hn        1 AT2      0.194000
     32 H131        0.4270    0.5470   -2.6240 h1        1 AT2      0.112000
     33 H132       -0.9780    0.8090   -1.9240 h1        1 AT2      0.112000
     34 H141        0.6430    1.5200   -0.4660 hc        1 AT2      0.097750
     35 H142        1.4350    0.1450   -0.6020 hc        1 AT2      0.097750
     36 H181       -0.5090   -1.1540   -6.2740 h1        1 AT2      0.103500
     37 H182       -0.9930   -2.4820   -5.5240 h1        1 AT2      0.103500
     38 H191        1.7660   -2.1280   -6.0200 hc        1 AT2      0.088667
     39 H192        0.8390   -2.7000   -7.1930 hc        1 AT2      0.088667
     40 H193        0.9830   -3.5100   -5.8200 hc        1 AT2      0.088667
@<TRIPOS>BOND
     1    1    2 1   
     2    1   20 1   
     3    1   21 1   
     4    1   22 1   
     5    2    3 1   
     6    2    6 1   
     7    3    4 1   
     8    3   23 1   
     9    4   24 1   
    10    5   10 1   
    11    5   11 1   
    12    6   25 1   
    13    7    8 1   
    14    7   11 1   
    15    7   14 1   
    16    7   26 1   
    17    8    9 1   
    18    8   27 1   
    19    8   28 1   
    20    9   12 1   
    21    9   29 1   
    22    9   30 1   
    23   11   31 1   
    24   12   13 1   
    25   12   15 1   
    26   13   14 1   
    27   13   32 1   
    28   13   33 1   
    29   14   34 1   
    30   14   35 1   
    31   15   16 1   
    32   15   17 1   
    33   17   18 1   
    34   18   19 1   
    35   18   36 1   
    36   18   37 1   
    37   19   38 1   
    38   19   39 1   
    39   19   40 1   
@<TRIPOS>SUBSTRUCTURE
     1 AT2         1 TEMP              0 ****  ****    0 ROOT
