@<TRIPOS>MOLECULE
AT2
   40    41     1     0     0
SMALL
bcc


@<TRIPOS>ATOM
      1 C1         -5.1930    1.4550    1.7860 c3        1 AT2     -0.061800
      2 C2         -4.5090    0.9280    0.5830 ca        1 AT2     -0.020300
      3 C3         -5.0070    1.1940   -0.6970 ca        1 AT2     -0.277300
      4 C4         -4.3110    0.6750   -1.8010 ca        1 AT2      0.426200
      5 C6         -2.7020   -0.3270   -0.4620 ca        1 AT2      0.606200
      6 C7         -3.3480    0.1600    0.7100 ca        1 AT2     -0.265300
      7 C9         -0.4490   -0.6800    0.4210 c3        1 AT2      0.186500
      8 C10         0.3290    0.4430   -0.2850 c3        1 AT2     -0.125900
      9 C11         1.4800    0.9280    0.5950 c3        1 AT2      0.072500
     10 N5         -3.1900   -0.0530   -1.7160 nb        1 AT2     -0.719000
     11 N8         -1.5830   -1.1980   -0.3340 nh        1 AT2     -0.808900
     12 N12         2.3640   -0.1230    1.0620 n         1 AT2     -0.404800
     13 C13         1.6770   -1.2730    1.6250 c3        1 AT2      0.072500
     14 C14         0.5310   -1.8130    0.7710 c3        1 AT2     -0.125900
     15 C15         3.5570   -0.3790    0.3790 c         1 AT2      0.721100
     16 O16         4.2890   -1.3750    0.5060 o         1 AT2     -0.584000
     17 O17         3.9900    0.6400   -0.4450 os        1 AT2     -0.443900
     18 C18         5.3120    0.4600   -0.9920 c3        1 AT2      0.149400
     19 C19         5.5880    1.6930   -1.8170 c3        1 AT2     -0.102100
     20 H11        -4.7770    2.4600    2.0480 hc        1 AT2      0.050033
     21 H12        -6.2910    1.5660    1.6040 hc        1 AT2      0.050033
     22 H13        -5.0460    0.7750    2.6610 hc        1 AT2      0.050033
     23 H3         -5.9190    1.7870   -0.8400 ha        1 AT2      0.144000
     24 H4         -4.6710    0.8610   -2.8300 h4        1 AT2      0.020100
     25 H7         -2.9560   -0.0790    1.7070 ha        1 AT2      0.146000
     26 H9         -0.8500   -0.2610    1.3930 h1        1 AT2      0.062700
     27 H101        0.7240    0.0780   -1.2680 hc        1 AT2      0.061700
     28 H102       -0.3500    1.3100   -0.4900 hc        1 AT2      0.061700
     29 H111        1.0510    1.4120    1.5200 h1        1 AT2      0.071450
     30 H112        2.0730    1.7050    0.0360 h1        1 AT2      0.071450
     31 HN8        -1.2850   -1.5750   -1.2160 hn        1 AT2      0.396800
     32 H131        2.4230   -2.0990    1.8060 h1        1 AT2      0.071450
     33 H132        1.2680   -0.9380    2.6220 h1        1 AT2      0.071450
     34 H141        0.9340   -2.2780   -0.1650 hc        1 AT2      0.061700
     35 H142        0.0040   -2.6130    1.3510 hc        1 AT2      0.061700
     36 H181        5.3190   -0.4740   -1.6120 h1        1 AT2      0.055200
     37 H182        6.0390    0.3460   -0.1460 h1        1 AT2      0.055200
     38 H191        6.6040    1.6050   -2.2690 hc        1 AT2      0.048367
     39 H192        4.8330    1.7980   -2.6320 hc        1 AT2      0.048367
     40 H193        5.5480    2.6090   -1.1810 hc        1 AT2      0.048367
@<TRIPOS>BOND
     1    1    2 1   
     2    1   20 1   
     3    1   21 1   
     4    1   22 1   
     5    2    3 ar  
     6    2    6 ar  
     7    3    4 ar  
     8    3   23 1   
     9    4   10 ar  
    10    4   24 1   
    11    5    6 ar  
    12    5   10 ar  
    13    5   11 1   
    14    6   25 1   
    15    7    8 1   
    16    7   11 1   
    17    7   14 1   
    18    7   26 1   
    19    8    9 1   
    20    8   27 1   
    21    8   28 1   
    22    9   12 1   
    23    9   29 1   
    24    9   30 1   
    25   11   31 1   
    26   12   13 1   
    27   12   15 1   
    28   13   14 1   
    29   13   32 1   
    30   13   33 1   
    31   14   34 1   
    32   14   35 1   
    33   15   16 2   
    34   15   17 1   
    35   17   18 1   
    36   18   19 1   
    37   18   36 1   
    38   18   37 1   
    39   19   38 1   
    40   19   39 1   
    41   19   40 1   
@<TRIPOS>SUBSTRUCTURE
     1 AT2         1 TEMP              0 ****  ****    0 ROOT
