@<TRIPOS>MOLECULE
AT3
   26    25     1     0     0
SMALL
bcc


@<TRIPOS>ATOM
      1 N1          0.1370    0.0400    0.2510 n4        1 AT3     -0.602800
      2 C2          1.5530    0.5470    0.3870 c3        1 AT3      0.120800
      3 C3          1.8640    1.2730    1.6830 c3        1 AT3     -0.073300
      4 C5          3.7900   -0.5030    2.5010 c         1 AT3      0.586700
      5 O7          2.9060   -1.3630    2.4040 o         1 AT3     -0.563100
      6 C6          5.1700   -0.7500    2.9900 c3        1 AT3     -0.196100
      7 C8         -0.8240    1.1790    0.2970 c3        1 AT3      0.086100
      8 C9          0.0150   -0.6540   -1.0690 c3        1 AT3      0.086100
      9 C10        -0.1770   -0.9320    1.3420 c3        1 AT3      0.086100
     10 S24         3.5820    1.1620    2.0590 ss        1 AT3     -0.175700
     11 H2C1        1.7480    1.2330   -0.4870 hx        1 AT3      0.108700
     12 H2C2        2.2240   -0.3600    0.2940 hx        1 AT3      0.108700
     13 H3C1        1.2760    0.8620    2.5430 h1        1 AT3      0.105700
     14 H3C2        1.6340    2.3660    1.5970 h1        1 AT3      0.105700
     15 H6C1        5.8060    0.1670    2.9060 hc        1 AT3      0.094033
     16 H6C2        5.6400   -1.5780    2.3990 hc        1 AT3      0.094033
     17 H6C3        5.1320   -1.0680    4.0640 hc        1 AT3      0.094033
     18 H8C1       -0.6270    1.8690   -0.5670 hx        1 AT3      0.103811
     19 H8C2       -0.6920    1.7380    1.2610 hx        1 AT3      0.103811
     20 H8C3       -1.8730    0.7840    0.2320 hx        1 AT3      0.103811
     21 H9C1        0.3080    0.0500   -1.8920 hx        1 AT3      0.103811
     22 H9C2        0.6910   -1.5510   -1.0780 hx        1 AT3      0.103811
     23 H9C3       -1.0480   -0.9830   -1.2180 hx        1 AT3      0.103811
     24 H103       -1.0790   -1.5350    1.0540 hx        1 AT3      0.103811
     25 H101       -0.3960   -0.3790    2.2940 hx        1 AT3      0.103811
     26 H102        0.7050   -1.6130    1.5060 hx        1 AT3      0.103811
@<TRIPOS>BOND
     1    1    2 1   
     2    1    7 1   
     3    1    8 1   
     4    1    9 1   
     5    2    3 1   
     6    2   11 1   
     7    2   12 1   
     8    3   10 1   
     9    3   13 1   
    10    3   14 1   
    11    4    5 2   
    12    4    6 1   
    13    4   10 1   
    14    6   15 1   
    15    6   16 1   
    16    6   17 1   
    17    7   18 1   
    18    7   19 1   
    19    7   20 1   
    20    8   21 1   
    21    8   22 1   
    22    8   23 1   
    23    9   24 1   
    24    9   25 1   
    25    9   26 1   
@<TRIPOS>SUBSTRUCTURE
     1 AT3         1 TEMP              0 ****  ****    0 ROOT
