@<TRIPOS>MOLECULE
AT3
   26    25     1     0     0
SMALL
bcc


@<TRIPOS>ATOM
      1 N1          0.1460   -0.0590    0.2370 n4        1 AT3     -0.602800
      2 C2          1.5630   -0.5570    0.3970 c3        1 AT3      0.120800
      3 C3          1.8620   -1.2610    1.7080 c3        1 AT3     -0.073300
      4 C5          3.7720    0.5360    2.5200 c         1 AT3      0.586700
      5 O7          2.8850    1.3900    2.3990 o         1 AT3     -0.563100
      6 C6          5.1440    0.7970    3.0200 c3        1 AT3     -0.196100
      7 C8         -0.1850    0.9280    1.3090 c3        1 AT3      0.086100
      8 C9          0.0370    0.6150   -1.0940 c3        1 AT3      0.086100
      9 C10        -0.8090   -1.2020    0.2880 c3        1 AT3      0.086100
     10 S24         3.5750   -1.1370    2.1030 ss        1 AT3     -0.175700
     11 H2C1        2.2310    0.3510    0.2980 hx        1 AT3      0.108700
     12 H2C2        1.7710   -1.2560   -0.4640 hx        1 AT3      0.108700
     13 H3C1        1.6370   -2.3560    1.6370 h1        1 AT3      0.105700
     14 H3C2        1.2630   -0.8390    2.5540 h1        1 AT3      0.105700
     15 H6C1        5.7850   -0.1190    2.9600 hc        1 AT3      0.094033
     16 H6C2        5.6180    1.6160    2.4200 hc        1 AT3      0.094033
     17 H6C3        5.0930    1.1330    4.0880 hc        1 AT3      0.094033
     18 H8C1        0.6920    1.6160    1.4740 hx        1 AT3      0.103811
     19 H8C2       -0.4130    0.3890    2.2660 hx        1 AT3      0.103811
     20 H8C3       -1.0860    1.5230    1.0010 hx        1 AT3      0.103811
     21 H9C1       -1.0250    0.9360   -1.2620 hx        1 AT3      0.103811
     22 H9C2        0.7090    1.5150   -1.1090 hx        1 AT3      0.103811
     23 H9C3        0.3440   -0.1000   -1.9030 hx        1 AT3      0.103811
     24 H103       -1.8590   -0.8120    0.2060 hx        1 AT3      0.103811
     25 H101       -0.6860   -1.7460    1.2620 hx        1 AT3      0.103811
     26 H102       -0.6000   -1.9030   -0.5620 hx        1 AT3      0.103811
@<TRIPOS>BOND
     1    1    2 1   
     2    1    7 1   
     3    1    8 1   
     4    1    9 1   
     5    2    3 1   
     6    2   11 1   
     7    2   12 1   
     8    3   10 1   
     9    3   13 1   
    10    3   14 1   
    11    4    5 2   
    12    4    6 1   
    13    4   10 1   
    14    6   15 1   
    15    6   16 1   
    16    6   17 1   
    17    7   18 1   
    18    7   19 1   
    19    7   20 1   
    20    8   21 1   
    21    8   22 1   
    22    8   23 1   
    23    9   24 1   
    24    9   25 1   
    25    9   26 1   
@<TRIPOS>SUBSTRUCTURE
     1 AT3         1 TEMP              0 ****  ****    0 ROOT
