@<TRIPOS>MOLECULE
AT3
   26    25     1     0     0
SMALL
bcc


@<TRIPOS>ATOM
      1 N1         -2.1950    0.1560    0.0630 n4        1 AT3     -0.602800
      2 C2         -0.9340   -0.4650    0.6190 c3        1 AT3      0.120800
      3 C3          0.0610    0.5090    1.2210 c3        1 AT3     -0.073300
      4 C5          2.0820   -0.0900   -0.5370 c         1 AT3      0.586700
      5 O7          1.2790    0.2270   -1.4230 o         1 AT3     -0.563100
      6 C6          3.4940   -0.4850   -0.7690 c3        1 AT3     -0.196100
      7 C8         -1.8630    1.1210   -1.0300 c3        1 AT3      0.086100
      8 C9         -3.0460   -0.9390   -0.4970 c3        1 AT3      0.086100
      9 C10        -2.9430    0.8560    1.1450 c3        1 AT3      0.086100
     10 S24         1.6940   -0.1510    1.1530 ss        1 AT3     -0.175700
     11 H2C1       -0.4480   -1.0160   -0.2410 hx        1 AT3      0.108700
     12 H2C2       -1.2490   -1.2160    1.4000 hx        1 AT3      0.108700
     13 H3C1       -0.1570    0.6890    2.3050 h1        1 AT3      0.105700
     14 H3C2        0.0470    1.4980    0.6960 h1        1 AT3      0.105700
     15 H6C1        4.0570    0.3840   -1.1980 hc        1 AT3      0.094033
     16 H6C2        3.9920   -0.8060    0.1810 hc        1 AT3      0.094033
     17 H6C3        3.5370   -1.3260   -1.5080 hc        1 AT3      0.094033
     18 H8C1       -1.0530    0.6880   -1.6820 hx        1 AT3      0.103811
     19 H8C2       -2.7830    1.3190   -1.6410 hx        1 AT3      0.103811
     20 H8C3       -1.5020    2.0870   -0.5890 hx        1 AT3      0.103811
     21 H9C1       -3.2490   -1.7010    0.3010 hx        1 AT3      0.103811
     22 H9C2       -4.0170   -0.5060   -0.8570 hx        1 AT3      0.103811
     23 H9C3       -2.5080   -1.4230   -1.3550 hx        1 AT3      0.103811
     24 H103       -3.2500    0.1130    1.9290 hx        1 AT3      0.103811
     25 H101       -2.2840    1.6390    1.6080 hx        1 AT3      0.103811
     26 H102       -3.8560    1.3430    0.7100 hx        1 AT3      0.103811
@<TRIPOS>BOND
     1    1    2 1   
     2    1    7 1   
     3    1    8 1   
     4    1    9 1   
     5    2    3 1   
     6    2   11 1   
     7    2   12 1   
     8    3   10 1   
     9    3   13 1   
    10    3   14 1   
    11    4    5 2   
    12    4    6 1   
    13    4   10 1   
    14    6   15 1   
    15    6   16 1   
    16    6   17 1   
    17    7   18 1   
    18    7   19 1   
    19    7   20 1   
    20    8   21 1   
    21    8   22 1   
    22    8   23 1   
    23    9   24 1   
    24    9   25 1   
    25    9   26 1   
@<TRIPOS>SUBSTRUCTURE
     1 AT3         1 TEMP              0 ****  ****    0 ROOT
