@<TRIPOS>MOLECULE
AT3
   26    24     1     0     0
SMALL
bcc


@<TRIPOS>ATOM
      1 N1         -1.5220   -0.0350   -1.0330 n4        1 AT3      0.030000
      2 C2         -0.0630   -0.0350   -1.0330 c3        1 AT3     -0.116000
      3 C3          0.4520   -0.0350    0.4190 c3        1 AT3     -0.334000
      4 C5          2.8400   -0.0350    2.1030 c1        1 AT3      0.115000
      5 O7          2.0780   -0.2940    3.0120 o         1 AT3     -0.324000
      6 C6          4.3190    0.2120    2.3920 c2        1 AT3     -0.264000
      7 C8         -2.0040    1.1510   -0.3610 c3        1 AT3     -0.190000
      8 C9         -2.0040   -1.2100   -0.3430 c3        1 AT3     -0.190000
      9 C10        -2.0040   -0.0450   -2.3980 c3        1 AT3     -0.190000
     10 S24         2.2440    0.0030    0.4170 ss        1 AT3      0.189000
     11 H2C1        0.2620    0.7620   -1.4930 hx        1 AT3      0.148000
     12 H2C2        0.2620   -0.8320   -1.4930 hx        1 AT3      0.148000
     13 H3C1        0.1100    0.7520    0.8850 h1        1 AT3      0.145000
     14 H3C2        0.1430   -0.8420    0.8740 h1        1 AT3      0.145000
     15 H6C1        4.6240    0.9900    1.8880 ha        1 AT3      0.133333
     16 H6C2        4.8370   -0.5710    2.1260 ha        1 AT3      0.133333
     17 H6C3        4.4410    0.3740    3.3470 ha        1 AT3      0.133333
     18 H8C1       -2.9320    1.3150   -0.6170 hx        1 AT3      0.143111
     19 H8C2       -1.9510    1.0220    0.6050 hx        1 AT3      0.143111
     20 H8C3       -1.4560    1.9170   -0.6170 hx        1 AT3      0.143111
     21 H9C1       -1.9500   -1.0670    0.6210 hx        1 AT3      0.143111
     22 H9C2       -1.4570   -1.9800   -0.5900 hx        1 AT3      0.143111
     23 H9C3       -2.9320   -1.3770   -0.5950 hx        1 AT3      0.143111
     24 H103       -1.6800   -0.8460   -2.8520 hx        1 AT3      0.143111
     25 H101       -2.9800   -0.0430   -2.3990 hx        1 AT3      0.143111
     26 H102       -1.6770    0.7480   -2.8650 hx        1 AT3      0.143111
@<TRIPOS>BOND
     1    1    2 1   
     2    1    7 1   
     3    1    8 1   
     4    1    9 1   
     5    2    3 1   
     6    2   11 1   
     7    2   12 1   
     8    3   10 1   
     9    3   13 1   
    10    3   14 1   
    11    4    5 1   
    12    4   10 1   
    13    6   15 1   
    14    6   16 1   
    15    6   17 1   
    16    7   18 1   
    17    7   19 1   
    18    7   20 1   
    19    8   21 1   
    20    8   22 1   
    21    8   23 1   
    22    9   24 1   
    23    9   25 1   
    24    9   26 1   
@<TRIPOS>SUBSTRUCTURE
     1 AT3         1 TEMP              0 ****  ****    0 ROOT
