@<TRIPOS>MOLECULE
AT3
   26    25     1     0     0
SMALL
bcc


@<TRIPOS>ATOM
      1 N1          0.1570    0.0500    0.2200 n4        1 AT3     -0.602800
      2 C2          1.5320    0.6280    0.4580 c3        1 AT3      0.120800
      3 C3          1.7610    1.2170    1.8380 c3        1 AT3     -0.073300
      4 C5          3.7840   -0.5120    2.5090 c         1 AT3      0.586700
      5 O7          2.9630   -1.4110    2.2860 o         1 AT3     -0.563100
      6 C6          5.1650   -0.7250    3.0090 c3        1 AT3     -0.196100
      7 C8         -0.8790    1.1120    0.3640 c3        1 AT3      0.086100
      8 C9          0.1150   -0.4940   -1.1730 c3        1 AT3      0.086100
      9 C10        -0.1170   -1.0600    1.1820 c3        1 AT3      0.086100
     10 S24         3.4730    1.1760    2.2540 ss        1 AT3     -0.175700
     11 H2C1        1.7010    1.4220   -0.3260 hx        1 AT3      0.108700
     12 H2C2        2.2650   -0.2160    0.2830 hx        1 AT3      0.108700
     13 H3C1        1.1820    0.6720    2.6260 h1        1 AT3      0.105700
     14 H3C2        1.4590    2.2960    1.8700 h1        1 AT3      0.105700
     15 H6C1        5.7390    0.2350    3.0520 hc        1 AT3      0.094033
     16 H6C2        5.7040   -1.4450    2.3420 hc        1 AT3      0.094033
     17 H6C3        5.1230   -1.1670    4.0380 hc        1 AT3      0.094033
     18 H8C1       -0.7090    1.9080   -0.4080 hx        1 AT3      0.103811
     19 H8C2       -0.8100    1.5630    1.3900 hx        1 AT3      0.103811
     20 H8C3       -1.8970    0.6590    0.2220 hx        1 AT3      0.103811
     21 H9C1        0.3800    0.3190   -1.9010 hx        1 AT3      0.103811
     22 H9C2        0.8500   -1.3380   -1.2630 hx        1 AT3      0.103811
     23 H9C3       -0.9190   -0.8710   -1.3930 hx        1 AT3      0.103811
     24 H103       -0.9680   -1.6830    0.7980 hx        1 AT3      0.103811
     25 H101       -0.3960   -0.6370    2.1830 hx        1 AT3      0.103811
     26 H102        0.8050   -1.6970    1.2960 hx        1 AT3      0.103811
@<TRIPOS>BOND
     1    1    2 1   
     2    1    7 1   
     3    1    8 1   
     4    1    9 1   
     5    2    3 1   
     6    2   11 1   
     7    2   12 1   
     8    3   10 1   
     9    3   13 1   
    10    3   14 1   
    11    4    5 2   
    12    4    6 1   
    13    4   10 1   
    14    6   15 1   
    15    6   16 1   
    16    6   17 1   
    17    7   18 1   
    18    7   19 1   
    19    7   20 1   
    20    8   21 1   
    21    8   22 1   
    22    8   23 1   
    23    9   24 1   
    24    9   25 1   
    25    9   26 1   
@<TRIPOS>SUBSTRUCTURE
     1 AT3         1 TEMP              0 ****  ****    0 ROOT
