@<TRIPOS>MOLECULE
AT4
   40    41     1     0     0
SMALL
bcc


@<TRIPOS>ATOM
      1 O5'        -2.8920    2.0550    1.5930 os        1 AT4     -0.580200
      2 C5'        -1.6900    1.8880    0.9270 c3        1 AT4      0.180400
      3 C4'        -0.5620    1.3960    1.8490 c3        1 AT4      0.057100
      4 O4'        -0.9110    0.2110    2.5990 os        1 AT4     -0.402600
      5 C3'         0.6660    1.0000    1.0130 c3        1 AT4      0.080100
      6 O3'         1.8950    1.2120    1.6890 oh        1 AT4     -0.612800
      7 C2'         0.4710   -0.5170    0.7630 c3        1 AT4      0.085100
      8 C1'        -0.5420   -0.9610    1.8790 c3        1 AT4      0.217800
      9 N1         -2.6120   -5.5520    0.3290 nb        1 AT4     -0.802000
     10 C2         -1.3470   -5.1930    0.6870 ca        1 AT4      0.643900
     11 N3         -0.8530   -3.9970    1.0750 nb        1 AT4     -0.708000
     12 C4         -1.8030   -3.0130    1.0950 ca        1 AT4      0.431800
     13 C5         -3.2080   -3.2510    0.7580 ca        1 AT4     -0.201200
     14 C6         -3.5760   -4.5780    0.3790 ca        1 AT4      0.702200
     15 N6         -4.9120   -4.8810    0.1290 nh        1 AT4     -0.932500
     16 N7         -3.9350   -2.0590    0.8810 nc        1 AT4     -0.582100
     17 C8         -3.0400   -1.1330    1.2650 cd        1 AT4      0.468700
     18 N9         -1.7240   -1.6460    1.3930 na        1 AT4     -0.273000
     19 O2'         1.6530   -1.2720    0.8510 oh        1 AT4     -0.586800
     20 PA         -3.2530    3.6130    2.0920 p5        1 AT4      1.593800
     21 O2A        -4.5650    3.5640    2.7490 o         1 AT4     -0.860000
     22 O1A        -1.9890    4.0290    2.7290 o         1 AT4     -0.860000
     23 O3A        -3.3920    4.3350    0.6250 os        1 AT4     -0.808800
     24 PB         -3.5050    5.0750   -0.7950 p4        1 AT4      1.891200
     25 O1B        -4.5350    4.4560   -1.6370 o         1 AT4     -0.823000
     26 O2B        -3.3290    6.5190   -0.6350 o         1 AT4     -0.871800
     27 S3B        -1.6350    4.2230   -1.8150 s         1 AT4     -0.950000
     28 H5'1       -1.8470    1.1150    0.1200 h1        1 AT4      0.049700
     29 H5'2       -1.3470    2.8550    0.4550 h1        1 AT4      0.049700
     30 H4'        -0.3470    2.1710    2.6390 h1        1 AT4      0.139700
     31 H3'         0.7380    1.5770    0.0530 h1        1 AT4      0.120700
     32 HO3'        1.6980    1.3120    2.6290 ho        1 AT4      0.408000
     33 H2'         0.0720   -0.7040   -0.2690 h1        1 AT4      0.098700
     34 H1'        -0.0310   -1.6470    2.6190 h2        1 AT4      0.082700
     35 HN61       -5.4860   -4.0920   -0.0690 hn        1 AT4      0.413800
     36 HN62       -5.0920   -5.6890   -0.4200 hn        1 AT4      0.413800
     37 H8         -3.2560   -0.0590    1.4780 h5        1 AT4      0.158800
     38 HO2'        2.2200   -0.8600    1.5190 ho        1 AT4      0.408000
     39 HS3B       -2.3180    3.4070   -2.6020 hs        1 AT4      0.129000
     40 H2         -0.6070   -6.0190    0.6470 h5        1 AT4      0.030100
@<TRIPOS>BOND
     1    1    2 1   
     2    1   20 1   
     3    2    3 1   
     4    2   28 1   
     5    2   29 1   
     6    3    4 1   
     7    3    5 1   
     8    3   30 1   
     9    4    8 1   
    10    5    6 1   
    11    5    7 1   
    12    5   31 1   
    13    6   32 1   
    14    7    8 1   
    15    7   19 1   
    16    7   33 1   
    17    8   18 1   
    18    8   34 1   
    19    9   10 ar  
    20    9   14 ar  
    21   10   11 ar  
    22   10   40 1   
    23   11   12 ar  
    24   12   13 ar  
    25   12   18 1   
    26   13   14 ar  
    27   13   16 1   
    28   14   15 1   
    29   15   35 1   
    30   15   36 1   
    31   16   17 2   
    32   17   18 1   
    33   17   37 1   
    34   19   38 1   
    35   20   21 1   
    36   20   22 1   
    37   20   23 1   
    38   23   24 1   
    39   24   25 1   
    40   24   26 2   
    41   27   39 1   
@<TRIPOS>SUBSTRUCTURE
     1 AT4         1 TEMP              0 ****  ****    0 ROOT
