@<TRIPOS>MOLECULE
AT4
   40    41     1     0     0
SMALL
bcc


@<TRIPOS>ATOM
      1 O5'        -0.1340   -0.8590    0.0830 os        1 AT4     -0.581200
      2 C5'         1.1980   -0.5070   -0.1000 c3        1 AT4      0.141400
      3 C4'         1.8230   -0.0000    1.2050 c3        1 AT4      0.118100
      4 O4'         1.5590   -0.8770    2.3220 os        1 AT4     -0.388600
      5 C3'         3.3590    0.0250    1.0440 c3        1 AT4      0.117100
      6 O3'         3.8770    1.0780    1.8360 oh        1 AT4     -0.597800
      7 C2'         3.7880   -1.3740    1.5440 c3        1 AT4      0.067100
      8 C1'         2.6030   -1.8330    2.4590 c3        1 AT4      0.227800
      9 N1          3.3910   -6.9890    3.0980 nb        1 AT4     -0.801000
     10 C2          4.1240   -5.8990    3.4580 ca        1 AT4      0.646900
     11 N3          3.8880   -4.5830    3.2630 nb        1 AT4     -0.740000
     12 C4          2.7130   -4.3520    2.6000 ca        1 AT4      0.421800
     13 C5          1.8130   -5.4180    2.1610 ca        1 AT4     -0.191200
     14 C6          2.2030   -6.7620    2.4480 ca        1 AT4      0.704200
     15 N6          1.3510   -7.8140    2.1240 nh        1 AT4     -0.929500
     16 N7          0.7100   -4.8660    1.4940 nc        1 AT4     -0.576100
     17 C8          0.9120   -3.5370    1.5070 cd        1 AT4      0.486700
     18 N9          2.1110   -3.1640    2.1690 na        1 AT4     -0.278000
     19 O2'         4.9810   -1.2580    2.2920 oh        1 AT4     -0.613800
     20 PA         -1.1760   -0.2480   -1.0700 p5        1 AT4      1.583800
     21 O2A        -2.5100   -0.7880   -0.7720 o         1 AT4     -0.856000
     22 O1A        -0.8520    1.1860   -1.1630 o         1 AT4     -0.856000
     23 O3A        -0.5080   -1.0310   -2.3610 os        1 AT4     -0.810800
     24 PB          0.1490   -1.7980   -3.6040 p4        1 AT4      1.888200
     25 O1B        -0.4180   -3.1420   -3.7710 o         1 AT4     -0.822500
     26 O2B         0.3920   -0.8700   -4.7100 o         1 AT4     -0.871300
     27 S3B         2.2020   -2.3790   -2.7350 s         1 AT4     -0.962000
     28 H5'1        1.2870    0.3200   -0.8620 h1        1 AT4      0.066700
     29 H5'2        1.7760   -1.4130   -0.4620 h1        1 AT4      0.066700
     30 H4'         1.3960    0.9850    1.5240 h1        1 AT4      0.103700
     31 H3'         3.6620    0.1730   -0.0270 h1        1 AT4      0.083700
     32 HO3'        4.8240    0.9180    1.9260 ho        1 AT4      0.404000
     33 H2'         3.9380   -2.0630    0.6690 h1        1 AT4      0.091700
     34 H1'         2.9160   -1.8130    3.5470 h2        1 AT4      0.078700
     35 HN61        0.6660   -7.5920    1.4350 hn        1 AT4      0.414800
     36 HN62        1.7660   -8.7130    2.0370 hn        1 AT4      0.414800
     37 H8          0.2590   -2.7570    1.0490 h5        1 AT4      0.160800
     38 HO2'        5.2010   -2.1490    2.5940 ho        1 AT4      0.419000
     39 HS3B        1.8840   -3.6560   -2.5900 hs        1 AT4      0.136000
     40 H2          5.0700   -6.1380    3.9870 h5        1 AT4      0.027100
@<TRIPOS>BOND
     1    1    2 1   
     2    1   20 1   
     3    2    3 1   
     4    2   28 1   
     5    2   29 1   
     6    3    4 1   
     7    3    5 1   
     8    3   30 1   
     9    4    8 1   
    10    5    6 1   
    11    5    7 1   
    12    5   31 1   
    13    6   32 1   
    14    7    8 1   
    15    7   19 1   
    16    7   33 1   
    17    8   18 1   
    18    8   34 1   
    19    9   10 ar  
    20    9   14 ar  
    21   10   11 ar  
    22   10   40 1   
    23   11   12 ar  
    24   12   13 ar  
    25   12   18 1   
    26   13   14 ar  
    27   13   16 1   
    28   14   15 1   
    29   15   35 1   
    30   15   36 1   
    31   16   17 2   
    32   17   18 1   
    33   17   37 1   
    34   19   38 1   
    35   20   21 1   
    36   20   22 1   
    37   20   23 1   
    38   23   24 1   
    39   24   25 1   
    40   24   26 2   
    41   27   39 1   
@<TRIPOS>SUBSTRUCTURE
     1 AT4         1 TEMP              0 ****  ****    0 ROOT
