@<TRIPOS>MOLECULE
AT4
   40    36     1     0     0
SMALL
bcc


@<TRIPOS>ATOM
      1 O5'        -0.8910    3.1430   -1.0910 os        1 AT4     -0.742000
      2 C5'        -1.4670    1.8300   -0.8710 c3        1 AT4      0.048000
      3 C4'        -0.9110    1.2370    0.4760 c3        1 AT4     -0.018000
      4 O4'        -1.3520    0.0520    0.6530 os        1 AT4     -0.288000
      5 C3'         0.6530    1.0880    0.4040 c3        1 AT4     -0.010000
      6 O3'         1.2520    1.9960    1.2290 oh        1 AT4     -0.381000
      7 C2'         0.9490   -0.3170    0.8720 c3        1 AT4     -0.006000
      8 C1'        -0.1890   -0.7480    1.3920 c3        1 AT4      0.127000
      9 N1          1.0110   -5.7490    2.4690 n1        1 AT4     -0.275000
     10 C2          1.6940   -4.6600    2.9020 c1        1 AT4     -0.023000
     11 N3          1.2730   -3.3990    2.5540 n1        1 AT4     -0.184000
     12 C4          0.1720   -3.2390    1.7740 c1        1 AT4      0.047000
     13 C5         -0.5100   -4.3240    1.3400 c1        1 AT4     -0.209000
     14 C6         -0.0830   -5.5970    1.6930 c1        1 AT4      0.170000
     15 N6         -0.6230   -6.8770    1.4080 n3        1 AT4     -0.325000
     16 N7         -1.4370   -3.9060    0.4650 n1        1 AT4     -0.168000
     17 C8         -1.3330   -2.5650    0.3540 c1        1 AT4     -0.001000
     18 N9         -0.3370   -2.1560    1.1640 n2        1 AT4     -0.182000
     19 O2'         2.0330   -0.3010    1.9160 oh        1 AT4     -0.339000
     20 PA         -0.8770    3.7360   -2.5790 p5        1 AT4      2.084000
     21 O2A         0.3760    3.2910   -3.2810 o         1 AT4     -0.878000
     22 O1A        -2.0670    3.2390   -3.3260 o         1 AT4     -0.878000
     23 O3A        -0.9150    5.3060   -2.5190 os        1 AT4     -1.272000
     24 PB         -0.1260    6.2300   -3.5070 p5        1 AT4      2.078000
     25 O1B         0.0470    5.5190   -4.8360 o         1 AT4     -0.814500
     26 O2B        -0.8980    7.5140   -3.7190 o         1 AT4     -0.814500
     27 S3B         1.7490    6.6720   -2.7000 sh        1 AT4     -0.947000
     28 H5'1       -1.2190    1.2210   -1.6340 h1        1 AT4      0.060000
     29 H5'2       -2.4610    1.9080   -0.8160 h1        1 AT4      0.060000
     30 H4'        -1.1670    1.8170    1.2370 h1        1 AT4      0.117000
     31 H3'         0.9560    1.2050   -0.4900 h1        1 AT4      0.172000
     32 HO3'        1.4980    2.7170    0.7540 ho        1 AT4      0.276000
     33 H2'         1.2060   -0.8720    0.1250 h1        1 AT4      0.146000
     34 H1'        -0.2100   -0.5630    2.3390 h2        1 AT4      0.135000
     35 H2          2.4520   -4.7680    3.4390 ha        1 AT4      0.164000
     36 HN61       -1.4560   -6.9500    1.0350 hn        1 AT4      0.202000
     37 HN62       -0.1180   -7.6300    1.5490 hn        1 AT4      0.202000
     38 H8         -1.9400   -1.9790   -0.1590 DU        1 AT4      0.308000
     39 HO2'        2.8440   -0.2970    1.5090 ho        1 AT4      0.223000
     40 HS3B        2.4210    7.1750   -3.5240 hs        1 AT4      0.137000
@<TRIPOS>BOND
     1    1    2 1   
     2    1   20 1   
     3    2    3 1   
     4    2   28 1   
     5    2   29 1   
     6    3    4 1   
     7    3    5 1   
     8    3   30 1   
     9    4    8 1   
    10    5    6 1   
    11    5    7 1   
    12    5   31 1   
    13    6   32 1   
    14    7    8 1   
    15    7   19 1   
    16    7   33 1   
    17    8   18 1   
    18    8   34 1   
    19    9   10 1   
    20   10   35 1   
    21   11   12 1   
    22   13   14 1   
    23   14   15 1   
    24   15   36 1   
    25   15   37 1   
    26   16   17 1   
    27   17   18 1   
    28   19   39 1   
    29   20   21 1   
    30   20   22 1   
    31   20   23 1   
    32   23   24 1   
    33   24   25 1   
    34   24   26 1   
    35   24   27 1   
    36   27   40 1   
@<TRIPOS>SUBSTRUCTURE
     1 AT4         1 TEMP              0 ****  ****    0 ROOT
