@<TRIPOS>MOLECULE
AT4
   40    41     1     0     0
SMALL
bcc


@<TRIPOS>ATOM
      1 O5'        -0.1430   -0.8620    0.1060 os        1 AT4     -0.581200
      2 C5'         1.1870   -0.4990   -0.0680 c3        1 AT4      0.141400
      3 C4'         1.8060   -0.0090    1.2470 c3        1 AT4      0.118100
      4 O4'         1.5440   -0.9060    2.3490 os        1 AT4     -0.388600
      5 C3'         3.3420    0.0290    1.0910 c3        1 AT4      0.117100
      6 O3'         3.8500    1.0710    1.9010 oh        1 AT4     -0.597800
      7 C2'         3.7790   -1.3760    1.5680 c3        1 AT4      0.067100
      8 C1'         2.5940   -1.8580    2.4730 c3        1 AT4      0.227800
      9 N1          3.4140   -7.0190    3.0290 nb        1 AT4     -0.801000
     10 C2          4.1400   -5.9300    3.4080 ca        1 AT4      0.647900
     11 N3          3.8950   -4.6130    3.2350 nb        1 AT4     -0.740000
     12 C4          2.7210   -4.3780    2.5710 ca        1 AT4      0.421800
     13 C5          1.8290   -5.4420    2.1130 ca        1 AT4     -0.191200
     14 C6          2.2270   -6.7880    2.3790 ca        1 AT4      0.704200
     15 N6          1.3830   -7.8410    2.0350 nv        1 AT4     -0.929500
     16 N7          0.7240   -4.8860    1.4520 nc        1 AT4     -0.576100
     17 C8          0.9170   -3.5570    1.4880 cd        1 AT4      0.486700
     18 N9          2.1110   -3.1870    2.1590 na        1 AT4     -0.278000
     19 O2'         4.9690   -1.2650    2.3220 oh        1 AT4     -0.613800
     20 PA         -1.1860   -0.2380   -1.0390 p5        1 AT4      1.583800
     21 O2A        -2.5170   -0.7920   -0.7540 o         1 AT4     -0.856000
     22 O1A        -0.8720    1.1990   -1.1050 o         1 AT4     -0.856000
     23 O3A        -0.5110   -0.9940   -2.3420 os        1 AT4     -0.810800
     24 PB          0.1550   -1.7350   -3.5970 p4        1 AT4      1.888200
     25 O1B        -0.4020   -3.0790   -3.7870 o         1 AT4     -0.822500
     26 O2B         0.3930   -0.7860   -4.6850 o         1 AT4     -0.871300
     27 S3B         2.2100   -2.3160   -2.7330 s         1 AT4     -0.962000
     28 H5'1        1.7720   -1.3940   -0.4440 h1        1 AT4      0.067200
     29 H5'2        1.2720    0.3420   -0.8150 h1        1 AT4      0.067200
     30 H4'         1.3710    0.9680    1.5810 h1        1 AT4      0.103700
     31 H3'         3.6470    0.1970    0.0240 h1        1 AT4      0.083700
     32 HO3'        4.7990    0.9160    1.9910 ho        1 AT4      0.404000
     33 H2'         3.9360   -2.0490    0.6830 h1        1 AT4      0.091700
     34 H1'         2.9040   -1.8540    3.5610 h2        1 AT4      0.078700
     35 HN61        0.6990   -7.6120    1.3480 hn        1 AT4      0.414800
     36 HN62        1.8040   -8.7350    1.9340 hn        1 AT4      0.414800
     37 H8          0.2600   -2.7730    1.0400 h5        1 AT4      0.160800
     38 HO2'        5.1940   -2.1590    2.6100 ho        1 AT4      0.419000
     39 HS3B        1.9010   -3.5970   -2.6110 hs        1 AT4      0.136000
     40 H2          5.0850   -6.1710    3.9360 h5        1 AT4      0.027100
@<TRIPOS>BOND
     1    1    2 1   
     2    1   20 1   
     3    2    3 1   
     4    2   28 1   
     5    2   29 1   
     6    3    4 1   
     7    3    5 1   
     8    3   30 1   
     9    4    8 1   
    10    5    6 1   
    11    5    7 1   
    12    5   31 1   
    13    6   32 1   
    14    7    8 1   
    15    7   19 1   
    16    7   33 1   
    17    8   18 1   
    18    8   34 1   
    19    9   10 ar  
    20    9   14 ar  
    21   10   11 ar  
    22   10   40 1   
    23   11   12 ar  
    24   12   13 ar  
    25   12   18 1   
    26   13   14 ar  
    27   13   16 1   
    28   14   15 1   
    29   15   35 1   
    30   15   36 1   
    31   16   17 2   
    32   17   18 1   
    33   17   37 1   
    34   19   38 1   
    35   20   21 1   
    36   20   22 1   
    37   20   23 1   
    38   23   24 1   
    39   24   25 1   
    40   24   26 2   
    41   27   39 1   
@<TRIPOS>SUBSTRUCTURE
     1 AT4         1 TEMP              0 ****  ****    0 ROOT
