@<TRIPOS>MOLECULE
AT4
   41    43     1     0     0
SMALL
bcc


@<TRIPOS>ATOM
      1 O5'        -0.0300   -0.6200    0.3050 os        1 AT4     -0.569200
      2 C5'         1.2510   -0.1140    0.1130 c3        1 AT4      0.148400
      3 C4'         2.0150   -0.0510    1.4380 c3        1 AT4      0.099100
      4 O4'         1.9700   -1.2800    2.1770 os        1 AT4     -0.407600
      5 C3'         3.5000    0.2500    1.1590 c3        1 AT4      0.071100
      6 O3'         4.0710    1.0950    2.1460 oh        1 AT4     -0.611800
      7 C2'         4.2050   -1.1230    1.2540 c3        1 AT4      0.133100
      8 C1'         3.1750   -2.0420    1.9970 c3        1 AT4      0.184800
      9 N1          2.5680   -7.0680    3.1360 nb        1 AT4     -0.649000
     10 C2          3.5210   -6.2180    3.4940 ca        1 AT4      0.541900
     11 N3          3.7800   -4.9220    3.0210 nb        1 AT4     -0.680000
     12 C4          2.9560   -4.5080    2.0790 ca        1 AT4      0.376300
     13 C5          1.8160   -5.3550    1.5430 ca        1 AT4     -0.120600
     14 C6          1.7020   -6.6360    2.1500 ca        1 AT4      0.158200
     15 N6          0.5920   -7.4710    1.7160 n4        1 AT4     -0.745300
     16 N7          1.1070   -4.7420    0.6110 n2        1 AT4     -0.388200
     17 C8          1.7230   -3.4250    0.4380 c3        1 AT4      0.311300
     18 N9          2.9350   -3.3030    1.3050 nh        1 AT4     -0.188400
     19 O2'         5.4290   -1.0800    1.9400 oh        1 AT4     -0.577800
     20 PA         -1.0660   -0.3620   -0.9590 p5        1 AT4      1.559800
     21 O2A        -0.6380    0.8850   -1.6010 o         1 AT4     -0.821000
     22 O1A        -2.4160   -0.7420   -0.5460 o         1 AT4     -0.821000
     23 O3A        -0.4580   -1.6390   -1.9070 os        1 AT4     -0.789800
     24 PB          0.0510   -2.8290   -2.7790 p4        1 AT4      1.808200
     25 O1B         0.8830   -2.4640   -3.9160 o         1 AT4     -0.764500
     26 O2B        -0.6320   -4.1000   -2.6010 o         1 AT4     -0.813300
     27 S3B         2.1480   -3.1210   -1.3260 sh        1 AT4     -0.486900
     28 H5'1        1.1890    0.9240   -0.3240 h1        1 AT4      0.047200
     29 H5'2        1.8100   -0.7780   -0.6070 h1        1 AT4      0.047200
     30 H4'         1.5380    0.6980    2.1260 h1        1 AT4      0.077700
     31 H3'         3.6470    0.7110    0.1460 h1        1 AT4      0.072700
     32 HO3'        3.5210    1.8870    2.1830 ho        1 AT4      0.411000
     33 H2'         4.4560   -1.5100    0.2290 h1        1 AT4      0.114700
     34 H1'         3.5550   -2.2560    3.0410 h2        1 AT4      0.090700
     35 HN61       -0.2820   -6.9610    1.8870 hn        1 AT4      0.437133
     36 HN62        0.6810   -7.6260    0.7070 hn        1 AT4      0.437133
     37 H8          0.9680   -2.6020    0.6430 h3        1 AT4      0.171700
     38 HO2'        5.2870   -0.6120    2.7740 ho        1 AT4      0.414000
     39 HS3B        2.8020   -4.2370   -1.6410 hs        1 AT4      0.243800
     40 H63         0.5810   -8.3620    2.2100 hn        1 AT4      0.437133
     41 H2          4.2240   -6.5540    4.2780 h5        1 AT4      0.040100
@<TRIPOS>BOND
     1    1    2 1   
     2    1   20 1   
     3    2    3 1   
     4    2   28 1   
     5    2   29 1   
     6    3    4 1   
     7    3    5 1   
     8    3   30 1   
     9    4    8 1   
    10    5    6 1   
    11    5    7 1   
    12    5   31 1   
    13    6   32 1   
    14    7    8 1   
    15    7   19 1   
    16    7   33 1   
    17    8   18 1   
    18    8   34 1   
    19    9   10 ar  
    20    9   14 ar  
    21   10   11 ar  
    22   10   41 1   
    23   11   12 ar  
    24   12   13 ar  
    25   12   18 2   
    26   13   14 ar  
    27   13   16 2   
    28   14   15 1   
    29   15   35 1   
    30   15   36 1   
    31   15   40 1   
    32   16   17 1   
    33   17   18 1   
    34   17   27 1   
    35   17   37 1   
    36   19   38 1   
    37   20   21 1   
    38   20   22 1   
    39   20   23 1   
    40   23   24 1   
    41   24   25 1   
    42   24   26 2   
    43   27   39 1   
@<TRIPOS>SUBSTRUCTURE
     1 AT4         1 TEMP              0 ****  ****    0 ROOT
