@<TRIPOS>MOLECULE
AT5
   44    44     1     0     0
SMALL
bcc


@<TRIPOS>ATOM
      1 O5          0.4870   -1.0340   -2.5840 o         1 AT5     -0.517100
      2 C7          0.5600   -0.1580   -1.7180 c         1 AT5      0.616300
      3 C8         -0.6370    0.6950   -1.3420 c3        1 AT5     -0.147700
      4 C11        -1.7550   -0.2160   -0.8490 c3        1 AT5     -0.072400
      5 C12        -2.8040    0.5350   -0.0400 c3        1 AT5     -0.067700
      6 C17        -2.3330    0.7840    1.3770 c3        1 AT5     -0.097100
      7 C13        -4.1410   -0.2060   -0.0840 c3        1 AT5      0.045700
      8 CL12       -4.0350   -1.8140    0.6450 cl        1 AT5     -0.182400
      9 C14        -5.2280    0.6040    0.5960 c3        1 AT5      0.023000
     10 CL16       -6.8330    0.0360    0.1820 cl        1 AT5     -0.177400
     11 C10        -1.0600    1.5120   -2.5480 c3        1 AT5     -0.090100
     12 C6          1.8150    0.0970   -0.9810 cc        1 AT5     -0.372400
     13 C5          2.2780    1.4670   -0.8360 c         1 AT5      0.734700
     14 N4          3.5100    1.6800   -0.1580 n         1 AT5     -0.478100
     15 C3          4.2490    0.6360    0.3460 cc        1 AT5      0.276700
     16 C2          3.8070   -0.6790    0.2200 cd        1 AT5     -0.136900
     17 C1          2.5740   -0.9400   -0.4690 cd        1 AT5      0.288100
     18 O1          2.1300   -2.2190   -0.5980 oh        1 AT5     -0.455100
     19 O2          4.5690   -1.7620    0.6120 os        1 AT5     -0.313900
     20 CM2         4.6050   -1.9570    2.0290 c3        1 AT5      0.103700
     21 O3          5.4140    0.8320    1.0570 os        1 AT5     -0.310900
     22 CM3         6.0530    2.1050    0.9660 c3        1 AT5      0.100700
     23 O4          1.7150    2.4970   -1.2530 o         1 AT5     -0.634500
     24 H8         -0.3400    1.4010   -0.5180 hc        1 AT5      0.070700
     25 H111       -2.2320   -0.7080   -1.7380 hc        1 AT5      0.060200
     26 H112       -1.3190   -1.0330   -0.2150 hc        1 AT5      0.060200
     27 H12        -2.9830    1.5360   -0.5330 hc        1 AT5      0.059700
     28 H171       -1.3550    1.3240    1.3660 hc        1 AT5      0.041700
     29 H172       -3.0730    1.4100    1.9310 hc        1 AT5      0.041700
     30 H173       -2.1970   -0.1790    1.9270 hc        1 AT5      0.041700
     31 H13        -4.4160   -0.4020   -1.1550 h1        1 AT5      0.088700
     32 H141       -5.1440    0.5490    1.7080 h1        1 AT5      0.076700
     33 H142       -5.1740    1.6700    0.2650 h1        1 AT5      0.076700
     34 H101       -1.9860    2.0910   -2.3210 hc        1 AT5      0.046033
     35 H102       -0.2470    2.2310   -2.8160 hc        1 AT5      0.046033
     36 H103       -1.2570    0.8440   -3.4210 hc        1 AT5      0.046033
     37 HN4         3.8360    2.6180   -0.0700 hn        1 AT5      0.337500
     38 HO1         2.8210   -2.8200   -0.2650 ho        1 AT5      0.449000
     39 HM21        5.0520   -1.0640    2.5280 h1        1 AT5      0.046700
     40 HM22        3.5780   -2.1530    2.4210 h1        1 AT5      0.046700
     41 HM23        5.2610   -2.8550    2.1540 h1        1 AT5      0.046700
     42 HM31        6.2390    2.3890   -0.0970 h1        1 AT5      0.059700
     43 HM32        5.4510    2.8840    1.4950 h1        1 AT5      0.059700
     44 HM33        7.0230    1.9330    1.5010 h1        1 AT5      0.059700
@<TRIPOS>BOND
     1    1    2 2   
     2    2    3 1   
     3    2   12 1   
     4    3    4 1   
     5    3   11 1   
     6    3   24 1   
     7    4    5 1   
     8    4   25 1   
     9    4   26 1   
    10    5    6 1   
    11    5    7 1   
    12    5   27 1   
    13    6   28 1   
    14    6   29 1   
    15    6   30 1   
    16    7    8 1   
    17    7    9 1   
    18    7   31 1   
    19    9   10 1   
    20    9   32 1   
    21    9   33 1   
    22   11   34 1   
    23   11   35 1   
    24   11   36 1   
    25   12   13 1   
    26   12   17 2   
    27   13   14 1   
    28   13   23 2   
    29   14   15 1   
    30   14   37 1   
    31   15   16 2   
    32   15   21 1   
    33   16   17 1   
    34   16   19 1   
    35   17   18 1   
    36   18   38 1   
    37   19   20 1   
    38   20   39 1   
    39   20   40 1   
    40   20   41 1   
    41   21   22 1   
    42   22   42 1   
    43   22   43 1   
    44   22   44 1   
@<TRIPOS>SUBSTRUCTURE
     1 AT5         1 TEMP              0 ****  ****    0 ROOT
