@<TRIPOS>MOLECULE
AT5
   44    41     1     0     0
SMALL
bcc


@<TRIPOS>ATOM
      1 O5         -2.2040   -0.2460   -0.0820 o         1 AT5     -0.277000
      2 C7         -1.0010   -0.0020   -0.0350 c1        1 AT5      0.311000
      3 C8         -0.2620   -0.0770    1.2990 c2        1 AT5     -0.146000
      4 C11        -1.0960   -0.8650    2.2810 c3        1 AT5     -0.146000
      5 C12        -0.1890   -1.5740    3.2600 c3        1 AT5     -0.105000
      6 C17        -0.1030   -3.0320    2.8920 c3        1 AT5     -0.224000
      7 C13        -0.7560   -1.4310    4.6810 c3        1 AT5     -0.067000
      8 CL12       -1.9270   -2.6240    4.9400 cl        1 AT5     -0.107000
      9 C14         0.3800   -1.5880    5.7140 c3        1 AT5     -0.127000
     10 CL16       -0.3150   -1.7450    7.3340 cl        1 AT5     -0.108000
     11 C10        -0.0420    1.3080    1.8250 c3        1 AT5     -0.204000
     12 C6         -0.2390    0.3340   -1.3170 c2        1 AT5     -0.334000
     13 C5          0.8500   -0.4580   -1.7040 c2        1 AT5      0.376000
     14 N4          1.4440   -0.2690   -2.9440 n2        1 AT5     -0.321000
     15 C3          0.9700    0.6850   -3.7860 c1        1 AT5      0.024500
     16 C2         -0.1440    1.4980   -3.3970 c1        1 AT5      0.024500
     17 C1         -0.7270    1.3130   -2.1780 c1        1 AT5      0.242000
     18 O1         -1.9700    1.9600   -1.8850 oh        1 AT5     -0.211000
     19 O2         -0.5720    2.5640   -4.2340 os        1 AT5     -0.196000
     20 CM2        -1.4360    2.1600   -5.2780 c3        1 AT5     -0.088500
     21 O3          1.6400    0.9460   -4.9920 os        1 AT5     -0.196000
     22 CM3         2.9140    1.5570   -4.8180 c3        1 AT5     -0.088500
     23 O4          1.2840   -1.3290   -0.9390 o         1 AT5     -0.364000
     24 H8          0.6000   -0.5180    1.1730 ha        1 AT5      0.123000
     25 H111       -1.6780   -0.2700    2.7530 hc        1 AT5      0.101500
     26 H112       -1.6270   -1.5220    1.8000 hc        1 AT5      0.101500
     27 H12         0.7120   -1.1710    3.2240 hc        1 AT5      0.091000
     28 H171        0.7280   -3.1990    2.4120 hc        1 AT5      0.087333
     29 H172       -0.1220   -3.5770    3.7060 hc        1 AT5      0.087333
     30 H173       -0.8870   -3.2760    2.3040 hc        1 AT5      0.087333
     31 H13        -1.1760   -0.5230    4.7830 h1        1 AT5      0.124000
     32 H141        0.9680   -0.7880    5.6830 h1        1 AT5      0.116500
     33 H142        0.9170   -2.4050    5.5010 h1        1 AT5      0.116500
     34 H101       -0.7270    1.5130    2.5100 hc        1 AT5      0.080333
     35 H102        0.8620    1.3720    2.2300 hc        1 AT5      0.080333
     36 H103       -0.1140    1.9540    1.0850 hc        1 AT5      0.080333
     37 HN4         2.1740   -0.8010   -3.2010 hn        1 AT5      0.251000
     38 HO1        -1.8230    2.8230   -1.7230 ho        1 AT5      0.247000
     39 HM21       -0.9120    1.7900   -6.0050 h1        1 AT5      0.092833
     40 HM22       -2.0590    1.4770   -4.9420 h1        1 AT5      0.092833
     41 HM23       -1.9510    2.9460   -5.6060 h1        1 AT5      0.092833
     42 HM31        2.8340    2.3060   -4.1890 h1        1 AT5      0.092833
     43 HM32        3.5490    0.8960   -4.4620 h1        1 AT5      0.092833
     44 HM33        3.2340    1.8870   -5.6710 h1        1 AT5      0.092833
@<TRIPOS>BOND
     1    1    2 1   
     2    2   12 1   
     3    3    4 1   
     4    3   11 1   
     5    3   24 1   
     6    4    5 1   
     7    4   25 1   
     8    4   26 1   
     9    5    6 1   
    10    5    7 1   
    11    5   27 1   
    12    6   28 1   
    13    6   29 1   
    14    6   30 1   
    15    7    8 1   
    16    7    9 1   
    17    7   31 1   
    18    9   10 1   
    19    9   32 1   
    20    9   33 1   
    21   11   34 1   
    22   11   35 1   
    23   11   36 1   
    24   12   13 1   
    25   12   17 1   
    26   13   14 1   
    27   13   23 1   
    28   14   37 1   
    29   15   16 1   
    30   15   21 1   
    31   16   19 1   
    32   17   18 1   
    33   18   38 1   
    34   19   20 1   
    35   20   39 1   
    36   20   40 1   
    37   20   41 1   
    38   21   22 1   
    39   22   42 1   
    40   22   43 1   
    41   22   44 1   
@<TRIPOS>SUBSTRUCTURE
     1 AT5         1 TEMP              0 ****  ****    0 ROOT
