@<TRIPOS>MOLECULE
AT5
   44    44     1     0     0
SMALL
bcc


@<TRIPOS>ATOM
      1 O5         -0.0490    0.6240    0.0820 o         1 AT5     -0.596100
      2 C7          1.1880    0.4770    0.1170 c         1 AT5      0.622300
      3 C8          1.8950    0.4290    1.4570 c3        1 AT5     -0.144700
      4 C11         1.0710   -0.4130    2.4260 c3        1 AT5     -0.073400
      5 C12         1.8920   -0.9020    3.6120 c3        1 AT5     -0.067700
      6 C17         2.7340   -2.1030    3.2390 c3        1 AT5     -0.098100
      7 C13         0.9840   -1.1810    4.8100 c3        1 AT5      0.045700
      8 Cl12       -0.1910   -2.4580    4.4710 cl        1 AT5     -0.182400
      9 C14         1.8030   -1.5370    6.0350 c3        1 AT5      0.023000
     10 Cl16        0.8710   -1.4100    7.5130 cl        1 AT5     -0.177400
     11 C10         2.0760    1.8470    1.9650 c3        1 AT5     -0.086100
     12 C6          1.9500    0.3090   -1.1240 cc        1 AT5     -0.437400
     13 C5          3.3800    0.5750   -1.1350 c         1 AT5      0.740700
     14 N4          4.1000    0.3040   -2.3300 ns        1 AT5     -0.479100
     15 C3          3.4730   -0.1380   -3.4680 cc        1 AT5      0.278700
     16 C2          2.0880   -0.3040   -3.5090 cd        1 AT5     -0.087900
     17 C1          1.3250   -0.0820   -2.3120 cd        1 AT5      0.317100
     18 O1          0.0040   -0.3240   -2.4700 oh        1 AT5     -0.475100
     19 O2          1.4660   -0.5630   -4.7110 os        1 AT5     -0.288900
     20 CM2         1.0510   -1.9250   -4.8590 c3        1 AT5      0.107700
     21 O3          4.1690   -0.4650   -4.6100 os        1 AT5     -0.297900
     22 CM3         5.4880    0.0590   -4.7670 c3        1 AT5      0.098700
     23 O4          4.0750    1.0340   -0.2080 o         1 AT5     -0.641500
     24 H8          2.9070   -0.0460    1.3320 hc        1 AT5      0.084700
     25 H111        0.6450   -1.2980    1.8840 hc        1 AT5      0.059700
     26 H112        0.2010    0.2000    2.7840 hc        1 AT5      0.059700
     27 H12         2.5870   -0.0700    3.9300 hc        1 AT5      0.059700
     28 H171        2.0890   -2.9750    2.9730 hc        1 AT5      0.042367
     29 H172        3.3800   -1.8620    2.3600 hc        1 AT5      0.042367
     30 H173        3.3960   -2.3960    4.0900 hc        1 AT5      0.042367
     31 H13         0.3570   -0.2710    5.0130 h1        1 AT5      0.088700
     32 H141        2.1830   -2.5860    5.9830 h1        1 AT5      0.077200
     33 H142        2.6610   -0.8290    6.1410 h1        1 AT5      0.077200
     34 H101        1.0930    2.3750    2.0090 hc        1 AT5      0.046367
     35 H102        2.5230    1.8360    2.9870 hc        1 AT5      0.046367
     36 H103        2.7630    2.4080    1.2850 hc        1 AT5      0.046367
     37 HN4         5.0840    0.4690   -2.3250 hn        1 AT5      0.338500
     38 HO1        -0.5000   -0.0820   -1.6700 ho        1 AT5      0.478000
     39 HM21        0.5580   -1.9380   -5.8630 h1        1 AT5      0.043700
     40 HM22        0.3250   -2.1960   -4.0540 h1        1 AT5      0.043700
     41 HM23        1.9360   -2.6040   -4.8390 h1        1 AT5      0.043700
     42 HM31        5.5030    1.1660   -4.6290 h1        1 AT5      0.059367
     43 HM32        6.1950   -0.4460   -4.0650 h1        1 AT5      0.059367
     44 HM33        5.7350   -0.2080   -5.8270 h1        1 AT5      0.059367
@<TRIPOS>BOND
     1    1    2 2   
     2    2    3 1   
     3    2   12 1   
     4    3    4 1   
     5    3   11 1   
     6    3   24 1   
     7    4    5 1   
     8    4   25 1   
     9    4   26 1   
    10    5    6 1   
    11    5    7 1   
    12    5   27 1   
    13    6   28 1   
    14    6   29 1   
    15    6   30 1   
    16    7    8 1   
    17    7    9 1   
    18    7   31 1   
    19    9   10 1   
    20    9   32 1   
    21    9   33 1   
    22   11   34 1   
    23   11   35 1   
    24   11   36 1   
    25   12   13 1   
    26   12   17 2   
    27   13   14 1   
    28   13   23 2   
    29   14   15 1   
    30   14   37 1   
    31   15   16 2   
    32   15   21 1   
    33   16   17 1   
    34   16   19 1   
    35   17   18 1   
    36   18   38 1   
    37   19   20 1   
    38   20   39 1   
    39   20   40 1   
    40   20   41 1   
    41   21   22 1   
    42   22   42 1   
    43   22   43 1   
    44   22   44 1   
@<TRIPOS>SUBSTRUCTURE
     1 AT5         1 TEMP              0 ****  ****    0 ROOT
