@<TRIPOS>MOLECULE
AT5
   44    44     1     0     0
SMALL
bcc


@<TRIPOS>ATOM
      1 O5         -0.0460    0.6310    0.0870 o         1 AT5     -0.596100
      2 C7          1.1900    0.4800    0.1200 c         1 AT5      0.622300
      3 C8          1.9000    0.4260    1.4580 c3        1 AT5     -0.144700
      4 C11         1.0750   -0.4160    2.4270 c3        1 AT5     -0.073400
      5 C12         1.8980   -0.9110    3.6090 c3        1 AT5     -0.067700
      6 C17         2.7350   -2.1140    3.2310 c3        1 AT5     -0.098100
      7 C13         0.9910   -1.1900    4.8080 c3        1 AT5      0.045700
      8 CL12       -0.1890   -2.4620    4.4690 cl        1 AT5     -0.182400
      9 C14         1.8110   -1.5520    6.0310 c3        1 AT5      0.023000
     10 CL16        0.8830   -1.4260    7.5110 cl        1 AT5     -0.177400
     11 C10         2.0870    1.8420    1.9690 c3        1 AT5     -0.086100
     12 C6          1.9500    0.3130   -1.1240 cc        1 AT5     -0.437400
     13 C5          3.3810    0.5750   -1.1370 c         1 AT5      0.740700
     14 N4          4.0970    0.3040   -2.3340 n         1 AT5     -0.479100
     15 C3          3.4660   -0.1320   -3.4730 cc        1 AT5      0.278700
     16 C2          2.0810   -0.2930   -3.5110 cd        1 AT5     -0.087900
     17 C1          1.3210   -0.0720   -2.3110 cd        1 AT5      0.317100
     18 O1         -0.0010   -0.3090   -2.4680 oh        1 AT5     -0.475100
     19 O2          1.4550   -0.5460   -4.7120 os        1 AT5     -0.288900
     20 CM2         1.0350   -1.9060   -4.8630 c3        1 AT5      0.107700
     21 O3          4.1580   -0.4570   -4.6170 os        1 AT5     -0.297900
     22 CM3         5.4790    0.0620   -4.7750 c3        1 AT5      0.098700
     23 O4          4.0790    1.0290   -0.2100 o         1 AT5     -0.641500
     24 H8          2.9110   -0.0520    1.3290 hc        1 AT5      0.084700
     25 H111        0.2090    0.1990    2.7880 hc        1 AT5      0.059700
     26 H112        0.6450   -1.2980    1.8830 hc        1 AT5      0.059700
     27 H12         2.5960   -0.0820    3.9280 hc        1 AT5      0.059700
     28 H171        2.0870   -2.9830    2.9640 hc        1 AT5      0.042367
     29 H172        3.3800   -1.8730    2.3510 hc        1 AT5      0.042367
     30 H173        3.3980   -2.4110    4.0800 hc        1 AT5      0.042367
     31 H13         0.3680   -0.2780    5.0160 h1        1 AT5      0.088700
     32 H141        2.6730   -0.8480    6.1360 h1        1 AT5      0.077200
     33 H142        2.1880   -2.6020    5.9760 h1        1 AT5      0.077200
     34 H101        2.5370    1.8270    2.9900 hc        1 AT5      0.046367
     35 H102        1.1060    2.3730    2.0170 hc        1 AT5      0.046367
     36 H103        2.7750    2.4020    1.2890 hc        1 AT5      0.046367
     37 HN4         5.0820    0.4670   -2.3300 hn        1 AT5      0.338500
     38 HO1        -0.5030   -0.0680   -1.6660 ho        1 AT5      0.478000
     39 HM21        0.5400   -1.9140   -5.8660 h1        1 AT5      0.043700
     40 HM22        1.9180   -2.5880   -4.8480 h1        1 AT5      0.043700
     41 HM23        0.3100   -2.1770   -4.0580 h1        1 AT5      0.043700
     42 HM31        5.7230   -0.2020   -5.8360 h1        1 AT5      0.059367
     43 HM32        5.4980    1.1690   -4.6330 h1        1 AT5      0.059367
     44 HM33        6.1860   -0.4480   -4.0760 h1        1 AT5      0.059367
@<TRIPOS>BOND
     1    1    2 2   
     2    2    3 1   
     3    2   12 1   
     4    3    4 1   
     5    3   11 1   
     6    3   24 1   
     7    4    5 1   
     8    4   25 1   
     9    4   26 1   
    10    5    6 1   
    11    5    7 1   
    12    5   27 1   
    13    6   28 1   
    14    6   29 1   
    15    6   30 1   
    16    7    8 1   
    17    7    9 1   
    18    7   31 1   
    19    9   10 1   
    20    9   32 1   
    21    9   33 1   
    22   11   34 1   
    23   11   35 1   
    24   11   36 1   
    25   12   13 1   
    26   12   17 2   
    27   13   14 1   
    28   13   23 2   
    29   14   15 1   
    30   14   37 1   
    31   15   16 2   
    32   15   21 1   
    33   16   17 1   
    34   16   19 1   
    35   17   18 1   
    36   18   38 1   
    37   19   20 1   
    38   20   39 1   
    39   20   40 1   
    40   20   41 1   
    41   21   22 1   
    42   22   42 1   
    43   22   43 1   
    44   22   44 1   
@<TRIPOS>SUBSTRUCTURE
     1 AT5         1 TEMP              0 ****  ****    0 ROOT
