@<TRIPOS>MOLECULE
AT6
   37    33     1     0     0
SMALL
bcc


@<TRIPOS>ATOM
      1 C2          3.2170   -1.7140   -2.5530 c1        1 AT6      0.003000
      2 C1          2.3390   -2.3120   -3.3820 c1        1 AT6     -0.233000
      3 C6          1.0040   -1.8530   -3.4440 c1        1 AT6      0.111000
      4 N5          0.6100   -0.8170   -2.6730 n1        1 AT6     -0.208000
      5 C4          1.5020   -0.2130   -1.8330 c1        1 AT6      0.025000
      6 C3          2.8130   -0.6620   -1.7720 c1        1 AT6     -0.221000
      7 C10         1.0350    0.9570   -0.9020 c3        1 AT6     -0.141000
      8 C11        -0.4340    1.2560   -1.1580 c3        1 AT6     -0.025000
      9 N12        -1.0570    1.7100    0.0780 n         1 AT6     -0.373000
     10 C24        -2.0680    0.9450    0.6820 c2        1 AT6      0.337000
     11 O25        -2.6850    0.1680    0.0430 o         1 AT6     -0.357000
     12 C26        -2.3430    1.0960    2.1960 c2        1 AT6     -0.097000
     13 C27        -1.3440    0.7590    3.1260 c2        1 AT6     -0.114000
     14 C28        -1.5920    0.8870    4.4900 c1        1 AT6     -0.099000
     15 C29        -2.8440    1.3520    4.9370 c1        1 AT6      0.005000
     16 C30        -3.8420    1.6880    4.0040 c1        1 AT6     -0.098000
     17 C31        -3.5890    1.5590    2.6380 c1        1 AT6     -0.084000
     18 C32        -3.1220    1.4610    6.3980 c1        1 AT6     -0.102000
     19 N33        -3.3320    1.5420    7.5020 n1        1 AT6     -0.027000
     20 N7          0.1000   -2.4260   -4.3650 n3        1 AT6     -0.322000
     21 C9          4.6920   -2.1930   -2.5020 c3        1 AT6     -0.187000
     22 H1          2.6380   -3.0910   -3.9620 ha        1 AT6      0.142000
     23 H3          3.4150   -0.2520   -1.2030 ha        1 AT6      0.147000
     24 H101        1.5750    1.7700   -1.0930 hc        1 AT6      0.098500
     25 H102        1.1620    0.6860    0.0740 hc        1 AT6      0.098500
     26 H111       -0.8930    0.4270   -1.4810 h1        1 AT6      0.113500
     27 H112       -0.5130    1.9890   -1.8690 h1        1 AT6      0.113500
     28 HN12       -0.6940    2.4330    0.5360 hn        1 AT6      0.224000
     29 H27        -0.4230    0.4180    2.7960 ha        1 AT6      0.141000
     30 H28        -0.8940    0.6510    5.1400 ha        1 AT6      0.149000
     31 H30        -4.7490    2.0250    4.3240 ha        1 AT6      0.152000
     32 H31        -4.3010    1.7980    1.9690 ha        1 AT6      0.164000
     33 HN71        0.3820   -3.0270   -4.9410 hn        1 AT6      0.196000
     34 HN72       -0.7880   -2.1710   -4.3600 hn        1 AT6      0.196000
     35 H91         5.2950   -1.4040   -2.3050 hc        1 AT6      0.090333
     36 H92         4.7930   -2.8660   -1.7950 hc        1 AT6      0.090333
     37 H93         4.9320   -2.5730   -3.3390 hc        1 AT6      0.090333
@<TRIPOS>BOND
     1    1    6 1   
     2    1   21 1   
     3    2    3 1   
     4    2   22 1   
     5    3   20 1   
     6    4    5 1   
     7    5    7 1   
     8    6   23 1   
     9    7    8 1   
    10    7   24 1   
    11    7   25 1   
    12    8    9 1   
    13    8   26 1   
    14    8   27 1   
    15    9   10 1   
    16    9   28 1   
    17   10   11 1   
    18   10   12 1   
    19   12   13 1   
    20   12   17 1   
    21   13   14 1   
    22   13   29 1   
    23   14   30 1   
    24   15   16 1   
    25   15   18 1   
    26   16   31 1   
    27   17   32 1   
    28   18   19 1   
    29   20   33 1   
    30   20   34 1   
    31   21   35 1   
    32   21   36 1   
    33   21   37 1   
@<TRIPOS>SUBSTRUCTURE
     1 AT6         1 TEMP              0 ****  ****    0 ROOT
