@<TRIPOS>MOLECULE
AT6
   39    40     1     0     0
SMALL
bcc


@<TRIPOS>ATOM
      1 C2         -0.0980    0.0030   -0.1320 ca        1 AT6      0.024700
      2 C1          1.3000   -0.1560   -0.1820 ca        1 AT6     -0.194300
      3 C6          1.9920   -0.2340    1.0410 ca        1 AT6      0.462200
      4 N5          1.4050   -0.1670    2.2690 nb        1 AT6     -0.676000
      5 C4          0.0650   -0.0090    2.2960 ca        1 AT6      0.437600
      6 C3         -0.7170    0.0780    1.1190 ca        1 AT6     -0.192300
      7 C10        -0.6340    0.1440    3.6220 c3        1 AT6     -0.156700
      8 C11        -0.1410   -0.8730    4.6460 c3        1 AT6      0.110800
      9 N12        -0.9030   -0.8170    5.9270 n4        1 AT6     -0.685800
     10 C24        -0.3980   -1.8260    6.9660 c         1 AT6      0.584700
     11 O25         0.6140   -2.4310    6.6440 o         1 AT6     -0.426100
     12 C26        -1.1870   -1.9410    8.1860 ca        1 AT6     -0.208600
     13 C27        -2.2300   -1.0650    8.5370 ca        1 AT6     -0.063000
     14 C28        -2.9210   -1.2490    9.7270 ca        1 AT6     -0.094000
     15 C29        -2.5800   -2.3120   10.5860 ca        1 AT6      0.107000
     16 C30        -1.5380   -3.1830   10.2430 ca        1 AT6     -0.094000
     17 C31        -0.8430   -2.9990    9.0500 ca        1 AT6     -0.063000
     18 C32        -3.2950   -2.4940   11.8000 cg        1 AT6      0.171800
     19 N33        -3.8800   -2.6430   12.7950 n1        1 AT6     -0.234800
     20 N7          3.4660   -0.3890    1.0220 n4        1 AT6     -0.819300
     21 C9         -0.8790    0.0810   -1.3850 c3        1 AT6     -0.091800
     22 H1          1.8070   -0.2110   -1.1600 ha        1 AT6      0.185000
     23 H3         -1.8100    0.2110    1.1870 ha        1 AT6      0.185000
     24 H101       -0.4540    1.1920    3.9910 hc        1 AT6      0.091700
     25 H102       -1.7400    0.0250    3.4530 hc        1 AT6      0.091700
     26 H111        0.9470   -0.6940    4.8920 hx        1 AT6      0.123200
     27 H112       -0.2360   -1.9210    4.2380 hx        1 AT6      0.123200
     28 HN12       -0.8280    0.1230    6.3320 hn        1 AT6      0.459300
     29 H27        -2.5200   -0.2150    7.9020 ha        1 AT6      0.153000
     30 H28        -3.7390   -0.5610   10.0060 ha        1 AT6      0.187500
     31 H30        -1.2650   -4.0160   10.9160 ha        1 AT6      0.187500
     32 H31        -0.0180   -3.6840    8.7830 ha        1 AT6      0.153000
     33 HN71        3.7440   -1.2200    1.5600 hn        1 AT6      0.478467
     34 HN72        3.7810   -0.4910    0.0500 hn        1 AT6      0.478467
     35 H91        -0.3490    0.7040   -2.1490 hc        1 AT6      0.089367
     36 H92        -1.0190   -0.9470   -1.8110 hc        1 AT6      0.089367
     37 H93        -1.8910    0.5260   -1.2080 hc        1 AT6      0.089367
     38 H122       -1.8960   -1.0090    5.7510 hn        1 AT6      0.459300
     39 H73         3.9090    0.4410    1.4390 hn        1 AT6      0.478467
@<TRIPOS>BOND
     1    1    2 ar  
     2    1    6 ar  
     3    1   21 1   
     4    2    3 ar  
     5    2   22 1   
     6    3    4 ar  
     7    3   20 1   
     8    4    5 ar  
     9    5    6 ar  
    10    5    7 1   
    11    6   23 1   
    12    7    8 1   
    13    7   24 1   
    14    7   25 1   
    15    8    9 1   
    16    8   26 1   
    17    8   27 1   
    18    9   10 1   
    19    9   28 1   
    20    9   38 1   
    21   10   11 2   
    22   10   12 1   
    23   12   13 ar  
    24   12   17 ar  
    25   13   14 ar  
    26   13   29 1   
    27   14   15 ar  
    28   14   30 1   
    29   15   16 ar  
    30   15   18 1   
    31   16   17 ar  
    32   16   31 1   
    33   17   32 1   
    34   18   19 3   
    35   20   33 1   
    36   20   34 1   
    37   20   39 1   
    38   21   35 1   
    39   21   36 1   
    40   21   37 1   
@<TRIPOS>SUBSTRUCTURE
     1 AT6         1 TEMP              0 ****  ****    0 ROOT
