@<TRIPOS>MOLECULE
AT6
   37    38     1     0     0
SMALL
bcc


@<TRIPOS>ATOM
      1 C2          5.2160    0.9270   -0.6960 ca        1 AT6     -0.004300
      2 C1          5.8780   -0.0130    0.0900 ca        1 AT6     -0.298300
      3 C6          5.1340   -0.7480    1.0630 ca        1 AT6      0.633200
      4 N5          3.7860   -0.5750    1.2290 nb        1 AT6     -0.734000
      5 C4          3.1710    0.3500    0.4580 ca        1 AT6      0.448600
      6 C3          3.8410    1.1170   -0.5130 ca        1 AT6     -0.286300
      7 C10         1.6950    0.5670    0.6500 c3        1 AT6     -0.156700
      8 C11         0.9090   -0.6220    0.0830 c3        1 AT6      0.091000
      9 N12        -0.5140   -0.5210    0.2550 n         1 AT6     -0.563900
     10 C24        -1.3570   -0.0990   -0.7530 c         1 AT6      0.663700
     11 O25        -0.9430    0.1040   -1.9120 o         1 AT6     -0.597100
     12 C26        -2.8070    0.0440   -0.4160 ca        1 AT6     -0.117600
     13 C27        -3.2310    0.6270    0.7810 ca        1 AT6     -0.099000
     14 C28        -4.5920    0.7590    1.0490 ca        1 AT6     -0.099000
     15 C29        -5.5350    0.3040    0.1160 ca        1 AT6      0.002000
     16 C30        -5.1090   -0.2720   -1.0900 ca        1 AT6     -0.099000
     17 C31        -3.7480   -0.3970   -1.3540 ca        1 AT6     -0.099000
     18 C32        -6.9240    0.4320    0.3910 cg        1 AT6      0.227800
     19 N33        -8.0600    0.5370    0.6170 n1        1 AT6     -0.351800
     20 N7          5.8190   -1.6210    1.9250 nh        1 AT6     -0.924500
     21 C9          5.9510    1.7230   -1.7060 c3        1 AT6     -0.061800
     22 H1          6.9570   -0.1780   -0.0280 ha        1 AT6      0.142000
     23 H3          3.2930    1.8490   -1.1210 ha        1 AT6      0.147000
     24 H101        1.4680    0.6960    1.7420 hc        1 AT6      0.060200
     25 H102        1.3920    1.5110    0.1260 hc        1 AT6      0.060200
     26 H111        1.1330   -0.7150   -1.0180 h1        1 AT6      0.073200
     27 H112        1.2500   -1.5650    0.5990 h1        1 AT6      0.073200
     28 HN12       -0.8670   -0.5900    1.1790 hn        1 AT6      0.310500
     29 H27        -2.5010    1.0020    1.5150 ha        1 AT6      0.152500
     30 H28        -4.9270    1.2200    1.9900 ha        1 AT6      0.150500
     31 H30        -5.8490   -0.6210   -1.8270 ha        1 AT6      0.150500
     32 H31        -3.4000   -0.8310   -2.3060 ha        1 AT6      0.152500
     33 HN71        6.6090   -2.0560    1.5050 hn        1 AT6      0.401300
     34 HN72        5.2500   -2.2450    2.4540 hn        1 AT6      0.401300
     35 H91         5.3560    1.8060   -2.6490 hc        1 AT6      0.050700
     36 H92         6.1310    2.7560   -1.3140 hc        1 AT6      0.050700
     37 H93         6.9390    1.2610   -1.9480 hc        1 AT6      0.050700
@<TRIPOS>BOND
     1    1    2 ar  
     2    1    6 ar  
     3    1   21 1   
     4    2    3 ar  
     5    2   22 1   
     6    3    4 ar  
     7    3   20 1   
     8    4    5 ar  
     9    5    6 ar  
    10    5    7 1   
    11    6   23 1   
    12    7    8 1   
    13    7   24 1   
    14    7   25 1   
    15    8    9 1   
    16    8   26 1   
    17    8   27 1   
    18    9   10 1   
    19    9   28 1   
    20   10   11 2   
    21   10   12 1   
    22   12   13 ar  
    23   12   17 ar  
    24   13   14 ar  
    25   13   29 1   
    26   14   15 ar  
    27   14   30 1   
    28   15   16 ar  
    29   15   18 1   
    30   16   17 ar  
    31   16   31 1   
    32   17   32 1   
    33   18   19 3   
    34   20   33 1   
    35   20   34 1   
    36   21   35 1   
    37   21   36 1   
    38   21   37 1   
@<TRIPOS>SUBSTRUCTURE
     1 AT6         1 TEMP              0 ****  ****    0 ROOT
