@<TRIPOS>MOLECULE
AT6
   38    39     1     0     0
SMALL
bcc


@<TRIPOS>ATOM
      1 C2         -0.6030   -0.2620    0.2640 ca        1 AT6      0.017700
      2 C1          0.4730   -1.1340    0.1780 ca        1 AT6     -0.288300
      3 C6          1.2620   -1.3940    1.3470 ca        1 AT6      0.673200
      4 N5          0.9940   -0.7850    2.5460 nb        1 AT6     -0.771000
      5 C4         -0.0680    0.0530    2.5970 ca        1 AT6      0.423600
      6 C3         -0.8910    0.3450    1.5010 ca        1 AT6     -0.288300
      7 C10        -0.3690    0.7490    3.8980 c3        1 AT6     -0.147700
      8 C11         0.0640   -0.0970    5.0900 c3        1 AT6      0.114800
      9 N12        -0.3880    0.4850    6.3940 ny        1 AT6     -0.681800
     10 C24         0.1080   -0.3440    7.5640 c         1 AT6      0.574700
     11 O25         1.2190   -0.0290    7.9690 o         1 AT6     -0.419100
     12 C26        -0.7870   -1.3730    8.0920 ca        1 AT6     -0.189600
     13 C27        -1.8680   -1.9090    7.3740 ca        1 AT6     -0.068500
     14 C28        -2.6630   -2.8940    7.9480 ca        1 AT6     -0.095000
     15 C29        -2.3860   -3.3550    9.2470 ca        1 AT6      0.082000
     16 C30        -1.3030   -2.8280    9.9630 ca        1 AT6     -0.095000
     17 C31        -0.5030   -1.8440    9.3860 ca        1 AT6     -0.068500
     18 C32        -3.2060   -4.3590    9.8290 cg        1 AT6      0.186800
     19 N33        -3.8770   -5.1810   10.3060 n1        1 AT6     -0.265800
     20 N7          2.2800   -2.3400    1.2850 nv        1 AT6     -0.939500
     21 C9         -1.4380    0.0430   -0.9200 c3        1 AT6     -0.070800
     22 H1          0.7160   -1.6270   -0.7740 ha        1 AT6      0.158000
     23 H3         -1.7370    1.0380    1.5930 ha        1 AT6      0.146000
     24 H101        0.1730    1.7340    3.9030 hc        1 AT6      0.072200
     25 H102       -1.4720    0.9580    3.9410 hc        1 AT6      0.072200
     26 H111       -0.3630   -1.1370    5.0080 hx        1 AT6      0.123700
     27 H112        1.1920   -0.1720    5.1280 hx        1 AT6      0.123700
     28 HN12       -1.4110    0.5420    6.4150 hn        1 AT6      0.456300
     29 H27        -2.0990   -1.5890    6.3460 ha        1 AT6      0.157000
     30 H28        -3.5100   -3.3190    7.3830 ha        1 AT6      0.179500
     31 H30        -1.0780   -3.1930   10.9800 ha        1 AT6      0.179500
     32 H31         0.3570   -1.4350    9.9450 ha        1 AT6      0.157000
     33 HN71        2.9410   -2.3670    2.0260 hn        1 AT6      0.425800
     34 HN72        2.6370   -2.5290    0.3770 hn        1 AT6      0.425800
     35 H91        -1.2830   -0.7110   -1.7310 hc        1 AT6      0.061367
     36 H92        -1.1680    1.0530   -1.3230 hc        1 AT6      0.061367
     37 H93        -2.5220    0.0530   -0.6460 hc        1 AT6      0.061367
     38 H122       -0.0060    1.4370    6.4780 hn        1 AT6      0.456300
@<TRIPOS>BOND
     1    1    2 ar  
     2    1    6 ar  
     3    1   21 1   
     4    2    3 ar  
     5    2   22 1   
     6    3    4 ar  
     7    3   20 1   
     8    4    5 ar  
     9    5    6 ar  
    10    5    7 1   
    11    6   23 1   
    12    7    8 1   
    13    7   24 1   
    14    7   25 1   
    15    8    9 1   
    16    8   26 1   
    17    8   27 1   
    18    9   10 1   
    19    9   28 1   
    20    9   38 1   
    21   10   11 2   
    22   10   12 1   
    23   12   13 ar  
    24   12   17 ar  
    25   13   14 ar  
    26   13   29 1   
    27   14   15 ar  
    28   14   30 1   
    29   15   16 ar  
    30   15   18 1   
    31   16   17 ar  
    32   16   31 1   
    33   17   32 1   
    34   18   19 3   
    35   20   33 1   
    36   20   34 1   
    37   21   35 1   
    38   21   36 1   
    39   21   37 1   
@<TRIPOS>SUBSTRUCTURE
     1 AT6         1 TEMP              0 ****  ****    0 ROOT
