@<TRIPOS>MOLECULE
ATA
   64    59     1     0     0
SMALL
bcc


@<TRIPOS>ATOM
      1 N'          3.6390    2.1710    2.2670 nv        1 ATA     -0.310100
      2 CA'         4.7650    2.1070    2.9150 c2        1 ATA      0.424200
      3 CB'         4.8890    2.2090    4.4060 c3        1 ATA     -0.076500
      4 CG'         4.0450    3.2620    4.9880 c2        1 ATA     -0.496200
      5 CC'         5.4870   -0.3370   -0.4440 c1        1 ATA      0.904000
      6 O1'         5.9300   -1.1010   -1.2320 o         1 ATA     -0.451000
      7 O2'         5.0400    0.4350    0.3520 o         1 ATA     -0.451000
      8 C'          2.6880    3.0960    5.1210 c2        1 ATA      0.508300
      9 O'          1.9440    2.1600    4.6880 o         1 ATA     -0.804300
     10 N5          0.6260    9.5370    8.4230 nb        1 ATA     -0.773000
     11 C6          0.4280    8.1810    8.7340 ca        1 ATA      0.927900
     12 N1          1.3170    7.1700    8.3440 nb        1 ATA     -0.835000
     13 C2          2.4000    7.5970    7.6410 ca        1 ATA      0.768300
     14 N3          2.6730    8.8890    7.2800 nb        1 ATA     -0.752000
     15 C4          1.7420    9.7920    7.7100 ca        1 ATA      0.703900
     16 N           1.9220    4.2100    5.8080 ny        1 ATA     -0.646800
     17 CA          1.9720    4.1440    7.3010 c3        1 ATA      0.014500
     18 C           1.9520    2.7040    7.8180 c         1 ATA      0.579900
     19 O           2.6060    2.3660    8.7980 o         1 ATA     -0.487100
     20 CB          3.1520    4.9070    7.8910 c3        1 ATA     -0.069300
     21 SG          3.5660    6.4260    7.1140 ss        1 ATA     -0.213400
     22 N7          5.2060    4.3040    0.9470 n2        1 ATA     -0.862100
     23 C12        -1.4570    4.5120    9.8040 c2        1 ATA     -0.232500
     24 C13        -2.5370    5.1850   10.1780 c2        1 ATA     -0.232500
     25 C8          5.2400    4.5710   -0.3130 c2        1 ATA      0.463300
     26 C9          5.7030    5.8520   -0.9410 c3        1 ATA     -0.182400
     27 C10         4.7930    3.5610   -1.3320 c3        1 ATA     -0.182400
     28 ND         -0.7550    0.6270    4.6980 nv        1 ATA     -0.326100
     29 CAD        -1.5480    1.5210    5.2080 ce        1 ATA      0.337200
     30 CD         -1.0140    2.9430    5.5230 c         1 ATA      0.814300
     31 OD         -0.7430    3.1570    6.7260 o         1 ATA     -0.755800
     32 OT'        -0.8170    3.6910    4.5400 o         1 ATA     -0.755800
     33 HN'1        0.4480    2.6440    2.8560 ha        1 ATA      0.002500
     34 HN'2        2.7570    2.3210    2.7410 hn        1 ATA      0.332200
     35 HA'         3.6220    2.1220    1.2620 hn        1 ATA      0.332200
     36 HB'1        5.6980    1.9420    2.3250 h4        1 ATA      0.061800
     37 HB'2        5.9690    2.4050    4.6510 hc        1 ATA      0.095200
     38 HG'1        4.6200    1.1950    4.8270 hc        1 ATA      0.095200
     39 HG'2        4.5630    4.1520    5.3620 ha        1 ATA      0.149000
     40 HN          0.9340    4.1650    5.5050 hn        1 ATA      0.469800
     41 HA          0.9940    4.5990    7.6760 hx        1 ATA      0.155700
     42 HB1         4.0910    4.2970    7.7880 h1        1 ATA      0.123200
     43 HB2         2.9540    5.0210    8.9890 h1        1 ATA      0.123200
     44 H7          1.9290   10.8560    7.4450 h5        1 ATA      0.069100
     45 H11        -1.3290    8.5330    9.7310 hn        1 ATA      0.462300
     46 H121       -0.8770    6.8770    9.6580 hn        1 ATA      0.462300
     47 H122       -1.2790    4.1990    8.7630 ha        1 ATA      0.118250
     48 H131       -0.6760    4.2080   10.5150 ha        1 ATA      0.118250
     49 H132       -2.7230    5.4800   11.2210 ha        1 ATA      0.118250
     50 H133       -3.3280    5.4760    9.4740 ha        1 ATA      0.118250
     51 H8          5.5180    5.0400    1.5450 hn        1 ATA      0.396400
     52 H91         4.9430    6.2080   -1.6800 hc        1 ATA      0.061700
     53 H92         5.8690    6.6610   -0.1880 hc        1 ATA      0.061700
     54 H93         6.6650    5.6730   -1.4840 hc        1 ATA      0.061700
     55 H101        5.5720    3.4750   -2.1300 hc        1 ATA      0.061700
     56 H102        4.6220    2.5480   -0.8910 hc        1 ATA      0.061700
     57 H103        3.8410    3.9140   -1.8010 hc        1 ATA      0.061700
     58 HN'         1.2640    2.0250    7.2690 h4        1 ATA      0.043200
     59 HA'1       -1.0430   -0.3110    4.4980 hn        1 ATA      0.322700
     60 HA'2       -2.6060    1.2840    5.4450 h4        1 ATA      0.056800
     61 H'3         0.6520    2.1280    2.4630 ha        1 ATA      0.002500
     62 H2          2.3200    5.1180    5.5240 hn        1 ATA      0.469800
     63 HD2         0.2060    0.8670    4.4850 hn        1 ATA      0.322700
     64 N11        -0.6870    7.8320    9.4500 nv        1 ATA     -0.940500
@<TRIPOS>BOND
     1    1    2 2   
     2    1   34 1   
     3    1   35 1   
     4    2    3 1   
     5    2   36 1   
     6    3    4 1   
     7    3   37 1   
     8    3   38 1   
     9    4    8 2   
    10    4   39 1   
    11    5    6 2   
    12    5    7 2   
    13    8    9 1   
    14    8   16 1   
    15   10   11 ar  
    16   10   15 ar  
    17   11   12 ar  
    18   11   64 1   
    19   12   13 ar  
    20   13   14 ar  
    21   13   21 1   
    22   14   15 ar  
    23   15   44 1   
    24   16   17 1   
    25   16   40 1   
    26   16   62 1   
    27   17   18 1   
    28   17   20 1   
    29   17   41 1   
    30   18   19 2   
    31   18   58 1   
    32   20   21 1   
    33   20   42 1   
    34   20   43 1   
    35   22   25 2   
    36   22   51 1   
    37   23   24 2   
    38   23   47 1   
    39   23   48 1   
    40   24   49 1   
    41   24   50 1   
    42   25   26 1   
    43   25   27 1   
    44   26   52 1   
    45   26   53 1   
    46   26   54 1   
    47   27   55 1   
    48   27   56 1   
    49   27   57 1   
    50   28   29 2   
    51   28   59 1   
    52   28   63 1   
    53   29   30 1   
    54   29   60 1   
    55   30   31 1   
    56   30   32 1   
    57   33   61 1   
    58   45   64 1   
    59   46   64 1   
@<TRIPOS>SUBSTRUCTURE
     1 ATA         1 TEMP              0 ****  ****    0 ROOT
