@<TRIPOS>MOLECULE
ATA
   61    61     1     0     0
SMALL
bcc


@<TRIPOS>ATOM
      1 N'         -2.0430    0.4290    7.1090 n3        1 ATA     -0.896800
      2 CA'        -2.5130    1.2220    5.9790 c3        1 ATA      0.019500
      3 CB'        -2.3770    0.5030    4.6340 c3        1 ATA     -0.060400
      4 CG'        -0.9230    0.3060    4.2600 c3        1 ATA     -0.141400
      5 CC'        -3.9800    1.7450    6.1270 c         1 ATA      0.889600
      6 O1'        -4.6240    1.4290    7.1700 o         1 ATA     -0.847300
      7 O2'        -4.4340    2.4860    5.2120 o         1 ATA     -0.847300
      8 C'         -0.7610   -0.5630    3.0270 c         1 ATA      0.667100
      9 O'         -1.4890   -1.5470    2.7930 o         1 ATA     -0.616100
     10 N5         -0.1790    0.8660   -5.2530 nb        1 ATA     -0.873000
     11 C6          0.8150    0.8680   -4.2740 ca        1 ATA      0.936900
     12 N1          0.5860    0.5240   -2.9460 nb        1 ATA     -0.819000
     13 C2         -0.6680    0.0920   -2.6480 ca        1 ATA      0.791300
     14 N3         -1.7220    0.0350   -3.5220 nb        1 ATA     -0.806000
     15 C4         -1.4290    0.4700   -4.8080 ca        1 ATA      0.899900
     16 N           0.2750   -0.2340    2.1590 n         1 ATA     -0.578900
     17 CA          0.6740   -1.0600    1.0560 c3        1 ATA      0.041700
     18 C           2.1260   -1.6090    1.2360 c         1 ATA      0.617100
     19 O           2.2800   -2.8190    1.4960 o         1 ATA     -0.620100
     20 CB          0.6480   -0.3480   -0.3000 c3        1 ATA     -0.066300
     21 SG         -0.9650   -0.4430   -1.0340 ss        1 ATA     -0.173400
     22 N7         -2.4850    0.5920   -5.7440 nh        1 ATA     -0.816900
     23 C12         3.1730    1.3210   -3.6820 c3        1 ATA      0.204800
     24 C13         4.5480    1.4320   -4.3150 c3        1 ATA     -0.107100
     25 C8         -3.6870   -0.2110   -5.5810 c3        1 ATA      0.200500
     26 C9         -4.7840    0.2680   -6.5360 c3        1 ATA     -0.111100
     27 C10        -3.4810   -1.7130   -5.7930 c3        1 ATA     -0.111100
     28 ND          3.1630   -0.7010    1.1610 n         1 ATA     -0.505900
     29 CAD         4.5160   -1.1310    0.8910 c3        1 ATA     -0.065000
     30 CD          5.1590   -0.4690   -0.3600 c         1 ATA      0.900600
     31 OD          4.4730    0.3330   -1.0590 o         1 ATA     -0.848300
     32 OT'         6.3570   -0.7760   -0.6070 o         1 ATA     -0.848300
     33 HN'1       -2.4160   -0.5000    7.0260 hn        1 ATA      0.331300
     34 HN'2       -2.4520    0.8240    7.9410 hn        1 ATA      0.331300
     35 HA'        -1.8590    2.1440    5.9500 h1        1 ATA      0.038700
     36 HB'1       -2.8940    1.1330    3.8620 hc        1 ATA      0.063200
     37 HB'2       -2.8970   -0.4900    4.6610 hc        1 ATA      0.063200
     38 HG'1       -0.3800   -0.2220    5.0900 hc        1 ATA      0.061700
     39 HG'2       -0.4400    1.3090    4.1230 hc        1 ATA      0.061700
     40 HN          0.8640    0.5320    2.3830 hn        1 ATA      0.309500
     41 HA         -0.0090   -1.9650    1.0230 h1        1 ATA      0.119700
     42 HB1         1.3950   -0.8470   -0.9740 h1        1 ATA      0.099200
     43 HB2         0.9570    0.7230   -0.2070 h1        1 ATA      0.099200
     44 H7         -2.1720    0.6420   -6.6930 hn        1 ATA      0.403800
     45 H11         2.2500    1.5560   -5.5610 hn        1 ATA      0.428800
     46 H121        3.1790    0.4300   -2.9790 h1        1 ATA      0.087200
     47 H122        2.9860    2.2340   -3.0450 h1        1 ATA      0.087200
     48 H131        5.2920    1.3930   -3.4770 hc        1 ATA      0.043033
     49 H132        4.7530    0.5810   -5.0080 hc        1 ATA      0.043033
     50 H133        4.6690    2.3870   -4.8780 hc        1 ATA      0.043033
     51 H8         -4.0600   -0.0540   -4.5240 h1        1 ATA      0.096700
     52 H91        -5.7160   -0.3100   -6.3270 hc        1 ATA      0.037367
     53 H92        -4.9970    1.3540   -6.3870 hc        1 ATA      0.037367
     54 H93        -4.4940    0.1030   -7.6010 hc        1 ATA      0.037367
     55 H101       -3.1430   -1.9290   -6.8340 hc        1 ATA      0.037367
     56 H102       -2.7210   -2.1100   -5.0780 hc        1 ATA      0.037367
     57 H103       -4.4460   -2.2440   -5.6140 hc        1 ATA      0.037367
     58 HN'         2.9470    0.1640    0.6990 hn        1 ATA      0.308500
     59 HA'1        5.1440   -0.8650    1.7860 h1        1 ATA      0.049200
     60 HA'2        4.5540   -2.2470    0.7580 h1        1 ATA      0.049200
     61 N11         2.1060    1.1870   -4.6520 nh        1 ATA     -0.850900
@<TRIPOS>BOND
     1    1    2 1   
     2    1   33 1   
     3    1   34 1   
     4    2    3 1   
     5    2    5 1   
     6    2   35 1   
     7    3    4 1   
     8    3   36 1   
     9    3   37 1   
    10    4    8 1   
    11    4   38 1   
    12    4   39 1   
    13    5    6 1   
    14    5    7 1   
    15    8    9 2   
    16    8   16 1   
    17   10   11 ar  
    18   10   15 ar  
    19   11   12 ar  
    20   11   61 1   
    21   12   13 ar  
    22   13   14 ar  
    23   13   21 1   
    24   14   15 ar  
    25   15   22 1   
    26   16   17 1   
    27   16   40 1   
    28   17   18 1   
    29   17   20 1   
    30   17   41 1   
    31   18   19 2   
    32   18   28 1   
    33   20   21 1   
    34   20   42 1   
    35   20   43 1   
    36   22   25 1   
    37   22   44 1   
    38   23   24 1   
    39   23   46 1   
    40   23   47 1   
    41   23   61 1   
    42   24   48 1   
    43   24   49 1   
    44   24   50 1   
    45   25   26 1   
    46   25   27 1   
    47   25   51 1   
    48   26   52 1   
    49   26   53 1   
    50   26   54 1   
    51   27   55 1   
    52   27   56 1   
    53   27   57 1   
    54   28   29 1   
    55   28   58 1   
    56   29   30 1   
    57   29   59 1   
    58   29   60 1   
    59   30   31 1   
    60   30   32 1   
    61   45   61 1   
@<TRIPOS>SUBSTRUCTURE
     1 ATA         1 TEMP              0 ****  ****    0 ROOT
