@<TRIPOS>MOLECULE
ATA
   66    65     1     0     0
SMALL
bcc


@<TRIPOS>ATOM
      1 N'         -0.2230   -2.3370   -4.0870 n4        1 ATA     -0.091000
      2 CA'        -0.0740    1.4270   -0.1800 cx        1 ATA     -0.014000
      3 CB'         0.2020    1.2130    1.2750 c3        1 ATA     -0.156000
      4 CG'         0.7490    2.4840    1.8990 c3        1 ATA     -0.174000
      5 CC'         0.0590    0.3690   -1.1730 cu        1 ATA      0.334000
      6 O1'        -0.1440   -0.5840   -1.8980 o         1 ATA     -0.337000
      7 O2'         1.0950    1.2500   -1.0960 os        1 ATA     -0.239000
      8 C'          0.9190    2.3250    3.3940 c2        1 ATA      0.329000
      9 O'          0.3090    1.4520    4.0570 o         1 ATA     -0.432000
     10 N5          3.1370    8.6790    7.9280 n2        1 ATA     -0.215000
     11 C6          2.5230    7.4310    8.1960 c2        1 ATA      0.226000
     12 N1          2.7270    6.2930    7.4570 n2        1 ATA     -0.289000
     13 C2          3.5800    6.3840    6.3790 c2        1 ATA     -0.118000
     14 N3          4.2120    7.5950    6.0740 na        1 ATA     -0.243000
     15 C4          3.9560    8.6850    6.8770 c2        1 ATA      0.127000
     16 N           1.7440    3.2150    4.0600 n         1 ATA     -0.373000
     17 CA          2.1250    2.9820    5.4270 c3        1 ATA      0.203000
     18 C           0.8880    3.3400    6.3400 c2        1 ATA      0.234000
     19 O           0.4460    4.4150    6.6950 o         1 ATA     -0.204000
     20 CB          3.2840    3.7060    5.9400 c2        1 ATA     -0.842000
     21 SG          3.9380    5.0330    5.4290 ss        1 ATA      0.693000
     22 N7          6.0060    8.3140    3.9770 n3        1 ATA     -0.335000
     23 C12         0.9970    6.1880    9.6530 c3        1 ATA     -0.121000
     24 C13         0.0640    6.1960   10.7280 c2        1 ATA      0.204000
     25 C8          7.4490    8.0910    4.1230 cx        1 ATA     -0.108000
     26 C9          6.8560    9.4590    4.2700 cx        1 ATA     -0.166000
     27 C10         7.9560    7.3140    5.2970 c3        1 ATA     -0.195000
     28 ND          0.1080    2.1230    6.8750 n4        1 ATA     -0.126000
     29 CAD         0.7810    1.4530    8.0100 c3        1 ATA     -0.180000
     30 CD          0.8260    2.2900    9.2720 c2        1 ATA      0.332000
     31 OD          1.3390    1.7700   10.4020 oh        1 ATA     -0.230000
     32 OT'         0.4430    3.4630    9.3790 o         1 ATA     -0.388000
     33 HN'1       -0.9950   -2.2600   -3.4140 hn        1 ATA      0.271750
     34 HN'2       -0.5510   -2.0730   -5.0200 hn        1 ATA      0.271750
     35 HA'         0.5230   -1.6980   -3.7860 hn        1 ATA      0.271750
     36 HB'1       -0.6840    2.3240   -0.4270 h1        1 ATA      0.174000
     37 HB'2        0.9370    0.3770    1.4220 hc        1 ATA      0.132000
     38 HG'1       -0.7550    0.9150    1.7850 hc        1 ATA      0.132000
     39 HG'2        0.0400    3.3400    1.7230 hc        1 ATA      0.133000
     40 HN          1.6110    0.8420   10.2910 ho        1 ATA      0.274000
     41 HA          2.2370    3.9230    3.5620 hn        1 ATA      0.262000
     42 HB1         2.2980    1.8650    5.5590 h1        1 ATA      0.113000
     43 HB2         3.7920    3.1400    6.7360 h4        1 ATA      0.148000
     44 H7          4.4700    9.6470    6.6280 h5        1 ATA      0.240000
     45 H11         0.5070    9.0840   11.4580 ha        1 ATA      0.002000
     46 H121        1.5230    8.2260    9.8290 hn        1 ATA      0.292000
     47 H122        0.4720    5.6870    8.7310 h1        1 ATA      0.281500
     48 H131        1.7560    5.3260    9.8670 h1        1 ATA      0.281500
     49 H132       -0.4280    5.2380   11.0020 ha        1 ATA      0.204000
     50 H133       -0.1980    7.1020   11.3140 ha        1 ATA      0.204000
     51 H8          5.6510    8.2570    3.0430 hn        1 ATA      0.172000
     52 H91         8.0410    7.8730    3.2010 h1        1 ATA      0.143000
     53 H92         7.0470   10.2320    3.4950 h1        1 ATA      0.132500
     54 H93         6.7210    9.9110    5.2750 h1        1 ATA      0.132500
     55 H101        9.0310    7.5780    5.4650 hc        1 ATA      0.091667
     56 H102        7.8870    6.2170    5.0960 hc        1 ATA      0.091667
     57 H103        7.3890    7.5440    6.2310 hc        1 ATA      0.091667
     58 HN'         0.0200    1.4520    6.0870 hn        1 ATA      0.271000
     59 HA'1        0.2430    0.4820    8.2360 hx        1 ATA      0.180000
     60 HA'2        1.8450    1.2090    7.7070 hx        1 ATA      0.180000
     61 H'3         0.1280   -3.2970   -4.1030 hn        1 ATA      0.271750
     62 H2          1.7290    2.7440    1.4160 hc        1 ATA      0.133000
     63 H72         4.8780    7.6760    5.2850 hn        1 ATA      0.346000
     64 HD2        -0.8310    2.4190    7.1660 hn        1 ATA      0.271000
     65 H112        0.5540    9.7200   11.6920 ha        1 ATA      0.002000
     66 N11         1.6530    7.3930    9.2870 nh        1 ATA     -0.305000
@<TRIPOS>BOND
     1    1   33 1   
     2    1   34 1   
     3    1   35 1   
     4    1   61 1   
     5    2    3 1   
     6    2    5 1   
     7    2    7 1   
     8    2   36 1   
     9    3    4 1   
    10    3   37 1   
    11    3   38 1   
    12    4    8 1   
    13    4   39 1   
    14    4   62 1   
    15    5    6 1   
    16    5    7 1   
    17    8    9 1   
    18    8   16 1   
    19   10   11 1   
    20   10   15 1   
    21   11   12 1   
    22   11   66 1   
    23   12   13 1   
    24   13   14 1   
    25   13   21 1   
    26   14   15 1   
    27   14   63 1   
    28   15   44 1   
    29   16   17 1   
    30   16   41 1   
    31   17   18 1   
    32   17   20 1   
    33   17   42 1   
    34   18   19 1   
    35   18   28 1   
    36   20   21 1   
    37   20   43 1   
    38   22   25 1   
    39   22   26 1   
    40   22   51 1   
    41   23   24 1   
    42   23   47 1   
    43   23   48 1   
    44   23   66 1   
    45   24   49 1   
    46   24   50 1   
    47   25   26 1   
    48   25   27 1   
    49   25   52 1   
    50   26   53 1   
    51   26   54 1   
    52   27   55 1   
    53   27   56 1   
    54   27   57 1   
    55   28   29 1   
    56   28   58 1   
    57   28   64 1   
    58   29   30 1   
    59   29   59 1   
    60   29   60 1   
    61   30   31 1   
    62   30   32 1   
    63   31   40 1   
    64   45   65 1   
    65   46   66 1   
@<TRIPOS>SUBSTRUCTURE
     1 ATA         1 TEMP              0 ****  ****    0 ROOT
