@<TRIPOS>MOLECULE
ATC
   70    73     1     0     0
SMALL
bcc


@<TRIPOS>ATOM
      1 C1          0.3320   -0.5390   -0.1720 c         1 ATC      0.581300
      2 O1         -0.3160   -0.8970   -1.1570 o         1 ATC     -0.501100
      3 C2          1.7470   -0.9140    0.0180 ce        1 ATC     -0.394400
      4 C21         2.5600   -1.3490   -1.1160 c         1 ATC      0.578300
      5 O21         3.7550   -1.6410   -1.0820 o         1 ATC     -0.450100
      6 N21         1.9320   -1.4720   -2.4700 nz        1 ATC     -0.732400
      7 C3          2.3020   -0.8450    1.2760 c2        1 ATC      0.285900
      8 O3          3.5810   -1.0920    1.6070 oh        1 ATC     -0.482100
      9 C4          1.4990   -0.5790    2.5550 c3        1 ATC      0.167700
     10 N4          2.2160    0.4070    3.4590 nx        1 ATC     -0.677400
     11 C42         1.7310    0.2940    4.8640 c3        1 ATC      0.081100
     12 C43         2.1480    1.8170    2.9900 c3        1 ATC      0.081100
     13 C41         0.0150   -0.2520    2.3090 c3        1 ATC     -0.078700
     14 C5         -0.8470   -1.4990    2.4750 c3        1 ATC     -0.088400
     15 C51        -2.3250   -1.1260    2.4830 c3        1 ATC     -0.007500
     16 C6         -3.1670   -2.3920    2.3860 c3        1 ATC     -0.038100
     17 C61        -4.6200   -2.0740    2.4030 ca        1 ATC     -0.014300
     18 C7         -5.5050   -2.9690    2.9890 ca        1 ATC     -0.147000
     19 C8         -6.8800   -2.7260    2.9910 ca        1 ATC     -0.058000
     20 C9         -7.3990   -1.5650    2.4050 ca        1 ATC     -0.002400
     21 C10        -6.4830   -0.6330    1.8020 ca        1 ATC      0.204100
     22 O10        -7.0740    0.4800    1.2750 oh        1 ATC     -0.515100
     23 C1A        -5.0970   -0.8890    1.8000 ca        1 ATC     -0.237600
     24 C11        -4.1440    0.0310    1.1650 c         1 ATC      0.624900
     25 O11        -4.5200    0.9680    0.4310 o         1 ATC     -0.592100
     26 C1B        -2.6950   -0.1660    1.4030 ce        1 ATC     -0.257400
     27 C12        -1.7550    0.5290    0.7160 c2        1 ATC      0.136900
     28 O12        -1.9410    1.4700   -0.2480 oh        1 ATC     -0.515100
     29 C1C        -0.2550    0.3590    0.9250 c3        1 ATC      0.138000
     30 O1C         0.4300    1.6010    0.8830 oh        1 ATC     -0.615800
     31 N9         -8.7860   -1.2950    2.3470 ns        1 ATC     -0.430100
     32 C91        -9.7390   -1.8210    3.1850 c         1 ATC      0.663100
     33 O91        -9.5170   -2.6780    4.0600 o         1 ATC     -0.588100
     34 C92       -11.1690   -1.2870    2.9500 c3        1 ATC      0.018800
     35 N92       -12.2280   -1.9170    3.7950 nx        1 ATC     -0.660400
     36 C93       -12.3560   -3.3780    3.5400 c3        1 ATC      0.073600
     37 C94       -12.0260   -1.6480    5.2460 c3        1 ATC      0.073600
     38 HN21        1.6490   -0.5440   -2.8120 hn        1 ATC      0.493467
     39 HN22        2.6060   -1.8900   -3.1310 hn        1 ATC      0.493467
     40 HO3         4.1650   -1.3240    0.8510 ho        1 ATC      0.521000
     41 H4          1.5410   -1.5750    3.1190 hx        1 ATC      0.143700
     42 H421        0.6520    0.5940    4.9280 hx        1 ATC      0.117700
     43 H422        1.8570   -0.7620    5.2260 hx        1 ATC      0.117700
     44 H423        2.3430    0.9840    5.5100 hx        1 ATC      0.117700
     45 H431        2.8030    2.4490    3.6500 hx        1 ATC      0.117700
     46 H432        1.0900    2.1930    3.0360 hx        1 ATC      0.117700
     47 H433        2.5050    1.8730    1.9260 hx        1 ATC      0.117700
     48 H41        -0.3350    0.5120    3.0660 hc        1 ATC      0.112700
     49 H51A       -0.6030   -2.0140    3.4420 hc        1 ATC      0.069200
     50 H52        -0.6380   -2.2210    1.6420 hc        1 ATC      0.069200
     51 H51        -2.5570   -0.6230    3.4700 hc        1 ATC      0.082700
     52 H61        -2.9090   -3.0720    3.2410 hc        1 ATC      0.074700
     53 H62        -2.9290   -2.9410    1.4340 hc        1 ATC      0.074700
     54 H7         -5.1290   -3.8930    3.4580 ha        1 ATC      0.162000
     55 H8         -7.5480   -3.4670    3.4670 ha        1 ATC      0.186000
     56 H10        -6.4470    1.0050    0.7490 ho        1 ATC      0.481000
     57 HO2        -2.8900    1.6220   -0.4310 ho        1 ATC      0.505000
     58 HOC1       -0.0350    2.2090    0.2830 ho        1 ATC      0.478000
     59 HN9        -9.0470   -0.5570    1.7240 hn        1 ATC      0.350500
     60 H921      -11.1780   -0.1770    3.1650 hx        1 ATC      0.124700
     61 H922      -11.4520   -1.4590    1.8690 hx        1 ATC      0.124700
     62 H931      -12.5250   -3.5520    2.4440 hx        1 ATC      0.116533
     63 H932      -13.2310   -3.7730    4.1250 hx        1 ATC      0.116533
     64 H933      -11.4170   -3.9030    3.8710 hx        1 ATC      0.116533
     65 H941      -11.9600   -0.5400    5.4130 hx        1 ATC      0.116533
     66 H942      -12.9000   -2.0650    5.8170 hx        1 ATC      0.116533
     67 H943      -11.0790   -2.1450    5.5940 hx        1 ATC      0.116533
     68 H213        1.0820   -2.0570   -2.4150 hn        1 ATC      0.493467
     69 H411        3.2150    0.1290    3.4580 hn        1 ATC      0.472800
     70 H923      -13.1170   -1.4720    3.5150 hn        1 ATC      0.457800
@<TRIPOS>BOND
     1    1    2 2   
     2    1    3 1   
     3    1   29 1   
     4    3    4 1   
     5    3    7 2   
     6    4    5 2   
     7    4    6 1   
     8    6   38 1   
     9    6   39 1   
    10    6   68 1   
    11    7    8 1   
    12    7    9 1   
    13    8   40 1   
    14    9   10 1   
    15    9   13 1   
    16    9   41 1   
    17   10   11 1   
    18   10   12 1   
    19   10   69 1   
    20   11   42 1   
    21   11   43 1   
    22   11   44 1   
    23   12   45 1   
    24   12   46 1   
    25   12   47 1   
    26   13   14 1   
    27   13   29 1   
    28   13   48 1   
    29   14   15 1   
    30   14   49 1   
    31   14   50 1   
    32   15   16 1   
    33   15   26 1   
    34   15   51 1   
    35   16   17 1   
    36   16   52 1   
    37   16   53 1   
    38   17   18 ar  
    39   17   23 ar  
    40   18   19 ar  
    41   18   54 1   
    42   19   20 ar  
    43   19   55 1   
    44   20   21 ar  
    45   20   31 1   
    46   21   22 1   
    47   21   23 ar  
    48   22   56 1   
    49   23   24 1   
    50   24   25 2   
    51   24   26 1   
    52   26   27 2   
    53   27   28 1   
    54   27   29 1   
    55   28   57 1   
    56   29   30 1   
    57   30   58 1   
    58   31   32 1   
    59   31   59 1   
    60   32   33 2   
    61   32   34 1   
    62   34   35 1   
    63   34   60 1   
    64   34   61 1   
    65   35   36 1   
    66   35   37 1   
    67   35   70 1   
    68   36   62 1   
    69   36   63 1   
    70   36   64 1   
    71   37   65 1   
    72   37   66 1   
    73   37   67 1   
@<TRIPOS>SUBSTRUCTURE
     1 ATC         1 TEMP              0 ****  ****    0 ROOT
