@<TRIPOS>MOLECULE
ATC
   70    73     1     0     0
SMALL
bcc


@<TRIPOS>ATOM
      1 C1          1.9510   -0.0960    0.4040 c         1 ATC      0.581300
      2 O1          2.5680   -1.0090   -0.1480 o         1 ATC     -0.501100
      3 C2          2.5640    0.7480    1.4480 ce        1 ATC     -0.394400
      4 C21         4.0180    0.8340    1.5770 c         1 ATC      0.578300
      5 O21         4.6350    1.5380    2.3760 o         1 ATC     -0.450100
      6 N21         4.8880    0.0110    0.6780 n4        1 ATC     -0.732400
      7 C3          1.7550    1.4640    2.3010 c2        1 ATC      0.285900
      8 O3          2.1510    2.3200    3.2600 oh        1 ATC     -0.482100
      9 C4          0.2310    1.3070    2.3730 c3        1 ATC      0.167700
     10 N4         -0.4560    2.6560    2.4670 n4        1 ATC     -0.677400
     11 C42        -1.8310    2.5170    3.0260 c3        1 ATC      0.081100
     12 C43        -0.4830    3.4120    1.1860 c3        1 ATC      0.081100
     13 C41        -0.3550    0.3690    1.3020 c3        1 ATC     -0.078700
     14 C5         -0.5590   -1.0330    1.8670 c3        1 ATC     -0.088400
     15 C51        -1.3670   -1.8850    0.8950 c3        1 ATC     -0.007500
     16 C6         -1.3370   -3.3380    1.3490 c3        1 ATC     -0.038100
     17 C61        -2.1260   -4.2050    0.4340 ca        1 ATC     -0.014300
     18 C7         -2.7890   -5.3110    0.9480 ca        1 ATC     -0.147000
     19 C8         -3.5080   -6.1720    0.1160 ca        1 ATC     -0.059000
     20 C9         -3.5820   -5.9340   -1.2620 ca        1 ATC     -0.002400
     21 C10        -2.9000   -4.7840   -1.7960 ca        1 ATC      0.204100
     22 O10        -3.0440   -4.6170   -3.1440 oh        1 ATC     -0.515100
     23 C1A        -2.1720   -3.9230   -0.9490 ca        1 ATC     -0.237600
     24 C11        -1.4430   -2.7620   -1.4730 c         1 ATC      0.624900
     25 O11        -1.2640   -2.5910   -2.6960 o         1 ATC     -0.592100
     26 C1B        -0.9020   -1.7680   -0.5170 ce        1 ATC     -0.257400
     27 C12        -0.0730   -0.7700   -0.9120 c2        1 ATC      0.136900
     28 O12         0.3880   -0.5040   -2.1640 oh        1 ATC     -0.515100
     29 C1C         0.5090    0.2730    0.0340 c3        1 ATC      0.138000
     30 O1C         0.5270    1.5660   -0.5490 oh        1 ATC     -0.615800
     31 N9         -4.2630   -6.7980   -2.1500 n         1 ATC     -0.430100
     32 C91        -5.2700   -7.6660   -1.8060 c         1 ATC      0.663100
     33 O91        -5.6600   -7.8720   -0.6420 o         1 ATC     -0.588100
     34 C92        -5.8960   -8.4310   -2.9930 c3        1 ATC      0.018800
     35 N92        -6.9290   -9.4440   -2.6220 n4        1 ATC     -0.660400
     36 C93        -6.3720  -10.5270   -1.7650 c3        1 ATC      0.073600
     37 C94        -8.1230   -8.8230   -1.9830 c3        1 ATC      0.073600
     38 HN21        4.7850    0.3260   -0.2960 hn        1 ATC      0.493467
     39 HN22        4.6000   -0.9810    0.7170 hn        1 ATC      0.493467
     40 HO3         3.1240    2.4450    3.3230 ho        1 ATC      0.521000
     41 H4          0.0520    0.8160    3.3920 hx        1 ATC      0.143700
     42 H421       -2.2720    3.5460    3.1520 hx        1 ATC      0.117700
     43 H422       -2.4780    1.9260    2.3260 hx        1 ATC      0.117700
     44 H423       -1.7850    2.0090    4.0270 hx        1 ATC      0.117700
     45 H431       -0.8990    4.4390    1.3810 hx        1 ATC      0.117700
     46 H432       -1.1260    2.8810    0.4320 hx        1 ATC      0.117700
     47 H433        0.5610    3.4910    0.7790 hx        1 ATC      0.117700
     48 H41        -1.3640    0.7570    0.9700 hc        1 ATC      0.112700
     49 H51A       -1.1120   -0.9820    2.8420 hc        1 ATC      0.069200
     50 H52         0.4350   -1.5140    2.0630 hc        1 ATC      0.069200
     51 H51        -2.4410   -1.5290    0.9230 hc        1 ATC      0.082700
     52 H61        -1.7440   -3.4060    2.3940 hc        1 ATC      0.074700
     53 H62        -0.2770   -3.7120    1.3760 hc        1 ATC      0.074700
     54 H7         -2.7500   -5.5290    2.0280 ha        1 ATC      0.162000
     55 H8         -4.0190   -7.0420    0.5680 ha        1 ATC      0.186000
     56 H10        -2.4520   -3.9250   -3.4860 ho        1 ATC      0.481000
     57 HO2         0.0490   -1.1460   -2.8210 ho        1 ATC      0.505000
     58 HOC1        0.6430    1.4880   -1.5120 ho        1 ATC      0.478000
     59 HN9        -4.0690   -6.6460   -3.1200 hn        1 ATC      0.350500
     60 H921       -5.0770   -8.9730   -3.5530 hx        1 ATC      0.124700
     61 H922       -6.3860   -7.6820   -3.6830 hx        1 ATC      0.124700
     62 H931       -7.1670  -11.3070   -1.6050 hx        1 ATC      0.116533
     63 H932       -5.4870  -10.9890   -2.2770 hx        1 ATC      0.116533
     64 H933       -6.0620  -10.1000   -0.7710 hx        1 ATC      0.116533
     65 H941       -8.5380   -8.0300   -2.6600 hx        1 ATC      0.116533
     66 H942       -8.8980   -9.6200   -1.8130 hx        1 ATC      0.116533
     67 H943       -7.8300   -8.3690   -0.9950 hx        1 ATC      0.116533
     68 H213        5.8750    0.1030    0.9660 hn        1 ATC      0.493467
     69 H411        0.0940    3.2160    3.1440 hn        1 ATC      0.472800
     70 H923       -7.2380   -9.8740   -3.5090 hn        1 ATC      0.457800
@<TRIPOS>BOND
     1    1    2 2   
     2    1    3 1   
     3    1   29 1   
     4    3    4 1   
     5    3    7 2   
     6    4    5 2   
     7    4    6 1   
     8    6   38 1   
     9    6   39 1   
    10    6   68 1   
    11    7    8 1   
    12    7    9 1   
    13    8   40 1   
    14    9   10 1   
    15    9   13 1   
    16    9   41 1   
    17   10   11 1   
    18   10   12 1   
    19   10   69 1   
    20   11   42 1   
    21   11   43 1   
    22   11   44 1   
    23   12   45 1   
    24   12   46 1   
    25   12   47 1   
    26   13   14 1   
    27   13   29 1   
    28   13   48 1   
    29   14   15 1   
    30   14   49 1   
    31   14   50 1   
    32   15   16 1   
    33   15   26 1   
    34   15   51 1   
    35   16   17 1   
    36   16   52 1   
    37   16   53 1   
    38   17   18 ar  
    39   17   23 ar  
    40   18   19 ar  
    41   18   54 1   
    42   19   20 ar  
    43   19   55 1   
    44   20   21 ar  
    45   20   31 1   
    46   21   22 1   
    47   21   23 ar  
    48   22   56 1   
    49   23   24 1   
    50   24   25 2   
    51   24   26 1   
    52   26   27 2   
    53   27   28 1   
    54   27   29 1   
    55   28   57 1   
    56   29   30 1   
    57   30   58 1   
    58   31   32 1   
    59   31   59 1   
    60   32   33 2   
    61   32   34 1   
    62   34   35 1   
    63   34   60 1   
    64   34   61 1   
    65   35   36 1   
    66   35   37 1   
    67   35   70 1   
    68   36   62 1   
    69   36   63 1   
    70   36   64 1   
    71   37   65 1   
    72   37   66 1   
    73   37   67 1   
@<TRIPOS>SUBSTRUCTURE
     1 ATC         1 TEMP              0 ****  ****    0 ROOT
