@<TRIPOS>MOLECULE
ATC
   71    74     1     0     0
SMALL
bcc


@<TRIPOS>ATOM
      1 C1          0.2690   -0.3280   -0.1050 c         1 ATC      0.579300
      2 O1         -0.3460   -0.6060   -1.1370 o         1 ATC     -0.503100
      3 C2          1.7010   -0.6190    0.0680 ce        1 ATC     -0.396400
      4 C21         2.5600   -0.8670   -1.0920 c         1 ATC      0.576300
      5 O21         3.7640   -1.1190   -1.0510 o         1 ATC     -0.437100
      6 N21         1.9840   -0.8230   -2.4720 n4        1 ATC     -0.731400
      7 C3          2.2370   -0.6630    1.3360 c2        1 ATC      0.288900
      8 O3          3.5210   -0.8780    1.6630 oh        1 ATC     -0.475100
      9 C4          1.4090   -0.5790    2.6260 c3        1 ATC      0.165700
     10 N4          2.0560    0.3630    3.6240 n4        1 ATC     -0.678400
     11 C42         1.5900    0.0800    5.0110 c3        1 ATC      0.080100
     12 C43         1.8900    1.8050    3.2960 c3        1 ATC      0.080100
     13 C41        -0.0950   -0.3360    2.3980 c3        1 ATC     -0.073700
     14 C5         -0.8710   -1.6480    2.4380 c3        1 ATC     -0.089400
     15 C51        -2.3730   -1.3820    2.4770 c3        1 ATC      0.001500
     16 C6         -3.1190   -2.7000    2.3150 c3        1 ATC     -0.062100
     17 C61        -4.5930   -2.5190    2.2470 ca        1 ATC      0.078700
     18 C7         -5.4230   -3.5620    2.6920 ca        1 ATC     -0.152000
     19 C8         -6.7990   -3.4790    2.5720 ca        1 ATC     -0.008000
     20 C9         -7.3820   -2.3290    2.0030 ca        1 ATC     -0.150400
     21 C10        -6.5550   -1.2410    1.5950 ca        1 ATC      0.266100
     22 O10        -7.2390   -0.1660    1.1190 oh        1 ATC     -0.539100
     23 C1A        -5.1470   -1.3490    1.7040 ca        1 ATC     -0.233600
     24 C11        -4.2560   -0.2760    1.2100 c         1 ATC      0.627900
     25 O11        -4.7280    0.6900    0.5790 o         1 ATC     -0.583100
     26 C1B        -2.8120   -0.3790    1.4620 ce        1 ATC     -0.299400
     27 C12        -1.9170    0.4490    0.8570 c2        1 ATC      0.186900
     28 O12        -2.1700    1.4510   -0.0180 oh        1 ATC     -0.492100
     29 C1C        -0.4050    0.3860    1.0760 c3        1 ATC      0.130000
     30 O1C         0.1540    1.6840    1.1890 oh        1 ATC     -0.602800
     31 N9         -8.8270   -2.2840    1.7530 n4        1 ATC     -0.507200
     32 C91        -9.6810   -2.1500    2.9890 c         1 ATC      0.523100
     33 O91        -9.3510   -2.7510    3.9980 o         1 ATC     -0.368100
     34 C92       -10.9110   -1.2650    2.8280 c3        1 ATC      0.025800
     35 N92       -11.8800   -1.3030    3.9660 n4        1 ATC     -0.672400
     36 C93       -12.4540   -2.6620    4.1860 c3        1 ATC      0.065100
     37 C94       -11.3070   -0.7550    5.2290 c3        1 ATC      0.065100
     38 HN21        1.7010    0.1380   -2.7070 hn        1 ATC      0.495467
     39 HN22        1.1470   -1.4250   -2.5320 hn        1 ATC      0.495467
     40 HO3         4.1340   -0.9980    0.9030 ho        1 ATC      0.529000
     41 H4          1.5200   -1.6190    3.0930 hx        1 ATC      0.146700
     42 H421        0.4940    0.2960    5.1050 hx        1 ATC      0.119367
     43 H422        2.1580    0.7470    5.7220 hx        1 ATC      0.119367
     44 H423        1.7970   -0.9930    5.2720 hx        1 ATC      0.119367
     45 H431        2.2310    1.9900    2.2410 hx        1 ATC      0.119367
     46 H432        0.8120    2.1060    3.3890 hx        1 ATC      0.119367
     47 H433        2.5140    2.4120    4.0110 hx        1 ATC      0.119367
     48 H41        -0.4950    0.3270    3.2230 hc        1 ATC      0.112700
     49 H51A       -0.6140   -2.2710    1.5400 hc        1 ATC      0.075700
     50 H52        -0.5900   -2.2360    3.3530 hc        1 ATC      0.075700
     51 H51        -2.6270   -0.9580    3.4950 hc        1 ATC      0.080700
     52 H61        -2.7920   -3.2170    1.3680 hc        1 ATC      0.097200
     53 H62        -2.8530   -3.3790    3.1720 hc        1 ATC      0.097200
     54 H7         -4.9730   -4.4700    3.1340 ha        1 ATC      0.193000
     55 H8         -7.4270   -4.3180    2.9250 ha        1 ATC      0.181000
     56 H10        -6.6480    0.5160    0.7370 ho        1 ATC      0.519000
     57 HO2        -3.1250    1.5510   -0.2100 ho        1 ATC      0.504000
     58 HOC1       -0.2910    2.2880    0.5680 ho        1 ATC      0.477000
     59 HN9        -9.0860   -3.1700    1.2840 hn        1 ATC      0.489800
     60 H921      -11.4740   -1.5700    1.8910 hx        1 ATC      0.154700
     61 H922      -10.5560   -0.1920    2.7060 hx        1 ATC      0.154700
     62 H931      -11.6530   -3.3610    4.5480 hx        1 ATC      0.127533
     63 H932      -12.9110   -3.0420    3.2320 hx        1 ATC      0.127533
     64 H933      -13.2600   -2.5910    4.9730 hx        1 ATC      0.127533
     65 H941      -10.4870   -1.4270    5.6020 hx        1 ATC      0.127533
     66 H942      -10.9140    0.2820    5.0480 hx        1 ATC      0.127533
     67 H943      -12.1250   -0.7100    6.0050 hx        1 ATC      0.127533
     68 H213        2.6940   -1.1410   -3.1540 hn        1 ATC      0.495467
     69 H411        3.0740    0.1570    3.5990 hn        1 ATC      0.479800
     70 H92        -9.0180   -1.4990    1.1080 hn        1 ATC      0.489800
     71 H923      -12.6630   -0.6780    3.6840 hn        1 ATC      0.489800
@<TRIPOS>BOND
     1    1    2 2   
     2    1    3 1   
     3    1   29 1   
     4    3    4 1   
     5    3    7 2   
     6    4    5 2   
     7    4    6 1   
     8    6   38 1   
     9    6   39 1   
    10    6   68 1   
    11    7    8 1   
    12    7    9 1   
    13    8   40 1   
    14    9   10 1   
    15    9   13 1   
    16    9   41 1   
    17   10   11 1   
    18   10   12 1   
    19   10   69 1   
    20   11   42 1   
    21   11   43 1   
    22   11   44 1   
    23   12   45 1   
    24   12   46 1   
    25   12   47 1   
    26   13   14 1   
    27   13   29 1   
    28   13   48 1   
    29   14   15 1   
    30   14   49 1   
    31   14   50 1   
    32   15   16 1   
    33   15   26 1   
    34   15   51 1   
    35   16   17 1   
    36   16   52 1   
    37   16   53 1   
    38   17   18 ar  
    39   17   23 ar  
    40   18   19 ar  
    41   18   54 1   
    42   19   20 ar  
    43   19   55 1   
    44   20   21 ar  
    45   20   31 1   
    46   21   22 1   
    47   21   23 ar  
    48   22   56 1   
    49   23   24 1   
    50   24   25 2   
    51   24   26 1   
    52   26   27 2   
    53   27   28 1   
    54   27   29 1   
    55   28   57 1   
    56   29   30 1   
    57   30   58 1   
    58   31   32 1   
    59   31   59 1   
    60   31   70 1   
    61   32   33 2   
    62   32   34 1   
    63   34   35 1   
    64   34   60 1   
    65   34   61 1   
    66   35   36 1   
    67   35   37 1   
    68   35   71 1   
    69   36   62 1   
    70   36   63 1   
    71   36   64 1   
    72   37   65 1   
    73   37   66 1   
    74   37   67 1   
@<TRIPOS>SUBSTRUCTURE
     1 ATC         1 TEMP              0 ****  ****    0 ROOT
