@<TRIPOS>MOLECULE
ATC
   67    70     1     0     0
SMALL
bcc


@<TRIPOS>ATOM
      1 C1         20.4030   34.2760   34.3390 c         1 ATC      0.620300
      2 O1         20.0760   34.3060   33.1460 o         1 ATC     -0.542100
      3 C2         19.5560   33.7560   35.4010 ce        1 ATC     -0.334400
      4 C21        18.2420   33.1470   35.0270 c         1 ATC      0.682300
      5 O21        17.8620   32.0650   35.5160 o         1 ATC     -0.593100
      6 N21        17.4290   33.8500   34.1630 n         1 ATC     -0.643000
      7 C3         19.9600   33.7430   36.7030 c2        1 ATC      0.234900
      8 O3         19.1030   33.2550   37.6390 oh        1 ATC     -0.450100
      9 C4         21.2710   34.3170   37.2100 c3        1 ATC      0.188700
     10 N4         22.0990   33.2670   37.7920 n3        1 ATC     -0.757600
     11 C42        23.1870   33.7650   38.6020 c3        1 ATC      0.157600
     12 C43        22.4920   32.1880   36.9160 c3        1 ATC      0.157600
     13 C41        21.9100   35.2620   36.1720 c3        1 ATC     -0.102700
     14 C5         21.2760   36.6420   36.2830 c3        1 ATC     -0.081400
     15 C51        22.0350   37.6690   35.4560 c3        1 ATC     -0.005500
     16 C6         21.2370   38.9640   35.3970 c3        1 ATC     -0.033100
     17 C61        21.9440   39.9910   34.5870 ca        1 ATC     -0.034300
     18 C7         21.8400   41.3310   34.9430 ca        1 ATC     -0.155000
     19 C8         22.4770   42.3250   34.2030 ca        1 ATC     -0.098000
     20 C9         23.2440   41.9950   33.0750 ca        1 ATC      0.020600
     21 C10        23.3440   40.6100   32.7070 ca        1 ATC      0.157100
     22 O10        24.1280   40.3630   31.6080 oh        1 ATC     -0.532100
     23 C1A        22.7000   39.6110   33.4600 ca        1 ATC     -0.219600
     24 C11        22.7910   38.1820   33.0910 c         1 ATC      0.607900
     25 O11        23.2410   37.8230   31.9890 o         1 ATC     -0.555100
     26 C1B        22.3350   37.1860   34.0790 ce        1 ATC     -0.242400
     27 C12        22.2370   35.8700   33.7600 c2        1 ATC      0.120900
     28 O12        22.6040   35.4430   32.5160 oh        1 ATC     -0.457100
     29 C1C        21.8100   34.7730   34.7240 c3        1 ATC      0.068000
     30 O1C        22.6510   33.6410   34.5010 oh        1 ATC     -0.580800
     31 N9         23.8850   42.9660   32.2870 n         1 ATC     -0.459100
     32 C91        24.2330   44.2480   32.6770 c         1 ATC      0.622100
     33 O91        23.8980   44.7470   33.7670 o         1 ATC     -0.597100
     34 C92        25.0260   45.0890   31.6540 c3        1 ATC      0.111800
     35 N92        26.3630   44.6670   31.3340 n3        1 ATC     -0.748600
     36 C93        27.2730   44.6590   32.4560 c3        1 ATC      0.156100
     37 C94        26.4770   43.5030   30.4890 c3        1 ATC      0.156100
     38 HN21       17.8340   34.5400   33.5760 hn        1 ATC      0.307500
     39 HN22       16.6220   33.3860   33.8200 hn        1 ATC      0.307500
     40 HO3        19.5850   33.1060   38.4710 ho        1 ATC      0.448000
     41 H4         20.9850   34.9780   38.0960 h1        1 ATC      0.076700
     42 H421       23.6170   32.8990   39.1720 h1        1 ATC      0.043200
     43 H422       24.0130   34.2360   38.0020 h1        1 ATC      0.043200
     44 H423       22.8000   34.5220   39.3330 h1        1 ATC      0.043200
     45 H431       22.6670   31.2800   37.5540 h1        1 ATC      0.043200
     46 H432       21.6760   31.9690   36.1780 h1        1 ATC      0.043200
     47 H433       23.4340   32.4080   36.3420 h1        1 ATC      0.043200
     48 H41        23.0080   35.3590   36.4150 hc        1 ATC      0.073700
     49 H51A       20.2070   36.5890   35.9450 hc        1 ATC      0.057200
     50 H52        21.2760   36.9770   37.3540 hc        1 ATC      0.057200
     51 H51        23.0200   37.8800   35.9680 hc        1 ATC      0.064700
     52 H61        20.2290   38.7690   34.9390 hc        1 ATC      0.060700
     53 H62        21.0650   39.3400   36.4400 hc        1 ATC      0.060700
     54 H7         21.2460   41.6200   35.8240 ha        1 ATC      0.139000
     55 H8         22.3750   43.3780   34.5190 ha        1 ATC      0.178000
     56 H10        23.9600   39.4710   31.2620 ho        1 ATC      0.469000
     57 HO2        22.1680   34.5860   32.3480 ho        1 ATC      0.448000
     58 HOC1       23.5660   33.9550   34.5240 ho        1 ATC      0.422000
     59 HN9        24.2560   42.6290   31.4230 hn        1 ATC      0.333500
     60 H921       24.4240   45.1470   30.7030 h1        1 ATC      0.081700
     61 H922       25.0890   46.1260   32.0980 h1        1 ATC      0.081700
     62 H931       28.3120   44.4840   32.0730 h1        1 ATC      0.038700
     63 H932       27.2360   45.6570   32.9650 h1        1 ATC      0.038700
     64 H933       27.0290   43.8620   33.2120 h1        1 ATC      0.038700
     65 H941       27.4830   43.5370   29.9910 h1        1 ATC      0.038700
     66 H942       26.4010   42.5300   31.0490 h1        1 ATC      0.038700
     67 H943       25.6860   43.5270   29.6940 h1        1 ATC      0.038700
@<TRIPOS>BOND
     1    1    2 2   
     2    1    3 1   
     3    1   29 1   
     4    3    4 1   
     5    3    7 2   
     6    4    5 2   
     7    4    6 1   
     8    6   38 1   
     9    6   39 1   
    10    7    8 1   
    11    7    9 1   
    12    8   40 1   
    13    9   10 1   
    14    9   13 1   
    15    9   41 1   
    16   10   11 1   
    17   10   12 1   
    18   11   42 1   
    19   11   43 1   
    20   11   44 1   
    21   12   45 1   
    22   12   46 1   
    23   12   47 1   
    24   13   14 1   
    25   13   29 1   
    26   13   48 1   
    27   14   15 1   
    28   14   49 1   
    29   14   50 1   
    30   15   16 1   
    31   15   26 1   
    32   15   51 1   
    33   16   17 1   
    34   16   52 1   
    35   16   53 1   
    36   17   18 ar  
    37   17   23 ar  
    38   18   19 ar  
    39   18   54 1   
    40   19   20 ar  
    41   19   55 1   
    42   20   21 ar  
    43   20   31 1   
    44   21   22 1   
    45   21   23 ar  
    46   22   56 1   
    47   23   24 1   
    48   24   25 2   
    49   24   26 1   
    50   26   27 2   
    51   27   28 1   
    52   27   29 1   
    53   28   57 1   
    54   29   30 1   
    55   30   58 1   
    56   31   32 1   
    57   31   59 1   
    58   32   33 2   
    59   32   34 1   
    60   34   35 1   
    61   34   60 1   
    62   34   61 1   
    63   35   36 1   
    64   35   37 1   
    65   36   62 1   
    66   36   63 1   
    67   36   64 1   
    68   37   65 1   
    69   37   66 1   
    70   37   67 1   
@<TRIPOS>SUBSTRUCTURE
     1 ATC         1 TEMP              0 ****  ****    0 ROOT
