@<TRIPOS>MOLECULE
ATD
   34    35     1     0     0
SMALL
bcc


@<TRIPOS>ATOM
      1 P           1.7910   -1.1610   -2.3290 p5        1 ATD      1.324900
      2 OP1         1.1710   -0.0800   -3.1830 o         1 ATD     -0.920833
      3 OP2         3.1830   -0.9450   -1.8270 o         1 ATD     -0.920833
      4 OP3         1.3580   -2.5540   -2.6700 o         1 ATD     -0.920833
      5 O5'        -1.0680    1.7640   -3.0040 oh        1 ATD     -0.670800
      6 C5'        -1.8920    1.0550   -2.1150 c3        1 ATD      0.167400
      7 C4'        -1.1160    0.5380   -0.9050 c3        1 ATD      0.045100
      8 O4'        -2.0390    0.4700    0.2070 os        1 ATD     -0.446600
      9 C3'        -0.5060   -0.8780   -1.1310 c3        1 ATD      0.218100
     10 O3'         0.8360   -0.8770   -0.8720 os        1 ATD     -0.559200
     11 C2'        -1.2630   -1.7640   -0.1100 c3        1 ATD     -0.144400
     12 C1'        -1.9160   -0.7820    0.8770 c3        1 ATD      0.300500
     13 N1         -1.1470   -0.6150    2.1300 n         1 ATD     -0.362000
     14 C2         -1.8480   -0.5050    3.3490 c         1 ATD      0.798500
     15 O2         -3.0860   -0.6990    3.4500 o         1 ATD     -0.697500
     16 N3         -1.1210   -0.2080    4.5170 n         1 ATD     -0.597500
     17 C4          0.2700    0.0130    4.5200 c         1 ATD      0.721700
     18 O4          0.8060    0.2830    5.6170 o         1 ATD     -0.685500
     19 C5          0.9410   -0.0990    3.2270 cc        1 ATD     -0.319400
     20 C5M         2.4020    0.1070    3.1810 c3        1 ATD     -0.017900
     21 C6          0.2170   -0.3850    2.0990 cd        1 ATD      0.077600
     22 HO'5       -0.2650    1.2170   -3.1780 ho        1 ATD      0.503000
     23 H5'        -2.3920    0.2000   -2.6470 h1        1 ATD      0.007200
     24 H5''       -2.6820    1.7840   -1.7850 h1        1 ATD      0.007200
     25 H3'        -0.7120   -1.2300   -2.1830 h1        1 ATD      0.078700
     26 H2'        -0.5560   -2.4810    0.3700 hc        1 ATD      0.059700
     27 H2''       -2.0730   -2.3400   -0.6170 hc        1 ATD      0.059700
     28 H1'        -2.9640   -1.0730    1.1780 h2        1 ATD      0.083700
     29 H3         -1.6350   -0.1380    5.3640 hn        1 ATD      0.323500
     30 H71         2.6560    1.1430    3.5180 hc        1 ATD      0.043700
     31 H72         2.9140   -0.6120    3.8690 hc        1 ATD      0.043700
     32 H73         2.7930   -0.0430    2.1430 hc        1 ATD      0.043700
     33 H6          0.7000   -0.4660    1.0810 h4        1 ATD      0.275000
     34 H4'        -0.3090    1.2650   -0.6230 h1        1 ATD      0.078700
@<TRIPOS>BOND
     1    1    2 1   
     2    1    3 1   
     3    1    4 1   
     4    1   10 1   
     5    5    6 1   
     6    5   22 1   
     7    6    7 1   
     8    6   23 1   
     9    6   24 1   
    10    7    8 1   
    11    7    9 1   
    12    7   34 1   
    13    8   12 1   
    14    9   10 1   
    15    9   11 1   
    16    9   25 1   
    17   11   12 1   
    18   11   26 1   
    19   11   27 1   
    20   12   13 1   
    21   12   28 1   
    22   13   14 1   
    23   13   21 1   
    24   14   15 2   
    25   14   16 1   
    26   16   17 1   
    27   16   29 1   
    28   17   18 2   
    29   17   19 1   
    30   19   20 1   
    31   19   21 2   
    32   20   30 1   
    33   20   31 1   
    34   20   32 1   
    35   21   33 1   
@<TRIPOS>SUBSTRUCTURE
     1 ATD         1 TEMP              0 ****  ****    0 ROOT
