@<TRIPOS>MOLECULE
ATD
   34    34     1     0     0
SMALL
bcc


@<TRIPOS>ATOM
      1 P           2.7680   -2.4580    2.7800 p4        1 ATD      1.693200
      2 OP1         3.8900   -3.1140    2.0020 o         1 ATD     -0.930000
      3 OP2         3.2500   -2.1250    4.1800 os        1 ATD     -1.222000
      4 OP3         1.5910   -3.4040    2.8630 o         1 ATD     -0.978800
      5 O5'         3.4050   -0.2690   -2.3510 oh        1 ATD     -0.670800
      6 C5'         2.8810   -1.1030   -1.3580 c3        1 ATD      0.167400
      7 C4'         2.2270   -0.3150   -0.3760 c3        1 ATD      0.045100
      8 O4'         1.1170    0.4350   -0.9810 os        1 ATD     -0.446600
      9 C3'         1.5670   -1.2450    0.7300 c3        1 ATD      0.218100
     10 O3'         2.3220   -1.1240    2.0400 os        1 ATD     -0.559200
     11 C2'         0.4360   -0.8270    0.8540 c3        1 ATD     -0.144400
     12 C1'         0.0510   -0.1540   -0.5550 c3        1 ATD      0.300500
     13 N1         -0.9780    0.7850   -0.3780 n         1 ATD     -0.362000
     14 C2         -0.6490    2.1920   -0.1260 c         1 ATD      0.798500
     15 O2          0.4930    2.5120    0.1230 o         1 ATD     -0.697500
     16 N3         -1.6940    3.2120   -0.2000 n         1 ATD     -0.597500
     17 C4         -3.0430    2.8280   -0.3580 c         1 ATD      0.721700
     18 O4         -3.9200    3.6680   -0.3470 o         1 ATD     -0.685500
     19 C5         -3.3920    1.3900   -0.4970 cc        1 ATD     -0.319400
     20 C5M        -4.8430    0.9730   -0.7750 c3        1 ATD     -0.017900
     21 C6         -2.3310    0.3840   -0.4990 cd        1 ATD      0.077600
     22 HO'5        4.0770   -0.6790   -2.7580 ho        1 ATD      0.503000
     23 H5'         2.2360   -1.7280   -1.7610 h1        1 ATD      0.007200
     24 H5''        3.6030   -1.6050   -0.9420 h1        1 ATD      0.007200
     25 H4'         2.8780    0.3180    0.0500 h1        1 ATD      0.078700
     26 H3'         1.5540   -2.1780    0.4280 h1        1 ATD      0.078700
     27 H2'        -0.1860   -1.5760    1.0580 hc        1 ATD      0.059700
     28 H2''        0.4010   -0.1560    1.5670 hc        1 ATD      0.059700
     29 H1'        -0.2260   -0.8360   -1.1840 h2        1 ATD      0.083700
     30 H3         -1.4800    4.1030   -0.0670 hn        1 ATD      0.323500
     31 H71        -4.9280   -0.0160   -0.6850 hc        1 ATD      0.043700
     32 H72        -5.0880    1.2380   -1.6750 hc        1 ATD      0.043700
     33 H73        -5.4450    1.4170   -0.1250 hc        1 ATD      0.043700
     34 H6         -2.5450   -0.5430   -0.6750 h4        1 ATD      0.275000
@<TRIPOS>BOND
     1    1    2 1   
     2    1    4 2   
     3    1   10 1   
     4    5    6 1   
     5    5   22 1   
     6    6    7 1   
     7    6   23 1   
     8    6   24 1   
     9    7    8 1   
    10    7    9 1   
    11    7   25 1   
    12    8   12 1   
    13    9   10 1   
    14    9   11 1   
    15    9   26 1   
    16   11   12 1   
    17   11   27 1   
    18   11   28 1   
    19   12   13 1   
    20   12   29 1   
    21   13   14 1   
    22   13   21 1   
    23   14   15 2   
    24   14   16 1   
    25   16   17 1   
    26   16   30 1   
    27   17   18 2   
    28   17   19 1   
    29   19   20 1   
    30   19   21 2   
    31   20   31 1   
    32   20   32 1   
    33   20   33 1   
    34   21   34 1   
@<TRIPOS>SUBSTRUCTURE
     1 ATD         1 TEMP              0 ****  ****    0 ROOT
