@<TRIPOS>MOLECULE
ATE
   50    53     1     0     0
SMALL
bcc


@<TRIPOS>ATOM
      1 O1          4.4000   -0.2960    1.5390 oh        1 ATE     -0.600800
      2 C3          4.2660   -0.0510    0.1420 c3        1 ATE      0.143100
      3 C2          3.6860    1.3280   -0.1480 c3        1 ATE     -0.109400
      4 C1          2.2340    1.4510    0.2600 c3        1 ATE     -0.070400
      5 C4          3.3810   -1.1590   -0.4200 c3        1 ATE     -0.067400
      6 C5          1.9400   -1.0000    0.0250 c3        1 ATE     -0.057700
      7 C6          1.0850   -2.1500   -0.4790 c3        1 ATE     -0.072400
      8 C10         1.3450    0.3680   -0.3640 c3        1 ATE     -0.035000
      9 C19         1.2970    0.5680   -1.8700 c3        1 ATE     -0.085100
     10 C9         -0.0660    0.4420    0.2620 c3        1 ATE     -0.048700
     11 C11        -0.7220    1.8070    0.0740 c3        1 ATE     -0.074400
     12 C8         -0.9520   -0.7180   -0.2330 c3        1 ATE     -0.045700
     13 C7         -0.3150   -2.0590    0.0900 c3        1 ATE     -0.072400
     14 C14        -2.2900   -0.5610    0.4500 c3        1 ATE     -0.067700
     15 C15        -3.4030   -1.6120    0.3460 c3        1 ATE     -0.045200
     16 C13        -2.9860    0.7560   -0.0050 c3        1 ATE     -0.030800
     17 C12        -2.1650    1.8990    0.5580 c3        1 ATE     -0.059400
     18 C18        -3.1200    0.8930   -1.5170 c3        1 ATE     -0.081100
     19 C17        -4.3890    0.5310    0.5250 c2        1 ATE     -0.167200
     20 C16        -4.6300   -0.7890    0.6560 c2        1 ATE     -0.180200
     21 HO1         4.8070    0.4880    1.9240 ho        1 ATE      0.397000
     22 H3          5.2930   -0.1210   -0.3240 h1        1 ATE      0.027700
     23 H21         4.2870    2.1040    0.3970 hc        1 ATE      0.043700
     24 H22         3.7920    1.5330   -1.2450 hc        1 ATE      0.043700
     25 H11         2.1630    1.3790    1.3780 hc        1 ATE      0.044200
     26 H12         1.8610    2.4640   -0.0460 hc        1 ATE      0.044200
     27 H41         3.7680   -2.1480   -0.0570 hc        1 ATE      0.050700
     28 H42         3.4580   -1.1490   -1.5370 hc        1 ATE      0.050700
     29 H5          1.9450   -1.0420    1.1560 hc        1 ATE      0.064700
     30 H61         1.5510   -3.1220   -0.1720 hc        1 ATE      0.040200
     31 H62         1.0470   -2.1360   -1.6000 hc        1 ATE      0.040200
     32 H191        2.3010    0.3860   -2.3240 hc        1 ATE      0.034700
     33 H192        0.5710   -0.1290   -2.3500 hc        1 ATE      0.034700
     34 H193        0.9950    1.6150   -2.1140 hc        1 ATE      0.034700
     35 H9          0.0690    0.2960    1.3750 hc        1 ATE      0.046700
     36 H111       -0.6820    2.0970   -1.0080 hc        1 ATE      0.039700
     37 H112       -0.1230    2.5690    0.6420 hc        1 ATE      0.039700
     38 H8         -1.0860   -0.6490   -1.3470 hc        1 ATE      0.055700
     39 H71        -0.2780   -2.2000    1.2020 hc        1 ATE      0.040700
     40 H72        -0.9530   -2.8800   -0.3310 hc        1 ATE      0.040700
     41 H14        -2.0810   -0.4600    1.5580 hc        1 ATE      0.049700
     42 H151       -3.4660   -2.0530   -0.6800 hc        1 ATE      0.049700
     43 H152       -3.2580   -2.4420    1.0780 hc        1 ATE      0.049700
     44 H121       -2.5970    2.8820    0.2360 hc        1 ATE      0.041200
     45 H122       -2.1930    1.8670    1.6780 hc        1 ATE      0.041200
     46 H181       -2.1310    1.0560   -2.0070 hc        1 ATE      0.036367
     47 H182       -3.5780   -0.0300   -1.9470 hc        1 ATE      0.036367
     48 H183       -3.7770    1.7640   -1.7550 hc        1 ATE      0.036367
     49 H17        -5.0700    1.3620    0.6990 ha        1 ATE      0.138000
     50 H16        -5.5620   -1.2670    0.9610 ha        1 ATE      0.135000
@<TRIPOS>BOND
     1    1    2 1   
     2    1   21 1   
     3    2    3 1   
     4    2    5 1   
     5    2   22 1   
     6    3    4 1   
     7    3   23 1   
     8    3   24 1   
     9    4    8 1   
    10    4   25 1   
    11    4   26 1   
    12    5    6 1   
    13    5   27 1   
    14    5   28 1   
    15    6    7 1   
    16    6    8 1   
    17    6   29 1   
    18    7   13 1   
    19    7   30 1   
    20    7   31 1   
    21    8    9 1   
    22    8   10 1   
    23    9   32 1   
    24    9   33 1   
    25    9   34 1   
    26   10   11 1   
    27   10   12 1   
    28   10   35 1   
    29   11   17 1   
    30   11   36 1   
    31   11   37 1   
    32   12   13 1   
    33   12   14 1   
    34   12   38 1   
    35   13   39 1   
    36   13   40 1   
    37   14   15 1   
    38   14   16 1   
    39   14   41 1   
    40   15   20 1   
    41   15   42 1   
    42   15   43 1   
    43   16   17 1   
    44   16   18 1   
    45   16   19 1   
    46   17   44 1   
    47   17   45 1   
    48   18   46 1   
    49   18   47 1   
    50   18   48 1   
    51   19   20 2   
    52   19   49 1   
    53   20   50 1   
@<TRIPOS>SUBSTRUCTURE
     1 ATE         1 TEMP              0 ****  ****    0 ROOT
