@<TRIPOS>MOLECULE
ATE
   50    53     1     0     0
SMALL
bcc


@<TRIPOS>ATOM
      1 O1         -0.1660    0.0840   -0.2530 oh        1 ATE     -0.600800
      2 C3          1.2510    0.0080   -0.1270 c3        1 ATE      0.143100
      3 C2          1.6960   -0.0780    1.3280 c3        1 ATE     -0.109400
      4 C1          1.4530    1.2050    2.0920 c3        1 ATE     -0.070400
      5 C4          1.8250    1.2420   -0.8160 c3        1 ATE     -0.067400
      6 C5          1.5450    2.5030   -0.0190 c3        1 ATE     -0.057700
      7 C6          2.0560    3.7320   -0.7510 c3        1 ATE     -0.072400
      8 C10         2.0900    2.4290    1.4220 c3        1 ATE     -0.035000
      9 C19         3.6030    2.2880    1.4590 c3        1 ATE     -0.085100
     10 C9          1.6230    3.7100    2.1480 c3        1 ATE     -0.048700
     11 C11         1.9740    3.7070    3.6330 c3        1 ATE     -0.074400
     12 C8          2.1260    4.9730    1.4200 c3        1 ATE     -0.045700
     13 C7          1.6450    4.9930   -0.0210 c3        1 ATE     -0.072400
     14 C14         1.6010    6.1580    2.1960 c3        1 ATE     -0.067700
     15 C15         1.7480    7.6030    1.7050 c3        1 ATE     -0.045200
     16 C13         2.2180    6.1910    3.6260 c3        1 ATE     -0.030800
     17 C12         1.6530    5.0000    4.3730 c3        1 ATE     -0.059400
     18 C18         3.7420    6.1540    3.6420 c3        1 ATE     -0.081100
     19 C17         1.8250    7.5880    4.0690 c2        1 ATE     -0.167200
     20 C16         1.6270    8.3790    2.9950 c2        1 ATE     -0.180200
     21 HO1        -0.5360   -0.5930    0.3250 ho        1 ATE      0.397000
     22 H3          1.6000   -0.9180   -0.6710 h1        1 ATE      0.027700
     23 H21         2.7880   -0.3330    1.3490 hc        1 ATE      0.043700
     24 H22         1.1470   -0.9150    1.8350 hc        1 ATE      0.043700
     25 H11         0.3470    1.3740    2.1780 hc        1 ATE      0.044200
     26 H12         1.8670    1.0890    3.1280 hc        1 ATE      0.044200
     27 H41         2.9250    1.0950   -0.9590 hc        1 ATE      0.050700
     28 H42         1.3540    1.3390   -1.8290 hc        1 ATE      0.050700
     29 H5          0.4210    2.5910    0.0630 hc        1 ATE      0.064700
     30 H61         1.6330    3.7480   -1.7900 hc        1 ATE      0.040200
     31 H62         3.1720    3.6870   -0.8440 hc        1 ATE      0.040200
     32 H191        3.9350    1.4310    0.8240 hc        1 ATE      0.034700
     33 H192        3.9510    2.0960    2.5030 hc        1 ATE      0.034700
     34 H193        4.1070    3.2090    1.0830 hc        1 ATE      0.034700
     35 H9          0.4950    3.7250    2.0800 hc        1 ATE      0.046700
     36 H111        1.4010    2.8780    4.1300 hc        1 ATE      0.039700
     37 H112        3.0640    3.4760    3.7600 hc        1 ATE      0.039700
     38 H8          3.2500    4.9910    1.4170 hc        1 ATE      0.055700
     39 H71         2.0720    5.8910   -0.5390 hc        1 ATE      0.040700
     40 H72         0.5270    5.0930   -0.0430 hc        1 ATE      0.040700
     41 H14         0.4870    5.9980    2.3200 hc        1 ATE      0.049700
     42 H151        0.9490    7.8750    0.9750 hc        1 ATE      0.049700
     43 H152        2.7410    7.7810    1.2230 hc        1 ATE      0.049700
     44 H121        2.0870    4.9480    5.4050 hc        1 ATE      0.041200
     45 H122        0.5430    5.1120    4.4780 hc        1 ATE      0.041200
     46 H181        4.1350    5.1610    3.3220 hc        1 ATE      0.036367
     47 H182        4.1520    6.9340    2.9560 hc        1 ATE      0.036367
     48 H183        4.1070    6.3590    4.6780 hc        1 ATE      0.036367
     49 H17         1.7820    7.8580    5.1230 ha        1 ATE      0.138000
     50 H16         1.3890    9.4420    2.9880 ha        1 ATE      0.135000
@<TRIPOS>BOND
     1    1    2 1   
     2    1   21 1   
     3    2    3 1   
     4    2    5 1   
     5    2   22 1   
     6    3    4 1   
     7    3   23 1   
     8    3   24 1   
     9    4    8 1   
    10    4   25 1   
    11    4   26 1   
    12    5    6 1   
    13    5   27 1   
    14    5   28 1   
    15    6    7 1   
    16    6    8 1   
    17    6   29 1   
    18    7   13 1   
    19    7   30 1   
    20    7   31 1   
    21    8    9 1   
    22    8   10 1   
    23    9   32 1   
    24    9   33 1   
    25    9   34 1   
    26   10   11 1   
    27   10   12 1   
    28   10   35 1   
    29   11   17 1   
    30   11   36 1   
    31   11   37 1   
    32   12   13 1   
    33   12   14 1   
    34   12   38 1   
    35   13   39 1   
    36   13   40 1   
    37   14   15 1   
    38   14   16 1   
    39   14   41 1   
    40   15   20 1   
    41   15   42 1   
    42   15   43 1   
    43   16   17 1   
    44   16   18 1   
    45   16   19 1   
    46   17   44 1   
    47   17   45 1   
    48   18   46 1   
    49   18   47 1   
    50   18   48 1   
    51   19   20 2   
    52   19   49 1   
    53   20   50 1   
@<TRIPOS>SUBSTRUCTURE
     1 ATE         1 TEMP              0 ****  ****    0 ROOT
