@<TRIPOS>MOLECULE
ATE
   50    53     1     0     0
SMALL
bcc


@<TRIPOS>ATOM
      1 O1         -0.1860   -0.0210   -0.0310 oh        1 ATE     -0.600800
      2 C3          1.2380   -0.0290   -0.0460 c3        1 ATE      0.143100
      3 C2          1.6970   -0.1000    1.4060 c3        1 ATE     -0.070400
      4 C1          1.4830    1.1970    2.1570 c3        1 ATE     -0.071400
      5 C4          1.8120    1.1940   -0.7540 c3        1 ATE     -0.107400
      6 C5          1.5300    2.4660    0.0250 c3        1 ATE     -0.055700
      7 C6          2.0140    3.6880   -0.7350 c3        1 ATE     -0.072400
      8 C10         2.1000    2.4140    1.4570 c3        1 ATE     -0.035000
      9 C19         3.6140    2.2820    1.4660 c3        1 ATE     -0.085100
     10 C9          1.6380    3.7030    2.1710 c3        1 ATE     -0.048700
     11 C11         2.0060    3.7200    3.6520 c3        1 ATE     -0.073400
     12 C8          2.1260    4.9570    1.4190 c3        1 ATE     -0.046700
     13 C7          1.6160    4.9570   -0.0120 c3        1 ATE     -0.072400
     14 C14         1.6140    6.1520    2.1880 c3        1 ATE     -0.067700
     15 C15         1.7560    7.5900    1.6740 c3        1 ATE     -0.045200
     16 C13         2.2520    6.2040    3.6080 c3        1 ATE     -0.030800
     17 C12         1.6950    5.0230    4.3780 c3        1 ATE     -0.059400
     18 C18         3.7760    6.1640    3.6020 c3        1 ATE     -0.081100
     19 C17         1.8680    7.6070    4.0370 c2        1 ATE     -0.166200
     20 C16         1.6550    8.3830    2.9560 c2        1 ATE     -0.180200
     21 HO1        -0.4760    0.2030   -0.9220 ho        1 ATE      0.397000
     22 H3          1.5750   -0.9590   -0.5900 h1        1 ATE      0.028700
     23 H21         2.7830   -0.3770    1.4130 hc        1 ATE      0.049700
     24 H22         1.1280   -0.9170    1.9230 hc        1 ATE      0.049700
     25 H11         1.9280    1.0930    3.1810 hc        1 ATE      0.047700
     26 H12         0.3800    1.3670    2.2740 hc        1 ATE      0.047700
     27 H41         1.3560    1.2800   -1.7760 hc        1 ATE      0.045200
     28 H42         2.9140    1.0530   -0.8910 hc        1 ATE      0.045200
     29 H5          0.4060    2.5430    0.1270 hc        1 ATE      0.056700
     30 H61         3.1280    3.6470   -0.8570 hc        1 ATE      0.039200
     31 H62         1.5660    3.6890   -1.7640 hc        1 ATE      0.039200
     32 H191        3.9360    1.3880    0.8800 hc        1 ATE      0.034700
     33 H192        4.1040    3.1810    1.0230 hc        1 ATE      0.034700
     34 H193        3.9870    2.1560    2.5120 hc        1 ATE      0.034700
     35 H9          0.5090    3.7130    2.1180 hc        1 ATE      0.046700
     36 H111        3.0960    3.4890    3.7720 hc        1 ATE      0.040700
     37 H112        1.4380    2.8980    4.1670 hc        1 ATE      0.040700
     38 H8          3.2500    4.9750    1.3950 hc        1 ATE      0.056700
     39 H71         2.0300    5.8490   -0.5500 hc        1 ATE      0.040700
     40 H72         0.4980    5.0550   -0.0130 hc        1 ATE      0.040700
     41 H14         0.5020    5.9950    2.3300 hc        1 ATE      0.049700
     42 H151        2.7410    7.7600    1.1750 hc        1 ATE      0.049700
     43 H152        0.9460    7.8540    0.9540 hc        1 ATE      0.049700
     44 H121        0.5870    5.1390    4.4960 hc        1 ATE      0.041700
     45 H122        2.1430    4.9860    5.4050 hc        1 ATE      0.041700
     46 H181        4.1770    6.9350    2.9010 hc        1 ATE      0.036033
     47 H182        4.1620    5.1660    3.2860 hc        1 ATE      0.036033
     48 H183        4.1570    6.3790    4.6290 hc        1 ATE      0.036033
     49 H17         1.8410    7.8910    5.0880 ha        1 ATE      0.138000
     50 H16         1.4190    9.4470    2.9380 ha        1 ATE      0.136000
@<TRIPOS>BOND
     1    1    2 1   
     2    1   21 1   
     3    2    3 1   
     4    2    5 1   
     5    2   22 1   
     6    3    4 1   
     7    3   23 1   
     8    3   24 1   
     9    4    8 1   
    10    4   25 1   
    11    4   26 1   
    12    5    6 1   
    13    5   27 1   
    14    5   28 1   
    15    6    7 1   
    16    6    8 1   
    17    6   29 1   
    18    7   13 1   
    19    7   30 1   
    20    7   31 1   
    21    8    9 1   
    22    8   10 1   
    23    9   32 1   
    24    9   33 1   
    25    9   34 1   
    26   10   11 1   
    27   10   12 1   
    28   10   35 1   
    29   11   17 1   
    30   11   36 1   
    31   11   37 1   
    32   12   13 1   
    33   12   14 1   
    34   12   38 1   
    35   13   39 1   
    36   13   40 1   
    37   14   15 1   
    38   14   16 1   
    39   14   41 1   
    40   15   20 1   
    41   15   42 1   
    42   15   43 1   
    43   16   17 1   
    44   16   18 1   
    45   16   19 1   
    46   17   44 1   
    47   17   45 1   
    48   18   46 1   
    49   18   47 1   
    50   18   48 1   
    51   19   20 2   
    52   19   49 1   
    53   20   50 1   
@<TRIPOS>SUBSTRUCTURE
     1 ATE         1 TEMP              0 ****  ****    0 ROOT
