@<TRIPOS>MOLECULE
ATE
   50    53     1     0     0
SMALL
bcc


@<TRIPOS>ATOM
      1 O1         -4.3240   -0.3910   -1.1410 oh        1 ATE     -0.594800
      2 C3         -3.2660   -0.4060   -1.1020 c3        1 ATE      0.138100
      3 C2         -2.6270   -0.4870    0.9370 c3        1 ATE     -0.119400
      4 C1         -2.7880   -0.4600    0.1950 c3        1 ATE     -0.009400
      5 C4         -2.6820    0.9070   -1.8210 c3        1 ATE     -0.108400
      6 C5         -1.5210    1.0270   -1.2450 c3        1 ATE     -0.064700
      7 C6         -0.3310    1.1510   -2.3820 c3        1 ATE     -0.066400
      8 C10        -1.3260   -0.0330   -0.5460 c3        1 ATE     -0.046000
      9 C19        -0.8540   -1.1860   -1.4690 c3        1 ATE     -0.086100
     10 C9         -0.2770    0.2450    0.4930 c3        1 ATE     -0.037700
     11 C11        -0.3090   -0.8300    1.5400 c3        1 ATE     -0.071400
     12 C8          1.1250    0.2700   -0.1850 c3        1 ATE     -0.051700
     13 C7          1.0870    1.2910   -1.5820 c3        1 ATE     -0.074400
     14 C14         2.0320    0.7340    0.6850 c3        1 ATE     -0.057700
     15 C15         3.5840    1.1800   -0.2180 c3        1 ATE     -0.053200
     16 C13         2.3200   -0.2870    1.6790 c3        1 ATE     -0.022800
     17 C12         1.0840   -1.5000    1.6380 c3        1 ATE     -0.062400
     18 C18         2.3820    0.3500    3.0810 c3        1 ATE     -0.080100
     19 C17         3.4050   -0.7980    1.4050 c2        1 ATE     -0.170200
     20 C16         3.9760   -0.4320    0.5050 c2        1 ATE     -0.177200
     21 HO1        -4.6010   -0.7960   -1.8920 ho        1 ATE      0.397000
     22 H3         -2.9370   -1.2060   -1.5740 h1        1 ATE      0.029700
     23 H21        -3.0190   -1.2950    1.3530 hc        1 ATE      0.034200
     24 H22        -2.9640    0.3200    1.3990 hc        1 ATE      0.034200
     25 H11        -3.4780    0.2260    0.0170 hc        1 ATE      0.051200
     26 H12        -3.0910   -1.3470   -0.1240 hc        1 ATE      0.051200
     27 H41        -3.2500    1.6920   -1.6370 hc        1 ATE      0.047200
     28 H42        -2.5810    0.7620   -2.7900 hc        1 ATE      0.047200
     29 H5         -1.5140    1.8210   -0.6620 hc        1 ATE      0.054700
     30 H61        -0.4820    1.9490   -2.9400 hc        1 ATE      0.041700
     31 H62        -0.3200    0.3460   -2.9450 hc        1 ATE      0.041700
     32 H191       -1.3620   -1.1610   -2.3120 hc        1 ATE      0.034700
     33 H192       -1.0060   -2.0500   -1.0190 hc        1 ATE      0.034700
     34 H193        0.1030   -1.0810   -1.6600 hc        1 ATE      0.034700
     35 H9         -0.4550    1.1180    0.9130 hc        1 ATE      0.049700
     36 H111       -0.5440   -0.4330    2.4100 hc        1 ATE      0.040200
     37 H112       -0.9790   -1.5040    1.2960 hc        1 ATE      0.040200
     38 H8          1.3710   -0.6420   -0.4560 hc        1 ATE      0.053700
     39 H71         1.8230    1.0390   -2.1850 hc        1 ATE      0.039200
     40 H72         1.2070    2.2260   -1.3010 hc        1 ATE      0.039200
     41 H14         1.6750    1.5340    1.1330 hc        1 ATE      0.052700
     42 H151        3.5180    1.2120   -1.1960 hc        1 ATE      0.050200
     43 H152        4.0970    1.9710    0.0620 hc        1 ATE      0.050200
     44 H121        1.1300   -2.0410    2.4600 hc        1 ATE      0.042200
     45 H122        1.2230   -2.0810    0.8570 hc        1 ATE      0.042200
     46 H181        3.1150    1.0060    3.1110 hc        1 ATE      0.035700
     47 H182        1.5310    0.8010    3.2730 hc        1 ATE      0.035700
     48 H183        2.5410   -0.3510    3.7530 hc        1 ATE      0.035700
     49 H17         3.8320   -1.4180    2.0400 ha        1 ATE      0.136000
     50 H16         4.7250   -0.9620    0.1490 ha        1 ATE      0.135000
@<TRIPOS>BOND
     1    1    2 1   
     2    1   21 1   
     3    2    3 1   
     4    2    5 1   
     5    2   22 1   
     6    3    4 1   
     7    3   23 1   
     8    3   24 1   
     9    4    8 1   
    10    4   25 1   
    11    4   26 1   
    12    5    6 1   
    13    5   27 1   
    14    5   28 1   
    15    6    7 1   
    16    6    8 1   
    17    6   29 1   
    18    7   13 1   
    19    7   30 1   
    20    7   31 1   
    21    8    9 1   
    22    8   10 1   
    23    9   32 1   
    24    9   33 1   
    25    9   34 1   
    26   10   11 1   
    27   10   12 1   
    28   10   35 1   
    29   11   17 1   
    30   11   36 1   
    31   11   37 1   
    32   12   13 1   
    33   12   14 1   
    34   12   38 1   
    35   13   39 1   
    36   13   40 1   
    37   14   15 1   
    38   14   16 1   
    39   14   41 1   
    40   15   20 1   
    41   15   42 1   
    42   15   43 1   
    43   16   17 1   
    44   16   18 1   
    45   16   19 1   
    46   17   44 1   
    47   17   45 1   
    48   18   46 1   
    49   18   47 1   
    50   18   48 1   
    51   19   20 2   
    52   19   49 1   
    53   20   50 1   
@<TRIPOS>SUBSTRUCTURE
     1 ATE         1 TEMP              0 ****  ****    0 ROOT
