@<TRIPOS>MOLECULE
ATG
   44    45     1     0     0
SMALL
bcc


@<TRIPOS>ATOM
      1 PG         -0.9930    0.7790    0.7440 p4        1 ATG      1.897200
      2 O1G        -0.7470    0.6340    2.1840 o         1 ATG     -0.831500
      3 O2G        -2.1200    0.1030    0.0920 o         1 ATG     -0.880300
      4 S3G         0.8890   -0.0930   -0.2580 s         1 ATG     -0.994000
      5 PB         -0.5490    3.8240   -0.3110 p5        1 ATG      1.734800
      6 O1B        -0.0910    4.6590    0.8090 o         1 ATG     -0.889500
      7 O2B         0.2000    3.6540   -1.5650 o         1 ATG     -0.889500
      8 O3B        -0.8430    2.2910    0.2420 os        1 ATG     -0.817800
      9 PA         -3.3870    5.1860   -1.0940 p5        1 ATG      1.638800
     10 O1A        -4.5000    5.1450   -0.1050 o         1 ATG     -0.915500
     11 O2A        -3.1920    6.5020   -1.7610 o         1 ATG     -0.915500
     12 O3A        -2.0660    4.4180   -0.6970 os        1 ATG     -0.812800
     13 O5'        -4.0150    4.3190   -2.3940 os        1 ATG     -0.576200
     14 C5'        -5.3550    4.0030   -2.3890 c3        1 ATG      0.206400
     15 C4'        -6.2020    5.0420   -3.1600 c3        1 ATG      0.062100
     16 O4'        -7.5980    4.6900   -3.0260 os        1 ATG     -0.427600
     17 C3'        -6.0400    6.4910   -2.6510 c3        1 ATG      0.083100
     18 O3'        -5.3820    7.2980   -3.5990 oh        1 ATG     -0.652800
     19 C2'        -7.4650    7.0100   -2.4040 c3        1 ATG      0.109100
     20 O2'        -7.9970    7.8090   -3.4410 oh        1 ATG     -0.615800
     21 C1'        -8.3120    5.6960   -2.3110 c3        1 ATG      0.221800
     22 N9         -8.5870    5.2940   -0.9430 na        1 ATG     -0.276000
     23 C8         -7.6820    5.0720    0.1340 cc        1 ATG      0.469700
     24 N7         -8.2950    4.6730    1.2620 nd        1 ATG     -0.581100
     25 C5         -9.6580    4.5940    0.9440 ca        1 ATG     -0.192200
     26 C6        -10.8060    4.2080    1.6980 ca        1 ATG      0.687200
     27 N6        -10.6770    3.9190    3.0600 nh        1 ATG     -0.924500
     28 N1        -12.0340    4.1890    1.0880 nb        1 ATG     -0.805000
     29 C2        -12.0820    4.5810   -0.2160 ca        1 ATG      0.632900
     30 N3        -11.0960    4.9810   -1.0480 nb        1 ATG     -0.719000
     31 C4         -9.8620    4.9740   -0.4550 ca        1 ATG      0.429800
     32 HSG3        1.0310    0.8350   -1.2000 hs        1 ATG      0.162000
     33 H5'1       -5.7490    3.9070   -1.3390 h1        1 ATG      0.032200
     34 H5'2       -5.4850    3.0170   -2.9190 h1        1 ATG      0.032200
     35 H4'        -5.9820    4.9860   -4.2590 h1        1 ATG      0.060700
     36 H3'        -5.4570    6.4790   -1.6750 h1        1 ATG      0.139700
     37 HO3'       -4.4360    7.2890   -3.3370 ho        1 ATG      0.490000
     38 H2'        -7.5310    7.6330   -1.4740 h1        1 ATG      0.081700
     39 HO2'       -7.4390    7.6830   -4.2190 ho        1 ATG      0.423000
     40 H1'        -9.2970    5.8090   -2.8500 h2        1 ATG      0.096700
     41 H8         -6.5650    5.2050    0.0370 h5        1 ATG      0.193800
     42 HN61       -9.7430    3.6990    3.3350 hn        1 ATG      0.406800
     43 HN62      -11.3710    3.3180    3.4420 hn        1 ATG      0.406800
     44 H2        -13.0960    4.5610   -0.6640 h5        1 ATG      0.020100
@<TRIPOS>BOND
     1    1    2 1   
     2    1    3 2   
     3    1    8 1   
     4    4   32 1   
     5    5    6 1   
     6    5    7 1   
     7    5    8 1   
     8    5   12 1   
     9    9   10 1   
    10    9   11 1   
    11    9   12 1   
    12    9   13 1   
    13   13   14 1   
    14   14   15 1   
    15   14   33 1   
    16   14   34 1   
    17   15   16 1   
    18   15   17 1   
    19   15   35 1   
    20   16   21 1   
    21   17   18 1   
    22   17   19 1   
    23   17   36 1   
    24   18   37 1   
    25   19   20 1   
    26   19   21 1   
    27   19   38 1   
    28   20   39 1   
    29   21   22 1   
    30   21   40 1   
    31   22   23 1   
    32   22   31 1   
    33   23   24 2   
    34   23   41 1   
    35   24   25 1   
    36   25   26 ar  
    37   25   31 ar  
    38   26   27 1   
    39   26   28 ar  
    40   27   42 1   
    41   27   43 1   
    42   28   29 ar  
    43   29   30 ar  
    44   29   44 1   
    45   30   31 ar  
@<TRIPOS>SUBSTRUCTURE
     1 ATG         1 TEMP              0 ****  ****    0 ROOT
