@<TRIPOS>MOLECULE
ATG
   44    39     1     0     0
SMALL
bcc


@<TRIPOS>ATOM
      1 PG          5.3080    4.8790   -2.2990 p4        1 ATG      1.820100
      2 O1G         5.5540    4.8440   -0.7650 o         1 ATG     -0.902300
      3 O2G         6.5430    5.5080   -3.0060 os        1 ATG     -1.189667
      4 S3G         3.6420    6.0000   -2.6950 sh        1 ATG     -0.840200
      5 PB          5.6200    2.0390   -2.0920 p4        1 ATG      2.040100
      6 O1B         6.8820    1.5120   -2.8050 o         1 ATG     -0.902300
      7 O2B         5.9410    2.3650   -0.7230 os        1 ATG     -1.189667
      8 O3B         5.0820    3.3750   -2.8510 os        1 ATG     -0.718800
      9 PA          4.2630   -0.1110   -0.9410 p4        1 ATG      1.968100
     10 O1A         5.3120   -1.2500   -1.0420 o         1 ATG     -0.911300
     11 O2A         4.4070    0.5910    0.3930 os        1 ATG     -1.189667
     12 O3A         4.5010    0.9320   -2.1210 os        1 ATG     -0.816800
     13 O5'         2.7980   -0.7300   -1.0620 os        1 ATG     -0.583200
     14 C5'         1.8590   -0.4870   -0.0050 c3        1 ATG      0.181400
     15 C4'         0.4460   -0.5500   -0.5700 c3        1 ATG      0.095100
     16 O4'        -0.2510   -1.4770    0.0360 os        1 ATG     -0.437600
     17 C3'        -0.3150    0.7790   -0.2910 c3        1 ATG      0.116100
     18 O3'        -0.4880    1.4550   -1.4140 oh        1 ATG     -0.631800
     19 C2'        -1.6810    0.3570    0.2980 c3        1 ATG      0.111100
     20 O2'        -2.7650    1.0480   -0.4000 oh        1 ATG     -0.655800
     21 C1'        -1.7580   -0.9370    0.0890 c3        1 ATG      0.227800
     22 N9         -2.4790   -1.5740    1.1750 n3        1 ATG     -0.082400
     23 C8         -2.0050   -1.8350    2.3950 c1        1 ATG      0.225400
     24 N7         -2.9430   -2.6070    3.0650 ne        1 ATG     -0.441400
     25 C5         -3.9970   -2.8100    2.2300 cg        1 ATG     -0.159000
     26 C6         -5.1920   -3.4780    2.3980 c1        1 ATG      0.543600
     27 N6         -5.7100   -4.1280    3.4790 n3        1 ATG     -0.787400
     28 N1         -6.0960   -3.5050    1.4000 n1        1 ATG     -0.606800
     29 C2         -5.8290   -2.8690    0.2120 c1        1 ATG      0.354300
     30 N3         -4.6580   -2.2140    0.0440 n1        1 ATG     -0.493800
     31 C4         -3.7320   -2.1840    1.0630 c1        1 ATG     -0.002300
     32 HSG3        3.7350    7.0350   -2.1730 hs        1 ATG      0.312800
     33 H5'1        1.9590   -1.1320    0.6530 h1        1 ATG      0.024200
     34 H5'2        2.0270    0.4320    0.3920 h1        1 ATG      0.024200
     35 H4'         0.4760   -0.7290   -1.5360 h1        1 ATG      0.093700
     36 H3'         0.1920    1.3390    0.3780 h1        1 ATG      0.114700
     37 HO3'       -0.2340    2.2930   -1.2930 ho        1 ATG      0.489000
     38 H2'        -1.7110    0.5430    1.2210 h1        1 ATG      0.047700
     39 HO2'       -3.0250    1.8040    0.0970 ho        1 ATG      0.495000
     40 H1'        -2.2220   -1.1210   -0.7890 h2        1 ATG      0.104700
     41 H8         -1.1350   -1.5450    2.7500 DU        1 ATG      0.249000
     42 HN61       -6.4660   -3.7450    3.9590 hn        1 ATG      0.399800
     43 HN62       -5.4170   -4.9150    3.6910 hn        1 ATG      0.399800
     44 H2         -6.4370   -3.1980   -0.5470 ha        1 ATG      0.103500
@<TRIPOS>BOND
     1    1    2 2   
     2    1    4 1   
     3    1    8 1   
     4    4   32 1   
     5    5    6 2   
     6    5    8 1   
     7    5   12 1   
     8    9   10 2   
     9    9   12 1   
    10    9   13 1   
    11   13   14 1   
    12   14   15 1   
    13   14   33 1   
    14   14   34 1   
    15   15   16 1   
    16   15   17 1   
    17   15   35 1   
    18   16   21 1   
    19   17   18 1   
    20   17   19 1   
    21   17   36 1   
    22   18   37 1   
    23   19   20 1   
    24   19   21 1   
    25   19   38 1   
    26   20   39 1   
    27   21   22 1   
    28   21   40 1   
    29   22   23 2   
    30   22   31 1   
    31   23   24 2   
    32   24   25 1   
    33   25   31 3   
    34   26   27 1   
    35   26   28 3   
    36   27   42 1   
    37   27   43 1   
    38   29   30 3   
    39   29   44 1   
@<TRIPOS>SUBSTRUCTURE
     1 ATG         1 TEMP              0 ****  ****    0 ROOT
