@<TRIPOS>MOLECULE
ATG
   44    45     1     0     0
SMALL
bcc


@<TRIPOS>ATOM
      1 PG          1.0250    1.1030   -0.2090 p4        1 ATG      1.899200
      2 O1G         2.0430    1.2580    0.8380 o         1 ATG     -0.833000
      3 O2G        -0.0370    0.0970   -0.0860 o         1 ATG     -0.881800
      4 S3G         2.2110    0.4740   -2.0860 s         1 ATG     -0.993000
      5 PB         -0.0210    3.9430   -1.4050 p5        1 ATG      1.735800
      6 O1B         0.8370    5.0130   -0.8740 o         1 ATG     -0.893500
      7 O2B        -0.1990    3.6830   -2.8430 o         1 ATG     -0.893500
      8 O3B         0.4640    2.4980   -0.7460 os        1 ATG     -0.817800
      9 PA         -2.9320    4.7180   -0.2070 p5        1 ATG      1.633800
     10 O1A        -3.1650    4.5620    1.2410 o         1 ATG     -0.910500
     11 O2A        -3.3920    5.9710   -0.8750 o         1 ATG     -0.910500
     12 O3A        -1.5250    4.2200   -0.7440 os        1 ATG     -0.814800
     13 O5'        -4.0220    3.6320   -0.9240 os        1 ATG     -0.557200
     14 C5'        -5.3480    3.9270   -0.7080 c3        1 ATG      0.223400
     15 C4'        -5.9660    4.6120   -1.9480 c3        1 ATG      0.051100
     16 O4'        -7.3240    4.1420   -2.1340 os        1 ATG     -0.424600
     17 C3'        -5.9980    6.1500   -1.8630 c3        1 ATG      0.127100
     18 O3'        -5.1770    6.7320   -2.8480 oh        1 ATG     -0.663800
     19 C2'        -7.4620    6.5540   -2.1470 c3        1 ATG      0.106100
     20 O2'        -7.6900    7.1270   -3.4150 oh        1 ATG     -0.611800
     21 C1'        -8.2570    5.2070   -2.0710 c3        1 ATG      0.213800
     22 N9         -9.0680    5.0780   -0.8640 na        1 ATG     -0.255000
     23 C8         -8.6230    4.7250    0.4300 cc        1 ATG      0.454700
     24 N7         -9.6140    4.6140    1.3340 nd        1 ATG     -0.584100
     25 C5        -10.7870    4.8880    0.6190 ca        1 ATG     -0.206200
     26 C6        -12.1660    4.9200    0.9940 ca        1 ATG      0.700200
     27 N6        -12.5250    4.7540    2.3310 nv        1 ATG     -0.931500
     28 N1        -13.1130    5.1760    0.0380 nb        1 ATG     -0.805000
     29 C2        -12.6680    5.4260   -1.2270 ca        1 ATG      0.643900
     30 N3        -11.4150    5.4490   -1.7250 nb        1 ATG     -0.705000
     31 C4        -10.4610    5.1710   -0.7820 ca        1 ATG      0.439800
     32 HSG3        1.5250    1.1940   -2.9660 hs        1 ATG      0.158000
     33 H5'1       -5.4650    4.5910    0.1970 h1        1 ATG      0.008700
     34 H5'2       -5.9120    2.9650   -0.5360 h1        1 ATG      0.008700
     35 H4'        -5.4080    4.2770   -2.8650 h1        1 ATG      0.103700
     36 H3'        -5.6830    6.5080   -0.8450 h1        1 ATG      0.103700
     37 HO3'       -4.2550    6.6460   -2.5150 ho        1 ATG      0.511000
     38 H2'        -7.8330    7.3100   -1.4070 h1        1 ATG      0.069700
     39 HO2'       -6.9400    6.9000   -3.9840 ho        1 ATG      0.434000
     40 H1'        -8.9490    5.0940   -2.9570 h2        1 ATG      0.097700
     41 H8         -7.5470    4.5520    0.6230 h5        1 ATG      0.117800
     42 HN61      -11.8300    4.3130    2.8920 hn        1 ATG      0.410300
     43 HN62      -13.4590    4.4670    2.5070 hn        1 ATG      0.410300
     44 H2        -13.4720    5.6380   -1.9620 h5        1 ATG      0.029100
@<TRIPOS>BOND
     1    1    2 1   
     2    1    3 2   
     3    1    8 1   
     4    4   32 1   
     5    5    6 1   
     6    5    7 1   
     7    5    8 1   
     8    5   12 1   
     9    9   10 1   
    10    9   11 1   
    11    9   12 1   
    12    9   13 1   
    13   13   14 1   
    14   14   15 1   
    15   14   33 1   
    16   14   34 1   
    17   15   16 1   
    18   15   17 1   
    19   15   35 1   
    20   16   21 1   
    21   17   18 1   
    22   17   19 1   
    23   17   36 1   
    24   18   37 1   
    25   19   20 1   
    26   19   21 1   
    27   19   38 1   
    28   20   39 1   
    29   21   22 1   
    30   21   40 1   
    31   22   23 1   
    32   22   31 1   
    33   23   24 2   
    34   23   41 1   
    35   24   25 1   
    36   25   26 ar  
    37   25   31 ar  
    38   26   27 1   
    39   26   28 ar  
    40   27   42 1   
    41   27   43 1   
    42   28   29 ar  
    43   29   30 ar  
    44   29   44 1   
    45   30   31 ar  
@<TRIPOS>SUBSTRUCTURE
     1 ATG         1 TEMP              0 ****  ****    0 ROOT
