@<TRIPOS>MOLECULE
ATG
   44    45     1     0     0
SMALL
bcc


@<TRIPOS>ATOM
      1 PG         -3.3520    1.4970   -0.9430 p4        1 ATG      1.896200
      2 O1G        -3.5790    2.9180   -0.6490 o         1 ATG     -0.835000
      3 O2G        -2.3670    1.0750   -1.9480 o         1 ATG     -0.883800
      4 S3G        -5.3880    0.7310   -1.6850 s         1 ATG     -1.000000
      5 PB         -3.1750   -0.3370    1.7430 p5        1 ATG      1.730800
      6 O1B        -2.8810    0.5060    2.9120 o         1 ATG     -0.895000
      7 O2B        -4.3620   -1.2040    1.6580 o         1 ATG     -0.895000
      8 O3B        -3.2270    0.6120    0.3790 os        1 ATG     -0.819800
      9 PA         -0.5840   -2.2310    1.2280 p5        1 ATG      1.624800
     10 O1A         0.7190   -1.6230    1.6330 o         1 ATG     -0.903500
     11 O2A        -0.8490   -3.6410    1.5720 o         1 ATG     -0.903500
     12 O3A        -1.8230   -1.2550    1.4640 os        1 ATG     -0.824800
     13 O5'        -0.4350   -2.1960   -0.4350 os        1 ATG     -0.601200
     14 C5'         0.1130   -1.0380   -0.9790 c3        1 ATG      0.177400
     15 C4'         1.4300   -1.4150   -1.6850 c3        1 ATG      0.079100
     16 O4'         2.3120   -0.2760   -1.7710 os        1 ATG     -0.408600
     17 C3'         2.1900   -2.5350   -0.9470 c3        1 ATG      0.065100
     18 O3'         2.0180   -3.7800   -1.6010 oh        1 ATG     -0.638800
     19 C2'         3.6680   -2.1270   -0.9960 c3        1 ATG      0.114100
     20 O2'         4.4060   -2.7210   -2.0450 oh        1 ATG     -0.611800
     21 C1'         3.6010   -0.5790   -1.2400 c3        1 ATG      0.222800
     22 N9          3.8700    0.1980   -0.0440 na        1 ATG     -0.273000
     23 C8          3.1140    0.2730    1.1580 cc        1 ATG      0.483700
     24 N7          3.6260    1.1430    2.0460 nd        1 ATG     -0.593100
     25 C5          4.7500    1.7010    1.4240 ca        1 ATG     -0.185200
     26 C6          5.6900    2.6930    1.8320 ca        1 ATG      0.676200
     27 N6          5.6250    3.2210    3.1280 nh        1 ATG     -0.920500
     28 N1          6.6860    3.0710    0.9690 nb        1 ATG     -0.803000
     29 C2          6.7330    2.4370   -0.2370 ca        1 ATG      0.627900
     30 N3          5.9310    1.4820   -0.7560 nb        1 ATG     -0.715000
     31 C4          4.9170    1.1200    0.0890 ca        1 ATG      0.426800
     32 HSG3       -5.5190   -0.2760   -0.8230 hs        1 ATG      0.171000
     33 H5'1       -0.6030   -0.6010   -1.7330 h1        1 ATG      0.076700
     34 H5'2        0.3230   -0.2760   -0.1790 h1        1 ATG      0.076700
     35 H4'         1.2270   -1.7160   -2.7480 h1        1 ATG      0.044700
     36 H3'         1.8240   -2.5900    0.1290 h1        1 ATG      0.149700
     37 HO3'        1.0890   -4.0120   -1.4430 ho        1 ATG      0.449000
     38 H2'         4.2130   -2.3960   -0.0550 h1        1 ATG      0.085700
     39 HO2'        3.7760   -2.9780   -2.7300 ho        1 ATG      0.416000
     40 H1'         4.3450   -0.2710   -2.0320 h2        1 ATG      0.090700
     41 H8          2.1840   -0.3520    1.3200 h5        1 ATG      0.203800
     42 HN61        4.7310    3.0980    3.5560 hn        1 ATG      0.401300
     43 HN62        5.9970    4.1380    3.2310 hn        1 ATG      0.401300
     44 H2          7.5590    2.7680   -0.8970 h5        1 ATG      0.019100
@<TRIPOS>BOND
     1    1    2 1   
     2    1    3 2   
     3    1    8 1   
     4    4   32 1   
     5    5    6 1   
     6    5    7 1   
     7    5    8 1   
     8    5   12 1   
     9    9   10 1   
    10    9   11 1   
    11    9   12 1   
    12    9   13 1   
    13   13   14 1   
    14   14   15 1   
    15   14   33 1   
    16   14   34 1   
    17   15   16 1   
    18   15   17 1   
    19   15   35 1   
    20   16   21 1   
    21   17   18 1   
    22   17   19 1   
    23   17   36 1   
    24   18   37 1   
    25   19   20 1   
    26   19   21 1   
    27   19   38 1   
    28   20   39 1   
    29   21   22 1   
    30   21   40 1   
    31   22   23 1   
    32   22   31 1   
    33   23   24 2   
    34   23   41 1   
    35   24   25 1   
    36   25   26 ar  
    37   25   31 ar  
    38   26   27 1   
    39   26   28 ar  
    40   27   42 1   
    41   27   43 1   
    42   28   29 ar  
    43   29   30 ar  
    44   29   44 1   
    45   30   31 ar  
@<TRIPOS>SUBSTRUCTURE
     1 ATG         1 TEMP              0 ****  ****    0 ROOT
