@<TRIPOS>MOLECULE
ATG
   44    45     1     0     0
SMALL
bcc


@<TRIPOS>ATOM
      1 PG          1.0070    1.0690   -0.2160 p4        1 ATG      1.899200
      2 O1G         2.0320    1.2260    0.8230 o         1 ATG     -0.833000
      3 O2G        -0.0600    0.0710   -0.0810 o         1 ATG     -0.881800
      4 S3G         2.1780    0.4200   -2.0950 s         1 ATG     -0.993000
      5 PB         -0.0270    3.9080   -1.4270 p5        1 ATG      1.735800
      6 O1B         0.8390    4.9760   -0.9060 o         1 ATG     -0.893500
      7 O2B        -0.2130    3.6390   -2.8620 o         1 ATG     -0.893500
      8 O3B         0.4520    2.4650   -0.7600 os        1 ATG     -0.817800
      9 PA         -2.9290    4.7070   -0.2210 p5        1 ATG      1.633800
     10 O1A        -3.1570    4.5630    1.2290 o         1 ATG     -0.910500
     11 O2A        -3.3850    5.9580   -0.8960 o         1 ATG     -0.910500
     12 O3A        -1.5280    4.1980   -0.7610 os        1 ATG     -0.814800
     13 O5'        -4.0280    3.6230   -0.9260 os        1 ATG     -0.557200
     14 C5'        -5.3520    3.9270   -0.7050 c3        1 ATG      0.223400
     15 C4'        -5.9710    4.6060   -1.9470 c3        1 ATG      0.051100
     16 O4'        -7.3330    4.1420   -2.1250 os        1 ATG     -0.424600
     17 C3'        -5.9950    6.1450   -1.8740 c3        1 ATG      0.127100
     18 O3'        -5.1750    6.7150   -2.8660 oh        1 ATG     -0.663800
     19 C2'        -7.4580    6.5550   -2.1540 c3        1 ATG      0.106100
     20 O2'        -7.6880    7.1210   -3.4240 oh        1 ATG     -0.611800
     21 C1'        -8.2600    5.2120   -2.0650 c3        1 ATG      0.213800
     22 N9         -9.0660    5.0960   -0.8530 na        1 ATG     -0.255000
     23 C8         -8.6170    4.7480    0.4410 cc        1 ATG      0.454700
     24 N7         -9.6050    4.6490    1.3500 nd        1 ATG     -0.584100
     25 C5        -10.7800    4.9240    0.6390 ca        1 ATG     -0.206200
     26 C6        -12.1560    4.9670    1.0190 ca        1 ATG      0.700200
     27 N6        -12.5100    4.8110    2.3580 nh        1 ATG     -0.931500
     28 N1        -13.1070    5.2210    0.0660 nb        1 ATG     -0.805000
     29 C2        -12.6660    5.4600   -1.2030 ca        1 ATG      0.643900
     30 N3        -11.4150    5.4750   -1.7060 nb        1 ATG     -0.705000
     31 C4        -10.4580    5.1970   -0.7660 ca        1 ATG      0.439800
     32 HSG3        1.4920    1.1390   -2.9760 hs        1 ATG      0.158000
     33 H5'1       -5.4610    4.5970    0.1950 h1        1 ATG      0.008700
     34 H5'2       -5.9200    2.9690   -0.5240 h1        1 ATG      0.008700
     35 H4'        -5.4200    4.2620   -2.8650 h1        1 ATG      0.103700
     36 H3'        -5.6740    6.5080   -0.8590 h1        1 ATG      0.103700
     37 HO3'       -4.2520    6.6270   -2.5370 ho        1 ATG      0.511000
     38 H2'        -7.8220    7.3170   -1.4160 h1        1 ATG      0.069700
     39 HO2'       -6.9430    6.8860   -3.9950 ho        1 ATG      0.434000
     40 H1'        -8.9560    5.0970   -2.9470 h2        1 ATG      0.097700
     41 H8         -7.5420    4.5710    0.6310 h5        1 ATG      0.117800
     42 HN61      -13.4450    4.5300    2.5410 hn        1 ATG      0.410300
     43 HN62      -11.8160    4.3700    2.9190 hn        1 ATG      0.410300
     44 H2        -13.4720    5.6720   -1.9360 h5        1 ATG      0.029100
@<TRIPOS>BOND
     1    1    2 1   
     2    1    3 2   
     3    1    8 1   
     4    4   32 1   
     5    5    6 1   
     6    5    7 1   
     7    5    8 1   
     8    5   12 1   
     9    9   10 1   
    10    9   11 1   
    11    9   12 1   
    12    9   13 1   
    13   13   14 1   
    14   14   15 1   
    15   14   33 1   
    16   14   34 1   
    17   15   16 1   
    18   15   17 1   
    19   15   35 1   
    20   16   21 1   
    21   17   18 1   
    22   17   19 1   
    23   17   36 1   
    24   18   37 1   
    25   19   20 1   
    26   19   21 1   
    27   19   38 1   
    28   20   39 1   
    29   21   22 1   
    30   21   40 1   
    31   22   23 1   
    32   22   31 1   
    33   23   24 2   
    34   23   41 1   
    35   24   25 1   
    36   25   26 ar  
    37   25   31 ar  
    38   26   27 1   
    39   26   28 ar  
    40   27   42 1   
    41   27   43 1   
    42   28   29 ar  
    43   29   30 ar  
    44   29   44 1   
    45   30   31 ar  
@<TRIPOS>SUBSTRUCTURE
     1 ATG         1 TEMP              0 ****  ****    0 ROOT
