@<TRIPOS>MOLECULE
ATH
   16    15     1     0     0
SMALL
bcc


@<TRIPOS>ATOM
      1 C1         -0.0200   -0.3620   -0.3790 c         1 ATH      0.903800
      2 C2          1.3830   -0.0500    0.0390 ce        1 ATH     -0.232200
      3 C3          1.9750    0.0500    1.2420 cf        1 ATH     -0.127400
      4 C4          1.2500   -0.0750    2.5530 c3        1 ATH      0.083300
      5 C5          1.2450    1.1790    3.4610 c         1 ATH      0.899600
      6 C6          3.4890    0.1730    1.2650 c         1 ATH      0.905800
      7 O1         -0.8220   -1.0440    0.3340 o         1 ATH     -0.903300
      8 O2         -0.3850    0.0060   -1.5510 o         1 ATH     -0.903300
      9 O3          1.9620    1.1720    4.5130 o         1 ATH     -0.890800
     10 O4          0.4590    2.1470    3.2200 o         1 ATH     -0.890800
     11 O5          4.0830    0.9940    0.4940 o         1 ATH     -0.893300
     12 O6          4.1730   -0.6060    2.0080 o         1 ATH     -0.893300
     13 OH          1.7700   -1.1700    3.3070 oh        1 ATH     -0.651800
     14 H2          2.0290    0.1100   -0.8470 ha        1 ATH      0.089000
     15 H4          0.1760   -0.3610    2.3450 h1        1 ATH      0.081700
     16 HH          2.6850   -0.9270    3.5130 ho        1 ATH      0.423000
@<TRIPOS>BOND
     1    1    2 1   
     2    1    7 1   
     3    1    8 1   
     4    2    3 2   
     5    2   14 1   
     6    3    4 1   
     7    3    6 1   
     8    4    5 1   
     9    4   13 1   
    10    4   15 1   
    11    5    9 1   
    12    5   10 1   
    13    6   11 1   
    14    6   12 1   
    15   13   16 1   
@<TRIPOS>SUBSTRUCTURE
     1 ATH         1 TEMP              0 ****  ****    0 ROOT
