@<TRIPOS>MOLECULE
ATH
   16    15     1     0     0
SMALL
bcc


@<TRIPOS>ATOM
      1 C1         -2.5460    0.4350   -0.4340 c         1 ATH      0.903800
      2 C2         -1.2340    1.0530   -0.0640 ce        1 ATH     -0.232200
      3 C3          0.0280    0.5920   -0.0820 cf        1 ATH     -0.127400
      4 C4          0.4080   -0.8150   -0.4500 c3        1 ATH      0.083300
      5 C5          1.0770   -1.6620    0.6610 c         1 ATH      0.899600
      6 C6          1.1410    1.5970    0.1660 c         1 ATH      0.905800
      7 O1         -2.6550   -0.5130   -1.2740 o         1 ATH     -0.903300
      8 O2         -3.6080    0.9560    0.0610 o         1 ATH     -0.903300
      9 O3          2.3210   -1.9140    0.5680 o         1 ATH     -0.890800
     10 O4          0.3770   -2.1870    1.5810 o         1 ATH     -0.890800
     11 O5          1.0640    2.4200    1.1340 o         1 ATH     -0.893300
     12 O6          2.1200    1.6650   -0.6470 o         1 ATH     -0.893300
     13 OH          1.2660   -0.8170   -1.5910 oh        1 ATH     -0.651800
     14 H2         -1.3760    2.1000    0.2730 ha        1 ATH      0.089000
     15 H4         -0.5190   -1.3610   -0.7950 h1        1 ATH      0.081700
     16 HH          2.0780   -0.3730   -1.3010 ho        1 ATH      0.423000
@<TRIPOS>BOND
     1    1    2 1   
     2    1    7 1   
     3    1    8 1   
     4    2    3 2   
     5    2   14 1   
     6    3    4 1   
     7    3    6 1   
     8    4    5 1   
     9    4   13 1   
    10    4   15 1   
    11    5    9 1   
    12    5   10 1   
    13    6   11 1   
    14    6   12 1   
    15   13   16 1   
@<TRIPOS>SUBSTRUCTURE
     1 ATH         1 TEMP              0 ****  ****    0 ROOT
