@<TRIPOS>MOLECULE
ATH
   16    13     1     0     0
SMALL
bcc


@<TRIPOS>ATOM
      1 C1         -1.7100   -0.1260   -1.6300 c1        1 ATH      0.821000
      2 C2         -0.1980   -0.1260   -1.6300 c1        1 ATH     -0.155500
      3 C3          0.4760   -0.1260   -0.4630 cg        1 ATH     -0.073200
      4 C4         -0.2800   -0.1260    0.8470 c2        1 ATH      0.062100
      5 C5          0.1540    1.0600    1.6790 c         1 ATH      0.849600
      6 C6          1.9890   -0.1260   -0.4630 c         1 ATH      0.855800
      7 O1         -2.3400    0.9650   -1.6450 o         1 ATH     -0.871500
      8 O2         -2.3400   -1.2160   -1.6140 o         1 ATH     -0.871500
      9 O3          1.0470    0.9200    2.5560 o         1 ATH     -0.890800
     10 O4         -0.3780    2.1860    1.4960 o         1 ATH     -0.890800
     11 O5          2.6190   -1.2100   -0.3500 o         1 ATH     -0.893300
     12 O6          2.6190    0.9590   -0.5760 o         1 ATH     -0.893300
     13 OH         -0.0060   -1.3160    1.5470 oh        1 ATH     -0.624100
     14 H2          0.2900   -0.1260   -2.4750 ha        1 ATH      0.031500
     15 H4         -1.2380   -0.0650    0.6690 h4        1 ATH      0.121000
     16 HH         -0.7040   -1.5300    2.0510 ho        1 ATH      0.423000
@<TRIPOS>BOND
     1    1    7 2   
     2    1    8 2   
     3    2    3 3   
     4    2   14 1   
     5    3    6 1   
     6    4    5 2   
     7    4   13 1   
     8    4   15 1   
     9    5    9 1   
    10    5   10 1   
    11    6   11 1   
    12    6   12 1   
    13   13   16 1   
@<TRIPOS>SUBSTRUCTURE
     1 ATH         1 TEMP              0 ****  ****    0 ROOT
