@<TRIPOS>MOLECULE
ATI
   69    68     1     0     0
SMALL
bcc


@<TRIPOS>ATOM
      1 N1         -2.0210    0.8400   -0.4360 n3        1 ATI     -0.944800
      2 C2         -3.2320    0.8160    0.3550 c3        1 ATI      0.151500
      3 C3         -3.1390   -0.2280    1.5000 c3        1 ATI      0.100100
      4 O4         -2.3760    0.2360    2.5890 oh        1 ATI     -0.595800
      5 C5         -3.6600    2.1510    0.9840 c3        1 ATI     -0.095400
      6 C6         -3.7900    3.2840   -0.0210 c3        1 ATI     -0.096700
      7 C7         -4.7380    2.9480   -1.1490 c3        1 ATI     -0.075100
      8 C8         -4.2520    4.5370    0.6970 c3        1 ATI     -0.075100
      9 C9         -2.5970   -1.6050    1.0830 c         1 ATI      0.625100
     10 O10        -2.0980   -2.3620    1.9430 o         1 ATI     -0.626100
     11 N11        -2.7420   -2.0440   -0.2300 n         1 ATI     -0.534900
     12 C12        -1.9670   -3.1720   -0.6970 c3        1 ATI      0.014700
     13 C13        -0.5400   -2.7460   -1.1540 c         1 ATI      0.629100
     14 O14        -0.1570   -2.9460   -2.3260 o         1 ATI     -0.633100
     15 C15        -2.6630   -3.9500   -1.8340 c3        1 ATI     -0.055700
     16 C16        -3.8090   -4.7700   -1.2840 c3        1 ATI     -0.089600
     17 C17        -3.1360   -3.0550   -2.9590 c3        1 ATI     -0.089600
     18 N18         0.2800   -2.2170   -0.1830 n         1 ATI     -0.521900
     19 C19         1.3660   -1.3150   -0.5140 c3        1 ATI      0.020700
     20 C20         1.0850    0.1020    0.0850 c         1 ATI      0.630100
     21 O21         0.4790    0.1800    1.1900 o         1 ATI     -0.709100
     22 C22         2.7450   -1.7710    0.0070 c3        1 ATI     -0.074700
     23 C23         2.7270   -2.0870    1.4850 c3        1 ATI     -0.086600
     24 C24         3.2520   -2.9540   -0.7890 c3        1 ATI     -0.086600
     25 N25         1.4750    1.1630   -0.6560 n         1 ATI     -0.477900
     26 C26         1.3570    2.5450   -0.2190 c3        1 ATI      0.003700
     27 C27        -0.0770    3.1070   -0.4530 c         1 ATI      0.892600
     28 O28        -0.5890    3.1190   -1.6120 o         1 ATI     -0.860300
     29 C29         2.3700    3.4500   -0.9260 c3        1 ATI     -0.191400
     30 C30         3.8070    2.9200   -0.9550 c         1 ATI      0.901600
     31 O31         4.7230    3.6190   -0.4300 o         1 ATI     -0.873300
     32 O32         4.0540    1.8170   -1.5420 o         1 ATI     -0.873300
     33 O33        -0.7210    3.5150    0.5600 o         1 ATI     -0.860300
     34 HN11       -2.0830    1.5380   -1.1620 hn        1 ATI      0.397800
     35 HN12       -1.2370    1.0920    0.1450 hn        1 ATI      0.397800
     36 H2         -4.0700    0.4790   -0.3290 h1        1 ATI      0.023700
     37 H3         -4.1710   -0.3920    1.9240 h1        1 ATI      0.064700
     38 HO4        -1.4730    0.4140    2.2740 ho        1 ATI      0.458000
     39 H51        -4.6330    1.9960    1.5170 hc        1 ATI      0.047200
     40 H52        -2.8840    2.4530    1.7410 hc        1 ATI      0.047200
     41 H6         -2.7500    3.4950   -0.4420 hc        1 ATI      0.152700
     42 H71        -4.9150    3.8490   -1.7870 hc        1 ATI      0.016367
     43 H72        -4.3080    2.1460   -1.7960 hc        1 ATI      0.016367
     44 H73        -5.7230    2.5980   -0.7550 hc        1 ATI      0.016367
     45 H81        -3.5130    4.8090    1.4890 hc        1 ATI      0.016367
     46 H82        -4.3290    5.3880   -0.0220 hc        1 ATI      0.016367
     47 H83        -5.2510    4.3840    1.1720 hc        1 ATI      0.016367
     48 H11        -2.9080   -1.3480   -0.9270 hn        1 ATI      0.327500
     49 H12        -1.8360   -3.8880    0.1730 h1        1 ATI      0.086700
     50 H15        -1.8820   -4.6490   -2.2520 hc        1 ATI      0.063700
     51 H161       -4.2810   -5.3640   -2.1040 hc        1 ATI      0.032700
     52 H162       -3.4470   -5.4750   -0.4970 hc        1 ATI      0.032700
     53 H163       -4.5880   -4.1090   -0.8330 hc        1 ATI      0.032700
     54 H171       -2.3110   -2.3660   -3.2690 hc        1 ATI      0.032700
     55 H172       -3.4310   -3.6770   -3.8380 hc        1 ATI      0.032700
     56 H173       -4.0220   -2.4490   -2.6520 hc        1 ATI      0.032700
     57 H18        -0.1110   -2.0580    0.7270 hn        1 ATI      0.331500
     58 H19         1.4330   -1.2490   -1.6420 h1        1 ATI      0.091700
     59 H22         3.4420   -0.8970   -0.1690 hc        1 ATI      0.096700
     60 H231        2.2000   -3.0520    1.6830 hc        1 ATI      0.029867
     61 H232        3.7720   -2.1730    1.8700 hc        1 ATI      0.029867
     62 H233        2.2000   -1.2730    2.0440 hc        1 ATI      0.029867
     63 H241        3.3160   -2.6940   -1.8730 hc        1 ATI      0.029867
     64 H242        4.2700   -3.2440   -0.4330 hc        1 ATI      0.029867
     65 H243        2.5730   -3.8320   -0.6760 hc        1 ATI      0.029867
     66 H25         2.1110    1.0180   -1.4220 hn        1 ATI      0.352500
     67 H26         1.5450    2.5740    0.8960 h1        1 ATI      0.056700
     68 H291        2.0370    3.6070   -1.9850 hc        1 ATI      0.044700
     69 H292        2.3530    4.4390   -0.4030 hc        1 ATI      0.044700
@<TRIPOS>BOND
     1    1    2 1   
     2    1   34 1   
     3    1   35 1   
     4    2    3 1   
     5    2    5 1   
     6    2   36 1   
     7    3    4 1   
     8    3    9 1   
     9    3   37 1   
    10    4   38 1   
    11    5    6 1   
    12    5   39 1   
    13    5   40 1   
    14    6    7 1   
    15    6    8 1   
    16    6   41 1   
    17    7   42 1   
    18    7   43 1   
    19    7   44 1   
    20    8   45 1   
    21    8   46 1   
    22    8   47 1   
    23    9   10 2   
    24    9   11 1   
    25   11   12 1   
    26   11   48 1   
    27   12   13 1   
    28   12   15 1   
    29   12   49 1   
    30   13   14 2   
    31   13   18 1   
    32   15   16 1   
    33   15   17 1   
    34   15   50 1   
    35   16   51 1   
    36   16   52 1   
    37   16   53 1   
    38   17   54 1   
    39   17   55 1   
    40   17   56 1   
    41   18   19 1   
    42   18   57 1   
    43   19   20 1   
    44   19   22 1   
    45   19   58 1   
    46   20   21 2   
    47   20   25 1   
    48   22   23 1   
    49   22   24 1   
    50   22   59 1   
    51   23   60 1   
    52   23   61 1   
    53   23   62 1   
    54   24   63 1   
    55   24   64 1   
    56   24   65 1   
    57   25   26 1   
    58   25   66 1   
    59   26   27 1   
    60   26   29 1   
    61   26   67 1   
    62   27   28 1   
    63   27   33 1   
    64   29   30 1   
    65   29   68 1   
    66   29   69 1   
    67   30   31 1   
    68   30   32 1   
@<TRIPOS>SUBSTRUCTURE
     1 ATI         1 TEMP              0 ****  ****    0 ROOT
