@<TRIPOS>MOLECULE
ATI
   69    68     1     0     0
SMALL
bcc


@<TRIPOS>ATOM
      1 N1         -2.5520   -3.9820   -0.8080 n3        1 ATI     -0.914800
      2 C2         -1.3050   -4.1020   -1.4430 c3        1 ATI      0.126500
      3 C3         -0.1990   -3.8220   -0.4420 c3        1 ATI      0.089100
      4 O4         -0.3080   -4.7120    0.6350 oh        1 ATI     -0.602800
      5 C5         -1.1480   -5.5200   -1.9950 c3        1 ATI     -0.060400
      6 C6         -1.8210   -5.6100   -3.3800 c3        1 ATI     -0.102700
      7 C7         -0.7890   -5.9880   -4.4180 c3        1 ATI     -0.075600
      8 C8         -2.9220   -6.6710   -3.3450 c3        1 ATI     -0.075600
      9 C9         -0.3230   -2.3910    0.0670 c         1 ATI      0.629100
     10 O10        -1.4090   -1.8460    0.0880 o         1 ATI     -0.655100
     11 N11         0.8490   -1.7030    0.6000 n         1 ATI     -0.561900
     12 C12         0.6830   -0.5830    1.4840 c3        1 ATI      0.041700
     13 C13         1.2640    0.6550    0.8440 c         1 ATI      0.642100
     14 O14         1.9200    0.5610   -0.1910 o         1 ATI     -0.633100
     15 C15         1.4000   -0.8600    2.7970 c3        1 ATI     -0.067700
     16 C16         0.4010   -1.4180    3.8190 c3        1 ATI     -0.091600
     17 C17         2.5180   -1.8840    2.5640 c3        1 ATI     -0.091600
     18 N18         1.0640    1.9450    1.4570 n         1 ATI     -0.525900
     19 C19         1.2320    3.1250    0.6900 c3        1 ATI      0.019700
     20 C20        -0.0480    3.9310    0.7160 c         1 ATI      0.622100
     21 O21        -0.8130    3.8310    1.6610 o         1 ATI     -0.668100
     22 C22         2.3780    3.9620    1.2810 c3        1 ATI     -0.054700
     23 C23         2.5590    3.6130    2.7530 c3        1 ATI     -0.092100
     24 C24         3.6640    3.6630    0.5270 c3        1 ATI     -0.092100
     25 N25        -0.3450    4.8640   -0.3650 n         1 ATI     -0.502900
     26 C26        -1.2740    5.9500   -0.1460 c3        1 ATI      0.018700
     27 C27        -2.6730    5.4590   -0.3490 c         1 ATI      0.908600
     28 O28        -2.9910    4.9180   -1.4260 o         1 ATI     -0.879800
     29 C29        -0.9880    7.0620   -1.1220 c3        1 ATI     -0.189400
     30 C30        -2.0060    8.1600   -0.9420 c         1 ATI      0.904600
     31 O31        -1.9150    8.9410    0.0280 o         1 ATI     -0.868800
     32 O32        -2.9760    8.2490   -1.7280 o         1 ATI     -0.868800
     33 O33        -3.5580    5.7020    0.5200 o         1 ATI     -0.879800
     34 HN11       -2.9150   -4.8170   -0.6890 hn        1 ATI      0.375800
     35 HN12       -3.1140   -3.4740   -1.3310 hn        1 ATI      0.375800
     36 H2         -1.2500   -3.4570   -2.1780 h1        1 ATI      0.093700
     37 H3          0.6660   -3.9390   -0.8740 h1        1 ATI      0.068700
     38 HO4         0.3570   -5.3060    0.5990 ho        1 ATI      0.423000
     39 H51        -1.5690   -6.1530   -1.3880 hc        1 ATI      0.027700
     40 H52        -0.1890   -5.7350   -2.0810 hc        1 ATI      0.027700
     41 H6         -2.2090   -4.7500   -3.6080 hc        1 ATI      0.142700
     42 H71        -0.1000   -5.2950   -4.4600 hc        1 ATI      0.018367
     43 H72        -1.2220   -6.0720   -5.2930 hc        1 ATI      0.018367
     44 H73        -0.3770   -6.8430   -4.1730 hc        1 ATI      0.018367
     45 H81        -2.5400   -7.5310   -3.0540 hc        1 ATI      0.018367
     46 H82        -3.3100   -6.7710   -4.2450 hc        1 ATI      0.018367
     47 H83        -3.6170   -6.3960   -2.7220 hc        1 ATI      0.018367
     48 H11         1.6880   -2.0000    0.3910 hn        1 ATI      0.383500
     49 H12        -0.2600   -0.4440    1.6550 h1        1 ATI      0.078700
     50 H15         1.7860   -0.0280    3.1400 hc        1 ATI      0.072700
     51 H161        0.2730   -2.3840    3.6610 hc        1 ATI      0.036533
     52 H162        0.7520   -1.2780    4.7360 hc        1 ATI      0.036533
     53 H163       -0.4510   -0.9590    3.7240 hc        1 ATI      0.036533
     54 H171        2.1270   -2.7620    2.4070 hc        1 ATI      0.036533
     55 H172        3.0450   -1.6190    1.7860 hc        1 ATI      0.036533
     56 H173        3.1040   -1.9210    3.3640 hc        1 ATI      0.036533
     57 H18         0.7430    1.9990    2.3060 hn        1 ATI      0.320500
     58 H19         1.4460    2.8850   -0.2320 h1        1 ATI      0.090700
     59 H22         2.1630    4.9140    1.1960 hc        1 ATI      0.055700
     60 H231        2.9100    2.7090    2.8300 hc        1 ATI      0.032200
     61 H232        1.6920    3.6680    3.2110 hc        1 ATI      0.032200
     62 H233        3.1950    4.2510    3.1680 hc        1 ATI      0.032200
     63 H241        3.9740    2.7600    0.7550 hc        1 ATI      0.032200
     64 H242        3.4990    3.7180   -0.4340 hc        1 ATI      0.032200
     65 H243        4.3570    4.3230    0.7820 hc        1 ATI      0.032200
     66 H25         0.0860    4.7890   -1.1590 hn        1 ATI      0.354500
     67 H26        -1.1750    6.2860    0.7710 h1        1 ATI      0.056700
     68 H291       -1.0390    6.7170   -2.0340 hc        1 ATI      0.040700
     69 H292       -0.0960    7.4160   -0.9580 hc        1 ATI      0.040700
@<TRIPOS>BOND
     1    1    2 1   
     2    1   34 1   
     3    1   35 1   
     4    2    3 1   
     5    2    5 1   
     6    2   36 1   
     7    3    4 1   
     8    3    9 1   
     9    3   37 1   
    10    4   38 1   
    11    5    6 1   
    12    5   39 1   
    13    5   40 1   
    14    6    7 1   
    15    6    8 1   
    16    6   41 1   
    17    7   42 1   
    18    7   43 1   
    19    7   44 1   
    20    8   45 1   
    21    8   46 1   
    22    8   47 1   
    23    9   10 2   
    24    9   11 1   
    25   11   12 1   
    26   11   48 1   
    27   12   13 1   
    28   12   15 1   
    29   12   49 1   
    30   13   14 2   
    31   13   18 1   
    32   15   16 1   
    33   15   17 1   
    34   15   50 1   
    35   16   51 1   
    36   16   52 1   
    37   16   53 1   
    38   17   54 1   
    39   17   55 1   
    40   17   56 1   
    41   18   19 1   
    42   18   57 1   
    43   19   20 1   
    44   19   22 1   
    45   19   58 1   
    46   20   21 2   
    47   20   25 1   
    48   22   23 1   
    49   22   24 1   
    50   22   59 1   
    51   23   60 1   
    52   23   61 1   
    53   23   62 1   
    54   24   63 1   
    55   24   64 1   
    56   24   65 1   
    57   25   26 1   
    58   25   66 1   
    59   26   27 1   
    60   26   29 1   
    61   26   67 1   
    62   27   28 1   
    63   27   33 1   
    64   29   30 1   
    65   29   68 1   
    66   29   69 1   
    67   30   31 1   
    68   30   32 1   
@<TRIPOS>SUBSTRUCTURE
     1 ATI         1 TEMP              0 ****  ****    0 ROOT
