@<TRIPOS>MOLECULE
ATI
   69    68     1     0     0
SMALL
bcc


@<TRIPOS>ATOM
      1 N1         -0.1220   -0.5940    0.6400 n3        1 ATI     -0.900800
      2 C2          1.1480   -0.1450    0.1120 c3        1 ATI      0.145500
      3 C3          2.2320    0.1140    1.2010 c3        1 ATI      0.030100
      4 O4          2.4810   -1.0490    1.9670 oh        1 ATI     -0.599800
      5 C5          1.7490   -1.1190   -0.9110 c3        1 ATI     -0.062400
      6 C6          0.8940   -1.2950   -2.1560 c3        1 ATI     -0.068700
      7 C7          0.9400   -0.0640   -3.0380 c3        1 ATI     -0.089600
      8 C8          1.3680   -2.5080   -2.9320 c3        1 ATI     -0.089600
      9 C9          1.7410    1.2400    2.1250 c         1 ATI      0.625100
     10 O10         0.9350    0.9400    3.0380 o         1 ATI     -0.653100
     11 N11         2.2120    2.5000    1.9130 n         1 ATI     -0.524900
     12 C12         1.7490    3.6650    2.6330 c3        1 ATI      0.024700
     13 C13         1.7320    4.9040    1.6840 c         1 ATI      0.645100
     14 O14         2.5130    4.9430    0.7030 o         1 ATI     -0.658100
     15 C15         2.6140    4.0360    3.8610 c3        1 ATI     -0.076700
     16 C16         2.4180    3.0320    4.9750 c3        1 ATI     -0.092100
     17 C17         4.0770    4.1770    3.5060 c3        1 ATI     -0.092100
     18 N18         0.8610    5.8930    2.0090 n         1 ATI     -0.515900
     19 C19         0.7650    7.1670    1.3240 c3        1 ATI      0.020700
     20 C20        -0.7030    7.7040    1.4150 c         1 ATI      0.641100
     21 O21        -1.3990    7.3790    2.4110 o         1 ATI     -0.690100
     22 C22         1.6870    8.2650    1.8990 c3        1 ATI     -0.114700
     23 C23         1.5460    8.4020    3.3970 c3        1 ATI     -0.079100
     24 C24         3.1270    8.0120    1.5120 c3        1 ATI     -0.079100
     25 N25        -1.1300    8.4430    0.3580 n         1 ATI     -0.451900
     26 C26        -2.3010    9.3050    0.4110 c3        1 ATI     -0.021300
     27 C27        -3.3960    8.8680   -0.6230 c         1 ATI      0.915600
     28 O28        -3.0680    8.6220   -1.8170 o         1 ATI     -0.853800
     29 C29        -1.9470   10.7720    0.1230 c3        1 ATI     -0.193400
     30 C30        -0.6360   11.2670    0.7330 c         1 ATI      0.900600
     31 O31        -0.6650   12.1850    1.6050 o         1 ATI     -0.880300
     32 O32         0.4680   10.7800    0.3170 o         1 ATI     -0.880300
     33 O33        -4.5860    8.8120   -0.1980 o         1 ATI     -0.853800
     34 HN11       -0.0150   -1.4750    1.1050 hn        1 ATI      0.356800
     35 HN12       -0.4830    0.0780    1.2930 hn        1 ATI      0.356800
     36 H2          0.9600    0.8440   -0.4040 h1        1 ATI      0.080700
     37 H3          3.2180    0.3520    0.7160 h1        1 ATI      0.086700
     38 HO4         1.7780   -1.1210    2.6310 ho        1 ATI      0.420000
     39 H51         2.7580   -0.7300   -1.2110 hc        1 ATI      0.041200
     40 H52         1.9080   -2.1140   -0.4170 hc        1 ATI      0.041200
     41 H6         -0.1750   -1.4690   -1.8460 hc        1 ATI      0.071700
     42 H71         0.3330   -0.2300   -3.9610 hc        1 ATI      0.030867
     43 H72         1.9890    0.1660   -3.3420 hc        1 ATI      0.030867
     44 H73         0.5230    0.8210   -2.5000 hc        1 ATI      0.030867
     45 H81         1.2810   -3.4300   -2.3090 hc        1 ATI      0.030867
     46 H82         0.7500   -2.6430   -3.8530 hc        1 ATI      0.030867
     47 H83         2.4350   -2.3870   -3.2380 hc        1 ATI      0.030867
     48 H11         2.8220    2.6840    1.1450 hn        1 ATI      0.337500
     49 H12         0.7020    3.4440    3.0040 h1        1 ATI      0.091700
     50 H15         2.2400    5.0390    4.2200 hc        1 ATI      0.070700
     51 H161        2.7170    2.0070    4.6460 hc        1 ATI      0.036367
     52 H162        1.3450    2.9960    5.2820 hc        1 ATI      0.036367
     53 H163        3.0360    3.3180    5.8600 hc        1 ATI      0.036367
     54 H171        4.5400    3.1810    3.3050 hc        1 ATI      0.036367
     55 H172        4.1920    4.8160    2.5940 hc        1 ATI      0.036367
     56 H173        4.6300    4.6540    4.3510 hc        1 ATI      0.036367
     57 H18         0.2370    5.7810    2.7800 hn        1 ATI      0.334500
     58 H19         1.0560    6.9950    0.2450 h1        1 ATI      0.085700
     59 H22         1.3510    9.2450    1.4190 hc        1 ATI      0.163700
     60 H231        2.0290    7.5480    3.9340 hc        1 ATI      0.024867
     61 H232        0.4630    8.4350    3.6760 hc        1 ATI      0.024867
     62 H233        2.0310    9.3480    3.7380 hc        1 ATI      0.024867
     63 H241        3.7780    8.8200    1.9260 hc        1 ATI      0.024867
     64 H242        3.2330    8.0050    0.4010 hc        1 ATI      0.024867
     65 H243        3.4850    7.0280    1.9030 hc        1 ATI      0.024867
     66 H25        -0.4330    8.7680   -0.2860 hn        1 ATI      0.330500
     67 H26        -2.7540    9.2230    1.4410 h1        1 ATI      0.064700
     68 H291       -2.7920   11.4000    0.5020 hc        1 ATI      0.043200
     69 H292       -1.8750   10.9090   -0.9880 hc        1 ATI      0.043200
@<TRIPOS>BOND
     1    1    2 1   
     2    1   34 1   
     3    1   35 1   
     4    2    3 1   
     5    2    5 1   
     6    2   36 1   
     7    3    4 1   
     8    3    9 1   
     9    3   37 1   
    10    4   38 1   
    11    5    6 1   
    12    5   39 1   
    13    5   40 1   
    14    6    7 1   
    15    6    8 1   
    16    6   41 1   
    17    7   42 1   
    18    7   43 1   
    19    7   44 1   
    20    8   45 1   
    21    8   46 1   
    22    8   47 1   
    23    9   10 2   
    24    9   11 1   
    25   11   12 1   
    26   11   48 1   
    27   12   13 1   
    28   12   15 1   
    29   12   49 1   
    30   13   14 2   
    31   13   18 1   
    32   15   16 1   
    33   15   17 1   
    34   15   50 1   
    35   16   51 1   
    36   16   52 1   
    37   16   53 1   
    38   17   54 1   
    39   17   55 1   
    40   17   56 1   
    41   18   19 1   
    42   18   57 1   
    43   19   20 1   
    44   19   22 1   
    45   19   58 1   
    46   20   21 2   
    47   20   25 1   
    48   22   23 1   
    49   22   24 1   
    50   22   59 1   
    51   23   60 1   
    52   23   61 1   
    53   23   62 1   
    54   24   63 1   
    55   24   64 1   
    56   24   65 1   
    57   25   26 1   
    58   25   66 1   
    59   26   27 1   
    60   26   29 1   
    61   26   67 1   
    62   27   28 1   
    63   27   33 1   
    64   29   30 1   
    65   29   68 1   
    66   29   69 1   
    67   30   31 1   
    68   30   32 1   
@<TRIPOS>SUBSTRUCTURE
     1 ATI         1 TEMP              0 ****  ****    0 ROOT
