@<TRIPOS>MOLECULE
ATJ
   12    11     1     0     0
SMALL
bcc


@<TRIPOS>ATOM
      1 P           0.0450   -0.0020   -0.0170 p5        1 ATJ      1.343800
      2 OA1         1.4690   -0.0330    0.3690 o         1 ATJ     -0.850500
      3 O1         -1.0780   -0.0720    0.9460 o         1 ATJ     -0.850500
      4 O2B        -0.1840    1.3810   -0.9100 os        1 ATJ     -0.576200
      5 C2B        -1.5330    1.6600   -1.1240 c3        1 ATJ      0.174400
      6 C1B        -1.6720    2.9430   -1.9140 c3        1 ATJ     -0.091100
      7 H2B1       -2.0550    1.7410   -0.1290 h1        1 ATJ      0.018200
      8 H2B2       -1.9940    0.8000   -1.6880 h1        1 ATJ      0.018200
      9 H1B1       -2.7510    3.1680   -2.0890 hc        1 ATJ      0.020033
     10 H1B2       -1.2080    3.7900   -1.3550 hc        1 ATJ      0.020033
     11 H1B3       -1.1550    2.8520   -2.8980 hc        1 ATJ      0.020033
     12 HP1        -0.1810   -0.8820   -0.9910 hp        1 ATJ     -0.246400
@<TRIPOS>BOND
     1    1    2 1   
     2    1    3 1   
     3    1    4 1   
     4    1   12 1   
     5    4    5 1   
     6    5    6 1   
     7    5    7 1   
     8    5    8 1   
     9    6    9 1   
    10    6   10 1   
    11    6   11 1   
@<TRIPOS>SUBSTRUCTURE
     1 ATJ         1 TEMP              0 ****  ****    0 ROOT
