@<TRIPOS>MOLECULE
ATJ
   12    11     1     0     0
SMALL
bcc


@<TRIPOS>ATOM
      1 P           0.0560   -0.0080   -0.0390 p5        1 ATJ      1.343800
      2 OA1         1.4910   -0.0530    0.3030 o         1 ATJ     -0.850500
      3 O1         -1.0360   -0.0570    0.9580 o         1 ATJ     -0.850500
      4 O2B        -0.1830    1.3720   -0.9350 os        1 ATJ     -0.576200
      5 C2B        -1.5350    1.6650   -1.1100 c3        1 ATJ      0.174400
      6 C1B        -1.6830    2.9450   -1.9050 c3        1 ATJ     -0.091100
      7 H2B1       -2.0250    1.7580   -0.1010 h1        1 ATJ      0.018200
      8 H2B2       -2.0220    0.8070   -1.6550 h1        1 ATJ      0.018200
      9 H1B1       -2.7640    3.1800   -2.0490 hc        1 ATJ      0.020033
     10 H1B2       -1.1930    3.7900   -1.3660 hc        1 ATJ      0.020033
     11 H1B3       -1.1950    2.8410   -2.9030 hc        1 ATJ      0.020033
     12 HP1        -0.2100   -0.8910   -0.9990 hp        1 ATJ     -0.246400
@<TRIPOS>BOND
     1    1    2 1   
     2    1    3 1   
     3    1    4 1   
     4    1   12 1   
     5    4    5 1   
     6    5    6 1   
     7    5    7 1   
     8    5    8 1   
     9    6    9 1   
    10    6   10 1   
    11    6   11 1   
@<TRIPOS>SUBSTRUCTURE
     1 ATJ         1 TEMP              0 ****  ****    0 ROOT
