@<TRIPOS>MOLECULE
ATJ
   12    10     1     0     0
SMALL
bcc


@<TRIPOS>ATOM
      1 P           0.8770    1.1840    1.3830 p4        1 ATJ      1.707100
      2 OA1         2.2950    0.9710    1.8940 os        1 ATJ     -1.171000
      3 O1         -0.0380    1.5220    2.5500 o         1 ATJ     -0.909300
      4 O2B         0.3570   -0.1630    0.6650 os        1 ATJ     -0.587200
      5 C2B        -0.2590   -0.0530   -0.6290 c3        1 ATJ      0.192400
      6 C1B        -0.7890   -1.4060   -1.0560 c3        1 ATJ     -0.117100
      7 H2B1       -1.0080    0.5970   -0.5840 h1        1 ATJ      0.017200
      8 H2B2        0.4020    0.2560   -1.2790 h1        1 ATJ      0.017200
      9 H1B1       -0.0460   -2.0470   -1.1130 hc        1 ATJ      0.023700
     10 H1B2       -1.4380   -1.7190   -0.4060 hc        1 ATJ      0.023700
     11 H1B3       -1.2190   -1.3250   -1.9350 hc        1 ATJ      0.023700
     12 HP1         0.8670    2.1840    0.5090 hp        1 ATJ     -0.219400
@<TRIPOS>BOND
     1    1    3 2   
     2    1    4 1   
     3    1   12 1   
     4    4    5 1   
     5    5    6 1   
     6    5    7 1   
     7    5    8 1   
     8    6    9 1   
     9    6   10 1   
    10    6   11 1   
@<TRIPOS>SUBSTRUCTURE
     1 ATJ         1 TEMP              0 ****  ****    0 ROOT
