@<TRIPOS>MOLECULE
ATJ
   12    11     1     0     0
SMALL
bcc


@<TRIPOS>ATOM
      1 P           1.9010   -4.9460   -0.3030 p5        1 ATJ      1.343800
      2 OA1         0.4560   -5.2500   -0.2870 o         1 ATJ     -0.850500
      3 O1          2.8250   -5.3660   -1.3810 o         1 ATJ     -0.850500
      4 O2B         2.0490   -3.2960   -0.1690 os        1 ATJ     -0.576200
      5 C2B         3.3470   -2.8560   -0.4240 c3        1 ATJ      0.174400
      6 C1B         3.4080   -1.3470   -0.3150 c3        1 ATJ     -0.091100
      7 H2B1        4.0420   -3.3310    0.3260 h1        1 ATJ      0.018200
      8 H2B2        3.6580   -3.1990   -1.4510 h1        1 ATJ      0.018200
      9 H1B1        4.4460   -0.9930   -0.5160 hc        1 ATJ      0.020033
     10 H1B2        2.7130   -0.8820   -1.0530 hc        1 ATJ      0.020033
     11 H1B3        3.1010   -1.0190    0.7060 hc        1 ATJ      0.020033
     12 HP1         2.4450   -5.2690    0.8680 hp        1 ATJ     -0.246400
@<TRIPOS>BOND
     1    1    2 1   
     2    1    3 1   
     3    1    4 1   
     4    1   12 1   
     5    4    5 1   
     6    5    6 1   
     7    5    7 1   
     8    5    8 1   
     9    6    9 1   
    10    6   10 1   
    11    6   11 1   
@<TRIPOS>SUBSTRUCTURE
     1 ATJ         1 TEMP              0 ****  ****    0 ROOT
