@<TRIPOS>MOLECULE
ATK
   52    56     1     0     0
SMALL
bcc


@<TRIPOS>ATOM
      1 N1          0.0230   -0.5700   -0.7460 nb        1 ATK     -0.602000
      2 N4          1.1000    0.1180    1.7730 nb        1 ATK     -0.710000
      3 C11         1.3500   -0.4440   -0.5800 ca        1 ATK      0.277900
      4 C12         1.9030   -0.0910    0.6980 ca        1 ATK      0.437500
      5 N13         3.3050    0.0530    0.9040 na        1 ATK      0.057100
      6 C14        -0.2450   -0.0330    1.6030 ca        1 ATK      0.434500
      7 C15        -0.7780   -0.3710    0.3140 ca        1 ATK      0.266900
      8 N15        -1.0790    0.1270    2.7370 na        1 ATK     -0.123900
      9 C17         3.9250    0.4990    2.1060 ca        1 ATK     -0.016200
     10 C18         5.3000    0.7760    1.7620 ca        1 ATK     -0.203900
     11 N20         4.1880    0.0830   -0.1290 nc        1 ATK     -0.484100
     12 C28         5.3810    0.4790    0.3360 cd        1 ATK      0.369800
     13 C35        -0.4910    0.0920    4.0350 cc        1 ATK     -0.121300
     14 C36        -1.1160    1.0200    4.8530 cd        1 ATK     -0.117300
     15 C37        -2.1370    1.6780    4.0520 cd        1 ATK     -0.150000
     16 C38        -2.0640    1.1590    2.7700 cc        1 ATK     -0.168300
     17 C44         6.1890    1.2240    2.7310 ca        1 ATK     -0.057000
     18 N44         3.8850    1.3290    5.7270 n4        1 ATK     -0.694400
     19 C45         5.7330    1.4090    4.0290 ca        1 ATK     -0.154000
     20 C46         4.3890    1.1300    4.3720 ca        1 ATK      0.020600
     21 C47         3.4700    0.6560    3.4210 ca        1 ATK     -0.080000
     22 C48         4.9040    1.2740    6.8170 c3        1 ATK      0.138500
     23 C57         4.2280    0.9360    8.1650 c3        1 ATK     -0.096900
     24 C58         3.9030    2.2770    8.8030 c3        1 ATK     -0.090900
     25 C59         4.9230    3.2740    8.2660 c3        1 ATK     -0.090900
     26 C60         5.6010    2.6290    7.0630 c3        1 ATK     -0.096900
     27 O61         1.4740    2.3690    6.5160 o         1 ATK     -0.862300
     28 O63         1.4450    0.1980    6.1840 o         1 ATK     -0.862300
     29 C66        -0.7080    1.3230    6.2340 c3        1 ATK     -0.090100
     30 C68         0.8110    1.3040    6.3290 c         1 ATK      0.911600
     31 H11         1.9820   -0.6230   -1.4670 h4        1 ATK      0.060100
     32 H15        -1.8640   -0.4830    0.1510 h4        1 ATK      0.050100
     33 H28         6.2620    0.5500   -0.3050 h4        1 ATK      0.066800
     34 H35         0.3170   -0.6030    4.2860 h4        1 ATK      0.202000
     35 H37        -2.8290    2.4340    4.4130 ha        1 ATK      0.157000
     36 H38        -2.6460    1.3890    1.8770 h4        1 ATK      0.165000
     37 H44         7.2380    1.4320    2.4740 ha        1 ATK      0.151000
     38 HN44        3.3630    2.2310    5.7870 hn        1 ATK      0.508300
     39 H45         6.4380    1.7790    4.7910 ha        1 ATK      0.147000
     40 H47         2.4290    0.4220    3.7220 ha        1 ATK      0.213000
     41 H48         5.6520    0.4800    6.5410 hx        1 ATK      0.081700
     42 H57         3.3050    0.3110    8.0460 hc        1 ATK      0.067450
     43 H57A        4.9620    0.3620    8.7840 hc        1 ATK      0.067450
     44 H58         2.8650    2.5880    8.5030 hc        1 ATK      0.063950
     45 H58A        3.9410    2.2130    9.9160 hc        1 ATK      0.063950
     46 H59         5.6830    3.5250    9.0470 hc        1 ATK      0.063950
     47 H59A        4.4180    4.2280    7.9710 hc        1 ATK      0.063950
     48 H60         6.6810    2.4330    7.2780 hc        1 ATK      0.067450
     49 H60A        5.5520    3.3030    6.1710 hc        1 ATK      0.067450
     50 H66        -1.1210    0.5570    6.9420 hc        1 ATK      0.063700
     51 H66A       -1.0870    2.3320    6.5410 hc        1 ATK      0.063700
     52 H442        3.1190    0.5950    5.9330 hn        1 ATK      0.508300
@<TRIPOS>BOND
     1    1    3 ar  
     2    1    7 ar  
     3    2    4 ar  
     4    2    6 ar  
     5    3    4 ar  
     6    3   31 1   
     7    4    5 1   
     8    5    9 1   
     9    5   11 1   
    10    6    7 ar  
    11    6    8 1   
    12    7   32 1   
    13    8   13 1   
    14    8   16 1   
    15    9   10 ar  
    16    9   21 ar  
    17   10   12 1   
    18   10   17 ar  
    19   11   12 2   
    20   12   33 1   
    21   13   14 2   
    22   13   34 1   
    23   14   15 1   
    24   14   29 1   
    25   15   16 2   
    26   15   35 1   
    27   16   36 1   
    28   17   19 ar  
    29   17   37 1   
    30   18   20 1   
    31   18   22 1   
    32   18   38 1   
    33   18   52 1   
    34   19   20 ar  
    35   19   39 1   
    36   20   21 ar  
    37   21   40 1   
    38   22   23 1   
    39   22   26 1   
    40   22   41 1   
    41   23   24 1   
    42   23   42 1   
    43   23   43 1   
    44   24   25 1   
    45   24   44 1   
    46   24   45 1   
    47   25   26 1   
    48   25   46 1   
    49   25   47 1   
    50   26   48 1   
    51   26   49 1   
    52   27   30 1   
    53   28   30 1   
    54   29   30 1   
    55   29   50 1   
    56   29   51 1   
@<TRIPOS>SUBSTRUCTURE
     1 ATK         1 TEMP              0 ****  ****    0 ROOT
