@<TRIPOS>MOLECULE
ATK
   51    55     1     0     0
SMALL
bcc


@<TRIPOS>ATOM
      1 N1          0.3170   -1.8400    0.5350 nb        1 ATK     -0.604000
      2 N4          1.4710    0.0350    2.3360 nb        1 ATK     -0.729000
      3 C11         1.6010   -1.4560    0.4060 ca        1 ATK      0.242900
      4 C12         2.1850   -0.5210    1.3170 ca        1 ATK      0.437500
      5 N13         3.5650   -0.1760    1.1770 na        1 ATK      0.049100
      6 C14         0.1680   -0.3650    2.4660 ca        1 ATK      0.463500
      7 C15        -0.3980   -1.3230    1.5370 ca        1 ATK      0.248900
      8 N15        -0.6080    0.1670    3.4910 na        1 ATK     -0.132900
      9 C17         4.3660    0.4470    2.1760 ca        1 ATK      0.016800
     10 C18         5.5160    0.9840    1.4870 ca        1 ATK     -0.259900
     11 N20         4.1080    0.0230   -0.0580 nc        1 ATK     -0.510100
     12 C28         5.2720    0.6690    0.0840 cd        1 ATK      0.369800
     13 C35        -1.9360   -0.2130    3.8050 cc        1 ATK     -0.130300
     14 C36        -2.3560    0.5200    4.9110 cd        1 ATK     -0.078300
     15 C37        -1.2530    1.3820    5.2990 cd        1 ATK     -0.189000
     16 C38        -0.2010    1.1480    4.4250 cc        1 ATK     -0.164300
     17 C44         6.5210    1.6110    2.2090 ca        1 ATK     -0.043000
     18 N44         5.2250    1.1650    5.6860 nu        1 ATK     -0.717600
     19 C45         6.4030    1.7100    3.5860 ca        1 ATK     -0.203000
     20 C46         5.2850    1.1670    4.2820 ca        1 ATK      0.170600
     21 C47         4.2480    0.5300    3.5620 ca        1 ATK     -0.182000
     22 C48         5.8480    2.2390    6.4290 c3        1 ATK      0.195500
     23 C57         5.7040    2.0640    7.9580 c3        1 ATK     -0.097400
     24 C58         5.7790    3.4620    8.5530 c3        1 ATK     -0.078900
     25 C59         5.5230    4.4580    7.4280 c3        1 ATK     -0.078900
     26 C60         5.3270    3.6660    6.1460 c3        1 ATK     -0.097400
     27 O61        -4.3530   -1.4850    4.2510 o         1 ATK     -0.845800
     28 O63        -5.0590   -1.3300    6.3620 o         1 ATK     -0.845800
     29 C66        -3.6700    0.4480    5.5560 c3        1 ATK     -0.145100
     30 C68        -4.4050   -0.8980    5.3720 c         1 ATK      0.917600
     31 H11         2.1700   -1.8940   -0.4300 h4        1 ATK      0.045100
     32 H15        -1.4460   -1.6610    1.6300 h4        1 ATK      0.064100
     33 H28         5.9190    0.8990   -0.7640 h4        1 ATK      0.048800
     34 H35        -2.5040   -0.9840    3.2690 h4        1 ATK      0.228000
     35 H37        -1.2630    2.0780    6.1320 ha        1 ATK      0.142000
     36 H38         0.7920    1.5930    4.3780 h4        1 ATK      0.162000
     37 H44         7.4010    2.0250    1.6950 ha        1 ATK      0.130000
     38 HN44        4.3130    0.9370    6.0320 hn        1 ATK      0.399800
     39 H45         7.2020    2.2170    4.1480 ha        1 ATK      0.131000
     40 H47         3.3730    0.1120    4.0820 ha        1 ATK      0.166000
     41 H48         6.9510    2.2130    6.1850 h1        1 ATK      0.057700
     42 H57         4.7270    1.5860    8.2240 hc        1 ATK      0.051200
     43 H57A        6.5170    1.4070    8.3500 hc        1 ATK      0.051200
     44 H58         6.7870    3.6390    9.0050 hc        1 ATK      0.040700
     45 H58A        5.0240    3.5810    9.3690 hc        1 ATK      0.040700
     46 H59         4.6180    5.0790    7.6470 hc        1 ATK      0.040700
     47 H59A        6.3890    5.1600    7.3270 hc        1 ATK      0.040700
     48 H60         4.2440    3.6470    5.8640 hc        1 ATK      0.051200
     49 H60A        5.8890    4.1200    5.2930 hc        1 ATK      0.051200
     50 H66        -3.5650    0.6510    6.6530 hc        1 ATK      0.039200
     51 H66A       -4.3370    1.2420    5.1240 hc        1 ATK      0.039200
@<TRIPOS>BOND
     1    1    3 ar  
     2    1    7 ar  
     3    2    4 ar  
     4    2    6 ar  
     5    3    4 ar  
     6    3   31 1   
     7    4    5 1   
     8    5    9 1   
     9    5   11 1   
    10    6    7 ar  
    11    6    8 1   
    12    7   32 1   
    13    8   13 1   
    14    8   16 1   
    15    9   10 ar  
    16    9   21 ar  
    17   10   12 1   
    18   10   17 ar  
    19   11   12 2   
    20   12   33 1   
    21   13   14 2   
    22   13   34 1   
    23   14   15 1   
    24   14   29 1   
    25   15   16 2   
    26   15   35 1   
    27   16   36 1   
    28   17   19 ar  
    29   17   37 1   
    30   18   20 1   
    31   18   22 1   
    32   18   38 1   
    33   19   20 ar  
    34   19   39 1   
    35   20   21 ar  
    36   21   40 1   
    37   22   23 1   
    38   22   26 1   
    39   22   41 1   
    40   23   24 1   
    41   23   42 1   
    42   23   43 1   
    43   24   25 1   
    44   24   44 1   
    45   24   45 1   
    46   25   26 1   
    47   25   46 1   
    48   25   47 1   
    49   26   48 1   
    50   26   49 1   
    51   27   30 1   
    52   28   30 1   
    53   29   30 1   
    54   29   50 1   
    55   29   51 1   
@<TRIPOS>SUBSTRUCTURE
     1 ATK         1 TEMP              0 ****  ****    0 ROOT
