@<TRIPOS>MOLECULE
ATK
   51    55     1     0     0
SMALL
bcc


@<TRIPOS>ATOM
      1 N1          0.3070   -1.8130    0.5200 nb        1 ATK     -0.604000
      2 N4          1.4590    0.0460    2.3400 nb        1 ATK     -0.729000
      3 C11         1.5910   -1.4250    0.3940 ca        1 ATK      0.242900
      4 C12         2.1730   -0.4980    1.3140 ca        1 ATK      0.437500
      5 N13         3.5520   -0.1480    1.1780 na        1 ATK      0.049100
      6 C14         0.1560   -0.3580    2.4660 ca        1 ATK      0.463500
      7 C15        -0.4080   -1.3080    1.5280 ca        1 ATK      0.248900
      8 N15        -0.6200    0.1610    3.4970 na        1 ATK     -0.132900
      9 C17         4.3520    0.4650    2.1830 ca        1 ATK      0.016800
     10 C18         5.5010    1.0110    1.4980 ca        1 ATK     -0.259900
     11 N20         4.0940    0.0640   -0.0560 nc        1 ATK     -0.510100
     12 C28         5.2570    0.7110    0.0920 cd        1 ATK      0.369800
     13 C35        -1.9470   -0.2250    3.8080 cc        1 ATK     -0.130300
     14 C36        -2.3690    0.4960    4.9210 cd        1 ATK     -0.078300
     15 C37        -1.2670    1.3570    5.3180 cd        1 ATK     -0.189000
     16 C38        -0.2150    1.1340    4.4410 cc        1 ATK     -0.164300
     17 C44         6.5050    1.6330    2.2260 ca        1 ATK     -0.043000
     18 N44         5.2130    1.1470    5.6990 nh        1 ATK     -0.718600
     19 C45         6.3880    1.7170    3.6040 ca        1 ATK     -0.203000
     20 C46         5.2720    1.1640    4.2950 ca        1 ATK      0.170600
     21 C47         4.2350    0.5330    3.5690 ca        1 ATK     -0.182000
     22 C48         5.8350    2.2130    6.4540 c3        1 ATK      0.195500
     23 C57         5.6940    2.0210    7.9810 c3        1 ATK     -0.097400
     24 C58         5.7690    3.4110    8.5910 c3        1 ATK     -0.078900
     25 C59         5.5100    4.4200    7.4790 c3        1 ATK     -0.078900
     26 C60         5.3140    3.6430    6.1880 c3        1 ATK     -0.097400
     27 O61        -4.3610   -1.5060    4.2430 o         1 ATK     -0.845800
     28 O63        -5.0660   -1.3740    6.3560 o         1 ATK     -0.845800
     29 C66        -3.6820    0.4150    5.5660 c3        1 ATK     -0.145100
     30 C68        -4.4140   -0.9310    5.3700 c         1 ATK      0.917600
     31 H11         2.1590   -1.8530   -0.4470 h4        1 ATK      0.045100
     32 H15        -1.4560   -1.6490    1.6180 h4        1 ATK      0.064100
     33 H28         5.9020    0.9510   -0.7530 h4        1 ATK      0.048800
     34 H35        -2.5130   -0.9920    3.2650 h4        1 ATK      0.228000
     35 H37        -1.2780    2.0440    6.1580 ha        1 ATK      0.142000
     36 H38         0.7770    1.5820    4.3980 h4        1 ATK      0.162000
     37 H44         7.3840    2.0530    1.7160 ha        1 ATK      0.130000
     38 HN44        4.3010    0.9150    6.0440 hn        1 ATK      0.399800
     39 H45         7.1860    2.2190    4.1710 ha        1 ATK      0.131000
     40 H47         3.3620    0.1080    4.0850 ha        1 ATK      0.166000
     41 H48         6.9380    2.1910    6.2080 h1        1 ATK      0.057700
     42 H57         6.5080    1.3590    8.3640 hc        1 ATK      0.051200
     43 H57A        4.7170    1.5390    8.2420 hc        1 ATK      0.051200
     44 H58         6.7790    3.5840    9.0420 hc        1 ATK      0.040700
     45 H58A        5.0160    3.5210    9.4110 hc        1 ATK      0.040700
     46 H59         4.6040    5.0370    7.7060 hc        1 ATK      0.040700
     47 H59A        6.3750    5.1240    7.3840 hc        1 ATK      0.040700
     48 H60         4.2310    3.6260    5.9070 hc        1 ATK      0.051200
     49 H60A        5.8740    4.1070    5.3400 hc        1 ATK      0.051200
     50 H66        -4.3500    1.2120    5.1430 hc        1 ATK      0.039200
     51 H66A       -3.5760    0.6080    6.6660 hc        1 ATK      0.039200
@<TRIPOS>BOND
     1    1    3 ar  
     2    1    7 ar  
     3    2    4 ar  
     4    2    6 ar  
     5    3    4 ar  
     6    3   31 1   
     7    4    5 1   
     8    5    9 1   
     9    5   11 1   
    10    6    7 ar  
    11    6    8 1   
    12    7   32 1   
    13    8   13 1   
    14    8   16 1   
    15    9   10 ar  
    16    9   21 ar  
    17   10   12 1   
    18   10   17 ar  
    19   11   12 2   
    20   12   33 1   
    21   13   14 2   
    22   13   34 1   
    23   14   15 1   
    24   14   29 1   
    25   15   16 2   
    26   15   35 1   
    27   16   36 1   
    28   17   19 ar  
    29   17   37 1   
    30   18   20 1   
    31   18   22 1   
    32   18   38 1   
    33   19   20 ar  
    34   19   39 1   
    35   20   21 ar  
    36   21   40 1   
    37   22   23 1   
    38   22   26 1   
    39   22   41 1   
    40   23   24 1   
    41   23   42 1   
    42   23   43 1   
    43   24   25 1   
    44   24   44 1   
    45   24   45 1   
    46   25   26 1   
    47   25   46 1   
    48   25   47 1   
    49   26   48 1   
    50   26   49 1   
    51   27   30 1   
    52   28   30 1   
    53   29   30 1   
    54   29   50 1   
    55   29   51 1   
@<TRIPOS>SUBSTRUCTURE
     1 ATK         1 TEMP              0 ****  ****    0 ROOT
