@<TRIPOS>MOLECULE
ATK
   51    55     1     0     0
SMALL
bcc


@<TRIPOS>ATOM
      1 N1          2.3220   -3.7200   -0.6310 nb        1 ATK     -0.604000
      2 N4          0.6130   -1.5760    0.1290 nb        1 ATK     -0.729000
      3 C11         0.9830   -3.8630   -0.6470 ca        1 ATK      0.242900
      4 C12         0.1230   -2.7830   -0.2740 ca        1 ATK      0.437500
      5 N13        -1.2940   -2.9570   -0.3510 na        1 ATK      0.049100
      6 C14         1.9760   -1.4350    0.1350 ca        1 ATK      0.463500
      7 C15         2.8260   -2.5410   -0.2580 ca        1 ATK      0.248900
      8 N15         2.5320   -0.2240    0.5340 na        1 ATK     -0.132900
      9 C17        -2.2560   -1.9080   -0.3540 ca        1 ATK      0.016800
     10 C18        -3.5170   -2.5240   -0.0150 ca        1 ATK     -0.259900
     11 N20        -1.8700   -4.1280    0.0440 nc        1 ATK     -0.510100
     12 C28        -3.1820   -3.9240    0.2170 cd        1 ATK      0.369800
     13 C35         3.9100    0.1010    0.5090 cc        1 ATK     -0.130300
     14 C36         4.0650    1.4110    0.9530 cd        1 ATK     -0.078300
     15 C37         2.7390    1.9190    1.2610 cd        1 ATK     -0.189000
     16 C38         1.8230    0.9100    0.9950 cc        1 ATK     -0.164300
     17 C44        -4.6740   -1.7580    0.0090 ca        1 ATK     -0.043000
     18 N44        -3.3090    1.5480   -1.0750 nh        1 ATK     -0.717600
     19 C45        -4.5970   -0.4080   -0.2960 ca        1 ATK     -0.203000
     20 C46        -3.3640    0.2080   -0.6530 ca        1 ATK      0.170600
     21 C47        -2.1740   -0.5550   -0.6760 ca        1 ATK     -0.182000
     22 C48        -4.2500    2.5060   -0.5380 c3        1 ATK      0.195500
     23 C57        -4.0600    3.9220   -1.1290 c3        1 ATK     -0.097400
     24 C58        -4.5910    4.8910   -0.0840 c3        1 ATK     -0.078900
     25 C59        -4.6750    4.1440    1.2420 c3        1 ATK     -0.078900
     26 C60        -4.2280    2.7120    0.9930 c3        1 ATK     -0.097400
     27 O61         6.6110    0.4010   -0.0170 o         1 ATK     -0.845800
     28 O63         7.2240    2.5250   -0.3170 o         1 ATK     -0.845800
     29 C66         5.3280    2.1390    1.0960 c3        1 ATK     -0.145100
     30 C68         6.4660    1.6440    0.1750 c         1 ATK      0.917600
     31 H11         0.5920   -4.8450   -0.9560 h4        1 ATK      0.045100
     32 H15         3.9270   -2.4430   -0.2640 h4        1 ATK      0.064100
     33 H28        -3.8670   -4.7290    0.4870 h4        1 ATK      0.048800
     34 H35         4.7010   -0.5770    0.1620 h4        1 ATK      0.228000
     35 H37         2.5180    2.9160    1.6280 ha        1 ATK      0.142000
     36 H38         0.7400    0.8940    1.1010 h4        1 ATK      0.162000
     37 H44        -5.6400   -2.2160    0.2660 ha        1 ATK      0.130000
     38 HN44       -2.3730    1.9050   -1.1040 hn        1 ATK      0.399800
     39 H45        -5.5190    0.1910   -0.2660 ha        1 ATK      0.131000
     40 H47        -1.2110   -0.0930   -0.9420 ha        1 ATK      0.166000
     41 H48        -5.2840    2.1520   -0.8290 h1        1 ATK      0.057700
     42 H57        -2.9800    4.1340   -1.3360 hc        1 ATK      0.051200
     43 H57A       -4.6130    4.0150   -2.0940 hc        1 ATK      0.051200
     44 H58        -3.9180    5.7800    0.0030 hc        1 ATK      0.040700
     45 H58A       -5.6020    5.2670   -0.3810 hc        1 ATK      0.040700
     46 H59        -4.0250    4.6290    2.0120 hc        1 ATK      0.040700
     47 H59A       -5.7230    4.1640    1.6330 hc        1 ATK      0.040700
     48 H60        -4.9060    1.9780    1.4920 hc        1 ATK      0.051200
     49 H60A       -3.1980    2.5520    1.4010 hc        1 ATK      0.051200
     50 H66         5.1600    3.2300    0.9030 hc        1 ATK      0.039200
     51 H66A        5.6970    2.0320    2.1520 hc        1 ATK      0.039200
@<TRIPOS>BOND
     1    1    3 ar  
     2    1    7 ar  
     3    2    4 ar  
     4    2    6 ar  
     5    3    4 ar  
     6    3   31 1   
     7    4    5 1   
     8    5    9 1   
     9    5   11 1   
    10    6    7 ar  
    11    6    8 1   
    12    7   32 1   
    13    8   13 1   
    14    8   16 1   
    15    9   10 ar  
    16    9   21 ar  
    17   10   12 1   
    18   10   17 ar  
    19   11   12 2   
    20   12   33 1   
    21   13   14 2   
    22   13   34 1   
    23   14   15 1   
    24   14   29 1   
    25   15   16 2   
    26   15   35 1   
    27   16   36 1   
    28   17   19 ar  
    29   17   37 1   
    30   18   20 1   
    31   18   22 1   
    32   18   38 1   
    33   19   20 ar  
    34   19   39 1   
    35   20   21 ar  
    36   21   40 1   
    37   22   23 1   
    38   22   26 1   
    39   22   41 1   
    40   23   24 1   
    41   23   42 1   
    42   23   43 1   
    43   24   25 1   
    44   24   44 1   
    45   24   45 1   
    46   25   26 1   
    47   25   46 1   
    48   25   47 1   
    49   26   48 1   
    50   26   49 1   
    51   27   30 1   
    52   28   30 1   
    53   29   30 1   
    54   29   50 1   
    55   29   51 1   
@<TRIPOS>SUBSTRUCTURE
     1 ATK         1 TEMP              0 ****  ****    0 ROOT
