@<TRIPOS>MOLECULE
ATK
   51    41     1     0     0
SMALL
bcc


@<TRIPOS>ATOM
      1 N1         -2.8740    1.3400   -2.1920 n1        1 ATK     -0.081000
      2 N4         -1.4690   -1.0000   -2.0850 n1        1 ATK     -0.167000
      3 C11        -1.5290    1.3650   -2.1390 c1        1 ATK     -0.176000
      4 C12        -0.8160    0.1770   -2.0840 c1        1 ATK      0.102000
      5 N13         0.5270    0.2020   -1.9720 n2        1 ATK     -0.108000
      6 C14        -2.8140   -1.0240   -2.1380 c1        1 ATK      0.136000
      7 C15        -3.5270    0.1630   -2.1930 c1        1 ATK     -0.146000
      8 N15        -3.4780   -2.2230   -2.1540 n2        1 ATK     -0.118000
      9 C17         1.6050    0.5360   -1.1880 c1        1 ATK      0.039000
     10 C18         2.7380    0.1900   -1.8610 c1        1 ATK     -0.164000
     11 N20         1.0040   -0.3530   -3.1370 n2        1 ATK     -0.008000
     12 C28         2.3620   -0.3620   -3.0740 c1        1 ATK     -0.141000
     13 C35        -4.2690   -2.7820   -1.1820 c1        1 ATK     -0.120500
     14 C36        -4.8050   -3.9550   -1.6890 c1        1 ATK     -0.130000
     15 C37        -4.3430   -4.1110   -2.9630 c1        1 ATK     -0.130000
     16 C38        -3.5180   -3.0360   -3.2540 c1        1 ATK     -0.120500
     17 C44         3.9990    0.4570   -1.2990 c1        1 ATK     -0.122500
     18 N44         2.6780    1.9690    1.9270 n3        1 ATK     -0.276000
     19 C45         4.0900    1.0720   -0.0580 c1        1 ATK     -0.122500
     20 C46         2.9390    1.4230    0.6260 c1        1 ATK      0.096000
     21 C47         1.6960    1.1600    0.0730 c1        1 ATK     -0.204000
     22 C48         3.6840    2.2320    2.7500 c3        1 ATK     -0.001000
     23 C57         3.3430    1.7470    4.1980 c3        1 ATK     -0.176000
     24 C58         3.6350    2.8020    5.0020 c3        1 ATK     -0.157500
     25 C59         3.4650    4.1360    4.0830 c3        1 ATK     -0.157500
     26 C60         3.9090    3.8090    2.8640 c3        1 ATK     -0.176000
     27 O61        -7.6730   -5.1790   -2.1870 o         1 ATK     -0.582000
     28 O63        -7.7920   -4.0580   -0.3190 o         1 ATK     -0.582000
     29 C66        -5.6430   -4.9770   -0.9020 c2        1 ATK     -0.180000
     30 C68        -7.1200   -4.7210   -1.1510 c2        1 ATK      0.337000
     31 H11        -1.0590    2.2170   -2.0790 ha        1 ATK      0.170000
     32 H15        -4.4920    0.1440   -2.3000 ha        1 ATK      0.203000
     33 H28         2.8320   -0.7970   -3.8150 DU        1 ATK      0.179750
     34 H35        -4.4270   -2.4170   -0.2890 DU        1 ATK      0.179750
     35 H37        -4.5580   -4.8550   -3.5680 DU        1 ATK      0.179750
     36 H38        -3.0490   -2.8820   -4.1020 DU        1 ATK      0.179750
     37 H44         4.8070    0.2110   -1.7790 ha        1 ATK      0.131500
     38 HN44        1.8160    2.0920    2.2060 hn        1 ATK      0.192000
     39 H45         4.9610    1.2880    0.3150 ha        1 ATK      0.131500
     40 H47         0.8920    1.3460    0.5790 ha        1 ATK      0.150000
     41 H48         4.5030    1.7970    2.4330 h1        1 ATK      0.102000
     42 H57         3.8960    0.9720    4.4370 hc        1 ATK      0.089250
     43 H57A        2.3880    1.5210    4.2660 hc        1 ATK      0.089250
     44 H58         3.0110    2.8320    5.7600 hc        1 ATK      0.080250
     45 H58A        4.5570    2.7320    5.3270 hc        1 ATK      0.080250
     46 H59         4.0030    4.8720    4.4520 hc        1 ATK      0.080250
     47 H59A        2.5200    4.3980    4.0390 hc        1 ATK      0.080250
     48 H60         4.8660    4.0240    2.7800 hc        1 ATK      0.089250
     49 H60A        3.3910    4.2780    2.1750 hc        1 ATK      0.089250
     50 H66        -5.4130   -5.8840   -1.1970 ha        1 ATK      0.079000
     51 H66A       -5.4520   -4.8880    0.0560 ha        1 ATK      0.079000
@<TRIPOS>BOND
     1    1    7 1   
     2    2    6 1   
     3    3    4 1   
     4    3   31 1   
     5    5    9 1   
     6    5   11 1   
     7    7   32 1   
     8    8   13 1   
     9    8   16 1   
    10    9   10 1   
    11   11   12 1   
    12   13   14 1   
    13   14   15 1   
    14   15   16 1   
    15   17   19 1   
    16   17   37 1   
    17   18   20 1   
    18   18   22 1   
    19   18   38 1   
    20   19   39 1   
    21   20   21 1   
    22   21   40 1   
    23   22   23 1   
    24   22   26 1   
    25   22   41 1   
    26   23   24 1   
    27   23   42 1   
    28   23   43 1   
    29   24   25 1   
    30   24   44 1   
    31   24   45 1   
    32   25   26 1   
    33   25   46 1   
    34   25   47 1   
    35   26   48 1   
    36   26   49 1   
    37   27   30 1   
    38   28   30 1   
    39   29   30 1   
    40   29   50 1   
    41   29   51 1   
@<TRIPOS>SUBSTRUCTURE
     1 ATK         1 TEMP              0 ****  ****    0 ROOT
