@<TRIPOS>MOLECULE
ATL
   36    38     1     0     0
SMALL
bcc


@<TRIPOS>ATOM
      1 OP1        -1.0770    1.5340   -3.5580 o         1 ATL     -0.920167
      2 P          -0.2090    0.6110   -4.3960 p5        1 ATL      1.330900
      3 OP2         0.9830    1.2240   -5.0560 o         1 ATL     -0.920167
      4 O5'         0.4760   -0.2890   -3.0600 os        1 ATL     -0.556200
      5 C5'        -0.4580   -0.9770   -2.3410 c3        1 ATL      0.252400
      6 C4'        -0.8110   -0.2690   -1.0270 c3        1 ATL      0.065800
      7 O4'        -0.4780   -1.1290    0.1230 os        1 ATL     -0.435600
      8 C3'        -2.3130    0.0730   -0.7130 c3        1 ATL      0.143100
      9 O3'        -2.9720    0.9760   -1.5270 oh        1 ATL     -0.642800
     10 C2'        -1.9150    0.6700    0.6960 c3        1 ATL      0.060100
     11 O2'        -0.8910    1.6250    0.3970 os        1 ATL     -0.444600
     12 C1'        -1.2000   -0.6140    1.2600 c3        1 ATL      0.252500
     13 C6'        -0.1710    1.1100   -0.7670 c3        1 ATL      0.076400
     14 N1         -0.2900   -0.3970    2.3930 n         1 ATL     -0.343000
     15 C2         -0.7850   -0.5970    3.7010 c         1 ATL      0.802500
     16 O2         -1.9630   -0.9560    3.9350 o         1 ATL     -0.673500
     17 N3          0.0910   -0.3900    4.7830 n         1 ATL     -0.593500
     18 C4          1.4350   -0.0070    4.6240 c         1 ATL      0.725700
     19 O4          2.1210    0.1510    5.6550 o         1 ATL     -0.674500
     20 C5          1.8960    0.1650    3.2470 cc        1 ATL     -0.326400
     21 C5M         3.3040    0.5500    3.0340 c3        1 ATL     -0.010900
     22 C6          1.0240   -0.0320    2.2070 cd        1 ATL      0.107600
     23 OXT        -0.9680   -0.4610   -5.1190 o         1 ATL     -0.920167
     24 H5'        -1.4180   -1.0930   -2.9260 h1        1 ATL      0.019700
     25 H5''       -0.0590   -1.9970   -2.0660 h1        1 ATL      0.019700
     26 H3'        -2.9520   -0.8390   -0.6060 h1        1 ATL      0.040700
     27 HA         -2.3600    1.2720   -2.2580 ho        1 ATL      0.523000
     28 H2'        -2.6810    1.1390    1.3320 h1        1 ATL      0.089700
     29 H1'        -1.9410   -1.3990    1.5850 h2        1 ATL      0.081700
     30 H9'1        0.9070    1.0590   -0.5010 h1        1 ATL      0.107700
     31 H9'2       -0.3530    1.7900   -1.6520 h1        1 ATL      0.107700
     32 H3         -0.2820   -0.5180    5.6960 hn        1 ATL      0.331500
     33 H71         3.9820   -0.3020    3.2890 hc        1 ATL      0.037367
     34 H72         3.4830    0.8430    1.9700 hc        1 ATL      0.037367
     35 H73         3.5710    1.4120    3.6960 hc        1 ATL      0.037367
     36 H6          1.3270    0.0880    1.1420 h4        1 ATL      0.211000
@<TRIPOS>BOND
     1    1    2 1   
     2    2    3 1   
     3    2    4 1   
     4    2   23 1   
     5    4    5 1   
     6    5    6 1   
     7    5   24 1   
     8    5   25 1   
     9    6    7 1   
    10    6    8 1   
    11    6   13 1   
    12    7   12 1   
    13    8    9 1   
    14    8   10 1   
    15    8   26 1   
    16    9   27 1   
    17   10   11 1   
    18   10   12 1   
    19   10   28 1   
    20   11   13 1   
    21   12   14 1   
    22   12   29 1   
    23   13   30 1   
    24   13   31 1   
    25   14   15 1   
    26   14   22 1   
    27   15   16 2   
    28   15   17 1   
    29   17   18 1   
    30   17   32 1   
    31   18   19 2   
    32   18   20 1   
    33   20   21 1   
    34   20   22 2   
    35   21   33 1   
    36   21   34 1   
    37   21   35 1   
    38   22   36 1   
@<TRIPOS>SUBSTRUCTURE
     1 ATL         1 TEMP              0 ****  ****    0 ROOT
