@<TRIPOS>MOLECULE
ATL
   36    37     1     0     0
SMALL
bcc


@<TRIPOS>ATOM
      1 OP1        -1.6770    5.4750    0.5960 o         1 ATL     -0.930000
      2 P          -1.7270    4.3150    1.5880 p4        1 ATL      1.699200
      3 OP2        -3.1460    4.0780    2.0060 os        1 ATL     -1.220000
      4 O5'        -1.1470    2.9930    0.8960 os        1 ATL     -0.556200
      5 C5'         0.1750    2.9990    0.4600 c3        1 ATL      0.252400
      6 C4'         0.5200    1.6410   -0.1610 c3        1 ATL      0.065800
      7 O4'         0.5440    0.5650    0.6830 os        1 ATL     -0.435600
      8 C3'         2.0050    1.5010   -0.5670 c3        1 ATL      0.143100
      9 O3'         2.3470    2.3370   -1.5120 oh        1 ATL     -0.642800
     10 C2'         1.7850    0.0740   -1.0920 c3        1 ATL      0.060100
     11 O2'         0.8380    0.4440   -1.9930 os        1 ATL     -0.444600
     12 C1'         1.3160   -0.3990    0.1190 c3        1 ATL      0.252500
     13 C6'         0.0580    1.4030   -1.4250 c3        1 ATL      0.076400
     14 N1          0.4910   -1.6380   -0.1080 n         1 ATL     -0.343000
     15 C2          0.5600   -2.3490   -1.4120 c         1 ATL      0.802500
     16 O2          1.2880   -1.9420   -2.2810 o         1 ATL     -0.673500
     17 N3         -0.3140   -3.4950   -1.6720 n         1 ATL     -0.593500
     18 C4         -1.1910   -3.9720   -0.6490 c         1 ATL      0.725700
     19 O4         -1.9230   -4.9160   -0.8680 o         1 ATL     -0.674500
     20 C5         -1.2080   -3.3170    0.6730 cc        1 ATL     -0.326400
     21 C5M        -1.9800   -3.9280    1.7960 c3        1 ATL     -0.010900
     22 C6         -0.3750   -2.1090    0.9110 cd        1 ATL      0.107600
     23 OXT        -0.8870    4.6590    2.8150 o         1 ATL     -0.978800
     24 H5'         0.2940    3.6970   -0.2030 h1        1 ATL      0.019700
     25 H5''        0.7610    3.1660    1.2120 h1        1 ATL      0.019700
     26 H3'         2.6010    1.5250    0.1980 h1        1 ATL      0.040700
     27 HA          3.1840    2.6190   -1.3710 ho        1 ATL      0.523000
     28 H2'         2.5970   -0.3500   -1.4490 h1        1 ATL      0.089700
     29 H1'         2.0670   -0.6060    0.7050 h2        1 ATL      0.081700
     30 H9'1       -0.8690    1.0920   -1.3850 h1        1 ATL      0.107700
     31 H9'2        0.1070    2.2180   -1.9500 h1        1 ATL      0.107700
     32 H3         -0.2690   -3.9330   -2.4810 hn        1 ATL      0.331500
     33 H71        -1.6700   -4.8470    1.9440 hc        1 ATL      0.037367
     34 H72        -1.8410   -3.3960    2.6220 hc        1 ATL      0.037367
     35 H73        -2.9270   -3.9370    1.5700 hc        1 ATL      0.037367
     36 H6         -0.3880   -1.6690    1.7830 h4        1 ATL      0.211000
@<TRIPOS>BOND
     1    1    2 1   
     2    2    4 1   
     3    2   23 2   
     4    4    5 1   
     5    5    6 1   
     6    5   24 1   
     7    5   25 1   
     8    6    7 1   
     9    6    8 1   
    10    6   13 1   
    11    7   12 1   
    12    8    9 1   
    13    8   10 1   
    14    8   26 1   
    15    9   27 1   
    16   10   11 1   
    17   10   12 1   
    18   10   28 1   
    19   11   13 1   
    20   12   14 1   
    21   12   29 1   
    22   13   30 1   
    23   13   31 1   
    24   14   15 1   
    25   14   22 1   
    26   15   16 2   
    27   15   17 1   
    28   17   18 1   
    29   17   32 1   
    30   18   19 2   
    31   18   20 1   
    32   20   21 1   
    33   20   22 2   
    34   21   33 1   
    35   21   34 1   
    36   21   35 1   
    37   22   36 1   
@<TRIPOS>SUBSTRUCTURE
     1 ATL         1 TEMP              0 ****  ****    0 ROOT
