@<TRIPOS>MOLECULE
ATM
   35    36     1     0     0
SMALL
bcc


@<TRIPOS>ATOM
      1 P          -1.7160    1.8410   -1.4370 p5        1 ATM      1.445800
      2 OP1        -0.3850    2.1210   -0.8460 o         1 ATM     -0.852000
      3 OP2        -2.2220    2.3570   -2.7260 o         1 ATM     -0.852000
      4 OP3        -2.8690    2.2980   -0.3700 oh        1 ATM     -0.783400
      5 O5'        -1.9800    0.2230   -1.3850 os        1 ATM     -0.584200
      6 C5'        -1.4410   -0.4930   -0.3110 c3        1 ATM      0.177400
      7 C4'        -0.6870   -1.7290   -0.8110 c3        1 ATM      0.054800
      8 O4'         0.5700   -1.3400   -1.4170 os        1 ATM     -0.425600
      9 C3'        -0.3640   -2.7100    0.3070 c2        1 ATM      0.275300
     10 N3'        -1.1010   -3.5550    0.9170 ne        1 ATM     -0.447400
     11 N4'        -2.5040   -3.5550    1.1690 n1        1 ATM     -0.106300
     12 N5'        -3.3460   -4.1510    0.6300 n1        1 ATM     -0.462000
     13 C2'         1.1200   -2.5490    0.5880 c3        1 ATM     -0.155700
     14 C1'         1.6730   -1.8400   -0.6610 c3        1 ATM      0.309500
     15 N1          2.6290   -0.7510   -0.3740 n         1 ATM     -0.366000
     16 C2          3.9940   -1.0890   -0.2640 c         1 ATM      0.795500
     17 O2          4.4240   -2.2610   -0.4090 o         1 ATM     -0.694500
     18 N3          4.9160   -0.0650    0.0220 n         1 ATM     -0.597500
     19 C4          4.5450    1.2870    0.1650 c         1 ATM      0.718700
     20 O4          5.4560    2.1050    0.4180 o         1 ATM     -0.687500
     21 C5          3.1260    1.5820   -0.0040 cc        1 ATM     -0.306400
     22 C5A         2.6720    2.9830    0.0980 c3        1 ATM     -0.032900
     23 C6          2.2380    0.5700   -0.2680 cd        1 ATM      0.084600
     24 H5'        -2.2890   -0.8600    0.3350 h1        1 ATM      0.042200
     25 H5''       -0.7600    0.1670    0.2930 h1        1 ATM      0.042200
     26 H4'        -1.2620   -2.2080   -1.6500 h1        1 ATM      0.076700
     27 H3'        -3.7110    2.4110   -0.7920 ho        1 ATM      0.420000
     28 H2'         1.6310   -3.5330    0.7170 hc        1 ATM      0.047700
     29 H2''        1.2700   -1.9500    1.5200 hc        1 ATM      0.047700
     30 H1'         2.2240   -2.5630   -1.3360 h2        1 ATM      0.070700
     31 HN3         5.8700   -0.3300    0.1080 hn        1 ATM      0.323500
     32 H51         1.5830    3.0580   -0.1740 hc        1 ATM      0.051367
     33 H52         2.8170    3.3600    1.1410 hc        1 ATM      0.051367
     34 H53         3.2690    3.6320   -0.5880 hc        1 ATM      0.051367
     35 H6          1.1470    0.7830   -0.4270 h4        1 ATM      0.268000
@<TRIPOS>BOND
     1    1    2 1   
     2    1    3 1   
     3    1    4 1   
     4    1    5 1   
     5    4   27 1   
     6    5    6 1   
     7    6    7 1   
     8    6   24 1   
     9    6   25 1   
    10    7    8 1   
    11    7    9 1   
    12    7   26 1   
    13    8   14 1   
    14    9   10 2   
    15    9   13 1   
    16   10   11 1   
    17   11   12 3   
    18   13   14 1   
    19   13   28 1   
    20   13   29 1   
    21   14   15 1   
    22   14   30 1   
    23   15   16 1   
    24   15   23 1   
    25   16   17 2   
    26   16   18 1   
    27   18   19 1   
    28   18   31 1   
    29   19   20 2   
    30   19   21 1   
    31   21   22 1   
    32   21   23 2   
    33   22   32 1   
    34   22   33 1   
    35   22   34 1   
    36   23   35 1   
@<TRIPOS>SUBSTRUCTURE
     1 ATM         1 TEMP              0 ****  ****    0 ROOT
