@<TRIPOS>MOLECULE
ATM
   35    35     1     0     0
SMALL
bcc


@<TRIPOS>ATOM
      1 P          -1.4110   -4.6450    2.6110 p3        1 ATM      2.531000
      2 OP1        -2.6020   -4.8700    3.5360 o         1 ATM     -1.239000
      3 OP2        -1.5530   -5.5170    1.3840 os        1 ATM     -1.244000
      4 OP3        -0.1170   -5.0060    3.3450 o         1 ATM     -1.239000
      5 O5'        -1.3610   -3.1020    2.1700 os        1 ATM     -0.732000
      6 C5'        -0.5680   -2.7400    1.0610 c3        1 ATM      0.062000
      7 C4'        -1.2200   -1.6250    0.3200 c3        1 ATM     -0.026000
      8 O4'        -0.8800   -0.5170    0.8270 os        1 ATM     -0.295000
      9 C3'        -0.6750   -1.6100   -1.2030 c3        1 ATM     -0.074000
     10 N3'        -1.6160   -2.0380   -2.0210 n2        1 ATM     -0.333000
     11 N4'        -1.2920   -2.9200   -3.0320 n2        1 ATM      0.292000
     12 N5'        -0.9570   -3.7910   -4.0260 n1        1 ATM     -0.085000
     13 C2'        -0.2810   -0.1580   -1.3840 c3        1 ATM     -0.171000
     14 C1'        -0.7770    0.4990   -0.3190 c3        1 ATM      0.157000
     15 N1          0.1710    1.5540    0.0810 n         1 ATM     -0.263000
     16 C2          1.5080    1.1220    0.6420 c2        1 ATM      0.386000
     17 O2          1.7850   -0.1010    0.7190 o         1 ATM     -0.440000
     18 N3          2.5640    2.1360    0.9480 n         1 ATM     -0.378000
     19 C4          2.4340    3.4690    0.4780 c2        1 ATM      0.354000
     20 O4          3.3650    4.2780    0.6490 o         1 ATM     -0.414000
     21 C5          1.1860    3.8940   -0.2240 c2        1 ATM     -0.269000
     22 C5A         1.0150    5.4410   -0.7340 c3        1 ATM     -0.166000
     23 C6          0.0120    2.8610   -0.4010 c2        1 ATM      0.054000
     24 H5'        -0.4600   -3.5420    0.4400 h1        1 ATM      0.044500
     25 H5''        0.3350   -2.4400    1.3780 h1        1 ATM      0.044500
     26 H4'        -2.2810   -1.7290    0.3380 h1        1 ATM      0.080000
     27 H3'         0.0640   -2.2080   -1.4330 h1        1 ATM      0.221000
     28 H2'        -0.6900    0.2200   -2.2560 hc        1 ATM      0.094000
     29 H2''        0.5820   -0.0880   -1.4040 hc        1 ATM      0.094000
     30 H1'        -1.7710    0.9300   -0.5500 h2        1 ATM      0.124000
     31 HN3         3.3170    1.8850    1.4120 hn        1 ATM      0.233000
     32 H51         0.5150    5.9530   -0.0660 hc        1 ATM      0.097667
     33 H52         1.8980    5.8410   -0.8540 hc        1 ATM      0.097667
     34 H53         0.5490    5.4550   -1.5550 hc        1 ATM      0.097667
     35 H6         -0.7900    3.1090   -0.8780 h4        1 ATM      0.307000
@<TRIPOS>BOND
     1    1    2 1   
     2    1    4 1   
     3    1    5 1   
     4    5    6 1   
     5    6    7 1   
     6    6   24 1   
     7    6   25 1   
     8    7    8 1   
     9    7    9 1   
    10    7   26 1   
    11    8   14 1   
    12    9   10 1   
    13    9   13 1   
    14    9   27 1   
    15   10   11 1   
    16   11   12 1   
    17   13   14 1   
    18   13   28 1   
    19   13   29 1   
    20   14   15 1   
    21   14   30 1   
    22   15   16 1   
    23   15   23 1   
    24   16   17 1   
    25   16   18 1   
    26   18   19 1   
    27   18   31 1   
    28   19   20 1   
    29   19   21 1   
    30   21   22 1   
    31   21   23 1   
    32   22   32 1   
    33   22   33 1   
    34   22   34 1   
    35   23   35 1   
@<TRIPOS>SUBSTRUCTURE
     1 ATM         1 TEMP              0 ****  ****    0 ROOT
