@<TRIPOS>MOLECULE
ATN
   66    66     1     0     0
SMALL
bcc


@<TRIPOS>ATOM
      1 CA         -0.1160    3.9880   -1.6160 c3        1 ATN     -0.046000
      2 C1          0.0010    2.7210   -2.3880 c3        1 ATN     -0.029000
      3 N          -1.4780    4.2460   -1.3200 n3        1 ATN     -0.329000
      4 O1         -0.8190    2.7900   -3.5400 oh        1 ATN     -0.325000
      5 C          -0.4500    1.5300   -1.5020 c2        1 ATN      0.322000
      6 CB          0.4590    5.1560   -2.4570 c3        1 ATN     -0.120000
      7 CG          0.1830    6.4770   -1.7510 c2        1 ATN     -0.071000
      8 CD1         1.1250    7.0050   -0.8820 c1        1 ATN     -0.129000
      9 CE1         0.9350    8.2770   -0.3300 c1        1 ATN     -0.131000
     10 CZ         -0.2080    9.0170   -0.6560 c1        1 ATN     -0.131000
     11 CE2        -1.1540    8.4870   -1.5280 c1        1 ATN     -0.133000
     12 CD2        -0.9640    7.2190   -2.0780 c2        1 ATN     -0.102000
     13 O          -0.7650    1.7180   -0.3620 o         1 ATN     -0.388000
     14 N1         -0.5900    0.2130   -2.0780 n         1 ATN     -0.306000
     15 CA1        -1.1390   -1.0820   -1.3510 c3        1 ATN      0.020000
     16 C2         -0.1150   -1.5680   -0.3310 c2        1 ATN      0.311000
     17 O2          1.0790   -1.4120   -0.5440 o         1 ATN     -0.366000
     18 CB1        -1.3220   -1.9070   -2.3750 c3        1 ATN     -0.160000
     19 CG1        -0.2900   -1.4790   -3.5080 c3        1 ATN     -0.166000
     20 CD         -0.2450   -0.2020   -3.5010 c3        1 ATN     -0.030000
     21 N2         -0.5700   -2.1070    0.9720 n         1 ATN     -0.313000
     22 CA2         0.3390   -2.5260    2.1870 c3        1 ATN      0.016000
     23 C3          1.1060   -3.8280    1.8480 c2        1 ATN      0.295000
     24 O3          1.0040   -4.3260    0.7430 o         1 ATN     -0.357000
     25 CB2        -0.5650   -2.6580    3.1680 c3        1 ATN     -0.169000
     26 CG2        -1.9470   -3.0390    2.4780 c3        1 ATN     -0.167000
     27 CD3        -2.0210   -2.3590    1.4040 c3        1 ATN     -0.034000
     28 N3          1.9660   -4.4450    2.8470 n         1 ATN     -0.361000
     29 CA3         1.9750   -5.8790    3.0030 c3        1 ATN      0.009000
     30 C4          1.1350   -6.2600    4.1840 c2        1 ATN      0.273000
     31 O4          1.1480   -5.5720    5.1870 o         1 ATN     -0.385000
     32 CB3         3.4000   -6.3530    3.2220 c3        1 ATN     -0.220000
     33 N4          0.2830   -7.4360    4.1190 n         1 ATN     -0.427000
     34 HA          0.3920    3.9070   -0.7760 h1        1 ATN      0.127000
     35 HC1         0.9110    2.5940   -2.6520 h1        1 ATN      0.099000
     36 HN1        -1.6800    3.9120   -0.4830 hn        1 ATN      0.158000
     37 HN2        -2.0290    3.8300   -1.9690 hn        1 ATN      0.158000
     38 HO1        -0.3280    2.8020   -4.2420 ho        1 ATN      0.214000
     39 HB1         0.0470    5.1630   -3.3140 hc        1 ATN      0.084000
     40 HB2         1.4610    5.0330   -2.5650 hc        1 ATN      0.084000
     41 HD1         1.9470    6.4720   -0.6480 ha        1 ATN      0.126000
     42 HE1         1.6010    8.6490    0.2830 ha        1 ATN      0.130000
     43 HZ         -0.3450    9.9330   -0.2590 ha        1 ATN      0.130000
     44 HE2        -1.9550    9.0050   -1.7560 ha        1 ATN      0.131000
     45 HD2        -1.6420    6.8410   -2.7030 ha        1 ATN      0.144000
     46 HA1        -1.9390   -1.0030   -0.8050 h1        1 ATN      0.123000
     47 HB11       -1.1500   -2.8150   -2.0990 hc        1 ATN      0.108000
     48 HB12       -2.2480   -1.8260   -2.7120 hc        1 ATN      0.108000
     49 HG11       -0.5980   -1.8000   -4.3820 hc        1 ATN      0.096500
     50 HG12        0.6280   -1.8610   -3.3020 hc        1 ATN      0.096500
     51 HD1A       -0.8990    0.1610   -4.1250 h1        1 ATN      0.099500
     52 HD2A        0.6300    0.0980   -3.7290 h1        1 ATN      0.099500
     53 HA2         1.0590   -1.9390    2.4440 h1        1 ATN      0.131000
     54 HB21       -0.2920   -3.3650    3.7770 hc        1 ATN      0.102500
     55 HB22       -0.6600   -1.7920    3.6670 hc        1 ATN      0.102500
     56 HG21       -2.6860   -2.8110    3.0660 hc        1 ATN      0.097000
     57 HG22       -1.9660   -4.0280    2.2650 hc        1 ATN      0.097000
     58 HD31       -2.4820   -1.4990    1.5750 h1        1 ATN      0.105000
     59 HD32       -2.5030   -2.8750    0.7020 h1        1 ATN      0.105000
     60 HN3         2.5720   -3.9450    3.2820 hn        1 ATN      0.233000
     61 HA3         1.6230   -6.2860    2.2180 h1        1 ATN      0.137000
     62 HB31        3.6660   -6.1820    4.1660 hc        1 ATN      0.090667
     63 HB32        3.4590   -7.3270    3.0320 hc        1 ATN      0.090667
     64 HB33        4.0200   -5.8520    2.6020 hc        1 ATN      0.090667
     65 HN41        0.0470   -7.7920    3.2950 hn        1 ATN      0.226500
     66 HN42       -0.0410   -7.8060    4.8850 hn        1 ATN      0.226500
@<TRIPOS>BOND
     1    1    2 1   
     2    1    3 1   
     3    1    6 1   
     4    1   34 1   
     5    2    4 1   
     6    2    5 1   
     7    2   35 1   
     8    3   36 1   
     9    3   37 1   
    10    4   38 1   
    11    5   13 1   
    12    5   14 1   
    13    6    7 1   
    14    6   39 1   
    15    6   40 1   
    16    7    8 1   
    17    7   12 1   
    18    8   41 1   
    19    9   10 1   
    20    9   42 1   
    21   10   43 1   
    22   11   12 1   
    23   11   44 1   
    24   12   45 1   
    25   14   15 1   
    26   14   20 1   
    27   15   16 1   
    28   15   18 1   
    29   15   46 1   
    30   16   17 1   
    31   16   21 1   
    32   18   19 1   
    33   18   47 1   
    34   18   48 1   
    35   19   20 1   
    36   19   49 1   
    37   19   50 1   
    38   20   51 1   
    39   20   52 1   
    40   21   22 1   
    41   21   27 1   
    42   22   23 1   
    43   22   25 1   
    44   22   53 1   
    45   23   24 1   
    46   23   28 1   
    47   25   26 1   
    48   25   54 1   
    49   25   55 1   
    50   26   27 1   
    51   26   56 1   
    52   26   57 1   
    53   27   58 1   
    54   27   59 1   
    55   28   29 1   
    56   28   60 1   
    57   29   30 1   
    58   29   32 1   
    59   29   61 1   
    60   30   31 1   
    61   30   33 1   
    62   32   62 1   
    63   32   63 1   
    64   32   64 1   
    65   33   65 1   
    66   33   66 1   
@<TRIPOS>SUBSTRUCTURE
     1 ATN         1 TEMP              0 ****  ****    0 ROOT
