@<TRIPOS>MOLECULE
ATN
   66    68     1     0     0
SMALL
bcc


@<TRIPOS>ATOM
      1 CA         -3.3870    0.7040   -0.5770 c3        1 ATN      0.146500
      2 C1         -3.0960    2.0880    0.0630 c3        1 ATN      0.091100
      3 N          -2.6970    0.5480   -1.8380 n3        1 ATN     -0.899800
      4 O1         -3.5660    3.1440   -0.7460 oh        1 ATN     -0.592800
      5 C          -1.5910    2.2500    0.3040 c         1 ATN      0.654100
      6 CB         -4.9200    0.5370   -0.6320 c3        1 ATN     -0.077100
      7 CG         -5.3130   -0.7630   -1.2360 ca        1 ATN     -0.087300
      8 CD1        -5.5290   -1.8850   -0.4280 ca        1 ATN     -0.130000
      9 CE1        -5.9010   -3.1010   -0.9970 ca        1 ATN     -0.124500
     10 CZ         -6.0630   -3.2080   -2.3780 ca        1 ATN     -0.128000
     11 CE2        -5.8520   -2.0930   -3.1890 ca        1 ATN     -0.124500
     12 CD2        -5.4790   -0.8760   -2.6220 ca        1 ATN     -0.130000
     13 O          -0.9270    2.9700   -0.4700 o         1 ATN     -0.620100
     14 N1         -0.9890    1.5730    1.3450 n         1 ATN     -0.454800
     15 CA1         0.4340    1.7050    1.6320 c3        1 ATN      0.046700
     16 C2          1.2540    0.6140    0.9020 c         1 ATN      0.656100
     17 O2          1.1080   -0.5900    1.2050 o         1 ATN     -0.623100
     18 CB1         0.6060    1.5050    3.1570 c3        1 ATN     -0.082400
     19 CG1        -0.7280    0.9740    3.6710 c3        1 ATN     -0.088400
     20 CD         -1.7060    1.0270    2.4830 c3        1 ATN      0.093000
     21 N2          2.2240    0.9880   -0.0090 n         1 ATN     -0.448800
     22 CA2         2.9190   -0.0180   -0.8090 c3        1 ATN      0.031700
     23 C3          4.1870   -0.5530   -0.1030 c         1 ATN      0.659100
     24 O3          5.3220   -0.4350   -0.6120 o         1 ATN     -0.639100
     25 CB2         3.2770    0.6370   -2.1600 c3        1 ATN     -0.086400
     26 CG2         2.9500    2.1180   -2.0230 c3        1 ATN     -0.088400
     27 CD3         2.2560    2.2880   -0.6630 c3        1 ATN      0.068000
     28 N3          4.0060   -1.1930    1.0990 n         1 ATN     -0.558900
     29 CA3         5.1080   -1.7150    1.8690 c3        1 ATN      0.039700
     30 C4          5.5350   -3.1300    1.4000 c         1 ATN      0.634100
     31 O4          5.4490   -4.1210    2.1530 o         1 ATN     -0.622100
     32 CB3         4.8010   -1.7760    3.3640 c3        1 ATN     -0.096100
     33 N4          6.0260   -3.2490    0.1300 n         1 ATN     -0.669000
     34 HA         -2.9760   -0.0850    0.1220 h1        1 ATN      0.072700
     35 HC1        -3.6800    2.1820    1.0210 h1        1 ATN      0.086700
     36 HN1        -2.8720   -0.3650   -2.2130 hn        1 ATN      0.356300
     37 HN2        -3.0110    1.2350   -2.4970 hn        1 ATN      0.356300
     38 HO1        -2.8910    3.3420   -1.4140 ho        1 ATN      0.432000
     39 HB1        -5.3570    1.3890   -1.2200 hc        1 ATN      0.061700
     40 HB2        -5.3230    0.6100    0.4120 hc        1 ATN      0.061700
     41 HD1        -5.4040   -1.8050    0.6630 ha        1 ATN      0.130500
     42 HE1        -6.0690   -3.9780   -0.3540 ha        1 ATN      0.133500
     43 HZ         -6.3580   -4.1680   -2.8260 ha        1 ATN      0.134000
     44 HE2        -5.9820   -2.1730   -4.2790 ha        1 ATN      0.133500
     45 HD2        -5.3220    0.0040   -3.2640 ha        1 ATN      0.130500
     46 HA1         0.7820    2.7330    1.3260 h1        1 ATN      0.089700
     47 HB11        1.4330    0.7840    3.3700 hc        1 ATN      0.064700
     48 HB12        0.8600    2.4830    3.6340 hc        1 ATN      0.064700
     49 HG11       -0.6230   -0.0790    4.0300 hc        1 ATN      0.060700
     50 HG12       -1.1080    1.5960    4.5170 hc        1 ATN      0.060700
     51 HD1A       -2.5950    1.6670    2.7360 h1        1 ATN      0.050200
     52 HD2A       -2.0710   -0.0060    2.2280 h1        1 ATN      0.050200
     53 HA2         2.2400   -0.9080   -0.9740 h1        1 ATN      0.088700
     54 HB21        4.3580    0.4830   -2.4060 hc        1 ATN      0.073200
     55 HB22        2.6650    0.1670   -2.9690 hc        1 ATN      0.073200
     56 HG21        3.8810    2.7360   -2.0590 hc        1 ATN      0.058200
     57 HG22        2.2760    2.4590   -2.8460 hc        1 ATN      0.058200
     58 HD31        1.2140    2.6930   -0.8050 h1        1 ATN      0.067700
     59 HD32        2.8330    3.0010   -0.0110 h1        1 ATN      0.067700
     60 HN3         3.0850   -1.3630    1.4400 hn        1 ATN      0.346500
     61 HA3         6.0000   -1.0320    1.7080 h1        1 ATN      0.083700
     62 HB31        5.7010   -2.1690    3.8950 hc        1 ATN      0.053700
     63 HB32        4.5570   -0.7610    3.7560 hc        1 ATN      0.053700
     64 HB33        3.9490   -2.4680    3.5680 hc        1 ATN      0.053700
     65 HN41        6.1300   -2.4540   -0.4540 hn        1 ATN      0.321500
     66 HN42        6.3300   -4.1310   -0.1980 hn        1 ATN      0.321500
@<TRIPOS>BOND
     1    1    2 1   
     2    1    3 1   
     3    1    6 1   
     4    1   34 1   
     5    2    4 1   
     6    2    5 1   
     7    2   35 1   
     8    3   36 1   
     9    3   37 1   
    10    4   38 1   
    11    5   13 2   
    12    5   14 1   
    13    6    7 1   
    14    6   39 1   
    15    6   40 1   
    16    7    8 ar  
    17    7   12 ar  
    18    8    9 ar  
    19    8   41 1   
    20    9   10 ar  
    21    9   42 1   
    22   10   11 ar  
    23   10   43 1   
    24   11   12 ar  
    25   11   44 1   
    26   12   45 1   
    27   14   15 1   
    28   14   20 1   
    29   15   16 1   
    30   15   18 1   
    31   15   46 1   
    32   16   17 2   
    33   16   21 1   
    34   18   19 1   
    35   18   47 1   
    36   18   48 1   
    37   19   20 1   
    38   19   49 1   
    39   19   50 1   
    40   20   51 1   
    41   20   52 1   
    42   21   22 1   
    43   21   27 1   
    44   22   23 1   
    45   22   25 1   
    46   22   53 1   
    47   23   24 2   
    48   23   28 1   
    49   25   26 1   
    50   25   54 1   
    51   25   55 1   
    52   26   27 1   
    53   26   56 1   
    54   26   57 1   
    55   27   58 1   
    56   27   59 1   
    57   28   29 1   
    58   28   60 1   
    59   29   30 1   
    60   29   32 1   
    61   29   61 1   
    62   30   31 2   
    63   30   33 1   
    64   32   62 1   
    65   32   63 1   
    66   32   64 1   
    67   33   65 1   
    68   33   66 1   
@<TRIPOS>SUBSTRUCTURE
     1 ATN         1 TEMP              0 ****  ****    0 ROOT
