@<TRIPOS>MOLECULE
ATO
   10     9     1     0     0
SMALL
bcc


@<TRIPOS>ATOM
      1 C1          0.0490    0.0000    0.0330 c3        1 ATO     -0.206100
      2 C2          1.5410    0.0000   -0.0930 c         1 ATO      0.558100
      3 C3          2.2440   -0.0000    1.2370 c3        1 ATO     -0.083000
      4 O4          2.1120   -0.0000   -1.1840 o         1 ATO     -0.494100
      5 CL          3.9860   -0.0000    1.1610 cl        1 ATO     -0.146400
      6 H13        -0.4280    0.0000   -0.9780 hc        1 ATO      0.067367
      7 H12        -0.2850    0.9080    0.5910 hc        1 ATO      0.067367
      8 H11        -0.2850   -0.9080    0.5910 hc        1 ATO      0.067367
      9 H32         1.9450    0.9130    1.8100 h1        1 ATO      0.084700
     10 H31         1.9450   -0.9130    1.8100 h1        1 ATO      0.084700
@<TRIPOS>BOND
     1    1    2 1   
     2    1    6 1   
     3    1    7 1   
     4    1    8 1   
     5    2    3 1   
     6    2    4 2   
     7    3    5 1   
     8    3    9 1   
     9    3   10 1   
@<TRIPOS>SUBSTRUCTURE
     1 ATO         1 TEMP              0 ****  ****    0 ROOT
