@<TRIPOS>MOLECULE
ATO
   10     9     1     0     0
SMALL
bcc


@<TRIPOS>ATOM
      1 C1         -1.2690    0.1280   -0.5200 c3        1 ATO     -0.201100
      2 C2          0.2070   -0.1990   -0.4680 c         1 ATO      0.563100
      3 C3          0.9620   -0.0790    0.8370 c3        1 ATO     -0.082000
      4 O4          0.7850   -0.5580   -1.4740 o         1 ATO     -0.512100
      5 CL          2.5630    0.5400    0.5280 cl        1 ATO     -0.161400
      6 H13        -1.5690    0.1390   -1.4540 hc        1 ATO      0.071367
      7 H12        -1.7720   -0.5500   -0.0230 hc        1 ATO      0.071367
      8 H11        -1.4230    1.0090   -0.1180 hc        1 ATO      0.071367
      9 H32         0.4860    0.5310    1.4350 h1        1 ATO      0.089700
     10 H31         1.0290   -0.9600    1.2570 h1        1 ATO      0.089700
@<TRIPOS>BOND
     1    1    2 1   
     2    1    6 1   
     3    1    7 1   
     4    1    8 1   
     5    2    3 1   
     6    2    4 2   
     7    3    5 1   
     8    3    9 1   
     9    3   10 1   
@<TRIPOS>SUBSTRUCTURE
     1 ATO         1 TEMP              0 ****  ****    0 ROOT
