@<TRIPOS>MOLECULE
ATO
   10     9     1     0     0
SMALL
bcc


@<TRIPOS>ATOM
      1 C1         -0.4730   -0.0000    2.3630 c3        1 ATO     -0.206100
      2 C2          0.1580    0.0000    1.0050 c         1 ATO      0.558100
      3 C3         -0.8500    0.0000   -0.1120 c3        1 ATO     -0.083000
      4 O4          1.3780    0.0000    0.8450 o         1 ATO     -0.494100
      5 CL         -0.1790    0.0000   -1.7210 cl        1 ATO     -0.146400
      6 H13         0.3110   -0.0000    3.1590 hc        1 ATO      0.067367
      7 H12        -1.1120    0.9080    2.4860 hc        1 ATO      0.067367
      8 H11        -1.1120   -0.9080    2.4860 hc        1 ATO      0.067367
      9 H32        -1.4900   -0.9130   -0.0270 h1        1 ATO      0.084700
     10 H31        -1.4900    0.9130   -0.0270 h1        1 ATO      0.084700
@<TRIPOS>BOND
     1    1    2 1   
     2    1    6 1   
     3    1    7 1   
     4    1    8 1   
     5    2    3 1   
     6    2    4 2   
     7    3    5 1   
     8    3    9 1   
     9    3   10 1   
@<TRIPOS>SUBSTRUCTURE
     1 ATO         1 TEMP              0 ****  ****    0 ROOT
