@<TRIPOS>MOLECULE
ATO
   10     9     1     0     0
SMALL
bcc


@<TRIPOS>ATOM
      1 C1          0.1420   -0.3340   -0.0030 c3        1 ATO     -0.201100
      2 C2          1.4670    0.3500   -0.0480 c         1 ATO      0.563100
      3 C3          2.2930    0.3050    1.2120 c3        1 ATO     -0.082000
      4 O4          1.8780    0.9520   -1.0430 o         1 ATO     -0.512100
      5 Cl          2.5880   -1.3330    1.7460 cl        1 ATO     -0.161400
      6 H13        -0.4850   -0.0340   -0.8780 hc        1 ATO      0.071367
      7 H12        -0.3960   -0.0770    0.9410 hc        1 ATO      0.071367
      8 H11         0.2950   -1.4420   -0.0350 hc        1 ATO      0.071367
      9 H32         3.2900    0.7820    1.0480 h1        1 ATO      0.089700
     10 H31         1.7520    0.8310    2.0360 h1        1 ATO      0.089700
@<TRIPOS>BOND
     1    1    2 1   
     2    1    6 1   
     3    1    7 1   
     4    1    8 1   
     5    2    3 1   
     6    2    4 2   
     7    3    5 1   
     8    3    9 1   
     9    3   10 1   
@<TRIPOS>SUBSTRUCTURE
     1 ATO         1 TEMP              0 ****  ****    0 ROOT
