@<TRIPOS>MOLECULE
ATQ
   13    13     1     0     0
SMALL
bcc


@<TRIPOS>ATOM
      1 N1         -0.1010    0.1440   -0.0580 n2        1 ATQ     -0.496900
      2 C2          1.1890   -0.0030    0.0900 c2        1 ATQ      0.424100
      3 S3          1.8270   -0.2060    1.6970 ss        1 ATQ     -0.141300
      4 C4          0.1740   -0.0930    2.3890 c3        1 ATQ     -0.045300
      5 C5         -0.7950    0.1080    1.2090 c3        1 ATQ      0.085800
      6 N2          2.1090   -0.0020   -1.0510 n4        1 ATQ     -0.772600
      7 H41         0.1320    0.7650    3.1020 h1        1 ATQ      0.118700
      8 H42        -0.0560   -1.0310    2.9490 h1        1 ATQ      0.118700
      9 H51        -1.5530   -0.7280    1.1620 h1        1 ATQ      0.130700
     10 H52        -1.3650    1.0780    1.3150 h1        1 ATQ      0.130700
     11 HN21        2.6080   -0.9010   -1.0730 hn        1 ATQ      0.481800
     12 HN22        2.7820    0.7660   -0.9310 hn        1 ATQ      0.481800
     13 H23         1.6060    0.1260   -1.9430 hn        1 ATQ      0.481800
@<TRIPOS>BOND
     1    1    2 2   
     2    1    5 1   
     3    2    3 1   
     4    2    6 1   
     5    3    4 1   
     6    4    5 1   
     7    4    7 1   
     8    4    8 1   
     9    5    9 1   
    10    5   10 1   
    11    6   11 1   
    12    6   12 1   
    13    6   13 1   
@<TRIPOS>SUBSTRUCTURE
     1 ATQ         1 TEMP              0 ****  ****    0 ROOT
