@<TRIPOS>MOLECULE
ATQ
   13    13     1     0     0
SMALL
bcc


@<TRIPOS>ATOM
      1 N1         -0.0980   -0.0090   -0.0620 n2        1 ATQ     -0.499900
      2 C2          1.2000   -0.0010    0.0930 c2        1 ATQ      0.425100
      3 S3          1.8480    0.0180    1.7070 ss        1 ATQ     -0.139300
      4 C4          0.1900    0.0150    2.3950 c3        1 ATQ     -0.044300
      5 C5         -0.7900   -0.0010    1.2060 c3        1 ATQ      0.086800
      6 N2          2.1190   -0.0070   -1.0510 n4        1 ATQ     -0.770600
      7 H41         0.0510    0.9260    3.0250 h1        1 ATQ      0.118700
      8 H42         0.0600   -0.8850    3.0420 h1        1 ATQ      0.118700
      9 H51        -1.4620    0.9070    1.2240 h1        1 ATQ      0.130700
     10 H52        -1.4520   -0.9150    1.2420 h1        1 ATQ      0.130700
     11 HN21        1.9600    0.8240   -1.6390 hn        1 ATQ      0.481133
     12 HN22        3.0850    0.0020   -0.7000 hn        1 ATQ      0.481133
     13 H23         1.9690   -0.8500   -1.6230 hn        1 ATQ      0.481133
@<TRIPOS>BOND
     1    1    2 2   
     2    1    5 1   
     3    2    3 1   
     4    2    6 1   
     5    3    4 1   
     6    4    5 1   
     7    4    7 1   
     8    4    8 1   
     9    5    9 1   
    10    5   10 1   
    11    6   11 1   
    12    6   12 1   
    13    6   13 1   
@<TRIPOS>SUBSTRUCTURE
     1 ATQ         1 TEMP              0 ****  ****    0 ROOT
