@<TRIPOS>MOLECULE
ATQ
   13    13     1     0     0
SMALL
bcc


@<TRIPOS>ATOM
      1 N1         -0.0840   -0.1980   -0.0510 n2        1 ATQ     -0.496900
      2 C2          1.1990    0.0020    0.0910 c2        1 ATQ      0.424100
      3 S3          1.8260    0.2940    1.6890 ss        1 ATQ     -0.141300
      4 C4          0.1770    0.1490    2.3840 c3        1 ATQ     -0.045300
      5 C5         -0.7820   -0.1360    1.2120 c3        1 ATQ      0.085800
      6 N2          2.1210   -0.0130   -1.0490 nz        1 ATQ     -0.772600
      7 H41        -0.0880    1.1000    2.9050 h1        1 ATQ      0.118700
      8 H42         0.1640   -0.6800    3.1310 h1        1 ATQ      0.118700
      9 H51        -1.3160   -1.1210    1.3580 h1        1 ATQ      0.130700
     10 H52        -1.5690    0.6700    1.1300 h1        1 ATQ      0.130700
     11 HN21        1.6250   -0.1980   -1.9340 hn        1 ATQ      0.481800
     12 HN22        2.8230   -0.7490   -0.8960 hn        1 ATQ      0.481800
     13 H23         2.5860    0.9030   -1.1090 hn        1 ATQ      0.481800
@<TRIPOS>BOND
     1    1    2 2   
     2    1    5 1   
     3    2    3 1   
     4    2    6 1   
     5    3    4 1   
     6    4    5 1   
     7    4    7 1   
     8    4    8 1   
     9    5    9 1   
    10    5   10 1   
    11    6   11 1   
    12    6   12 1   
    13    6   13 1   
@<TRIPOS>SUBSTRUCTURE
     1 ATQ         1 TEMP              0 ****  ****    0 ROOT
