@<TRIPOS>MOLECULE
ATQ
   12    12     1     0     0
SMALL
bcc


@<TRIPOS>ATOM
      1 N1         -1.3970    0.0250    0.2360 n2        1 ATQ     -0.654900
      2 C2         -0.2400   -0.0500    0.8500 c2        1 ATQ      0.642100
      3 S3          1.2010   -0.0800   -0.2030 ss        1 ATQ     -0.313300
      4 C4          0.1910   -0.0080   -1.6690 c3        1 ATQ     -0.034300
      5 C5         -1.2760    0.0170   -1.2000 c3        1 ATQ      0.112800
      6 N2         -0.0350   -0.1850    2.2170 nh        1 ATQ     -0.872800
      7 H41         0.3940   -0.9010   -2.3030 h1        1 ATQ      0.079200
      8 H42         0.4440    0.9070   -2.2500 h1        1 ATQ      0.079200
      9 H51        -1.8210   -0.8850   -1.5980 h1        1 ATQ      0.070700
     10 H52        -1.7940    0.9340   -1.5990 h1        1 ATQ      0.070700
     11 HN21        0.7940    0.2570    2.5460 hn        1 ATQ      0.410300
     12 HN22       -0.8340   -0.0320    2.7950 hn        1 ATQ      0.410300
@<TRIPOS>BOND
     1    1    2 2   
     2    1    5 1   
     3    2    3 1   
     4    2    6 1   
     5    3    4 1   
     6    4    5 1   
     7    4    7 1   
     8    4    8 1   
     9    5    9 1   
    10    5   10 1   
    11    6   11 1   
    12    6   12 1   
@<TRIPOS>SUBSTRUCTURE
     1 ATQ         1 TEMP              0 ****  ****    0 ROOT
