@<TRIPOS>MOLECULE
ATQ
   12    10     1     0     0
SMALL
bcc


@<TRIPOS>ATOM
      1 N1         -0.7630   -0.4590   -0.8340 n1        1 ATQ     -0.242000
      2 C2          0.6400   -0.4590   -0.8340 c1        1 ATQ     -0.022000
      3 S3          1.2150   -0.4590    0.4980 s         1 ATQ      0.093000
      4 C4         -0.0690    0.1530    1.4920 c3        1 ATQ     -0.295000
      5 C5         -1.4320   -0.1040    0.6050 c2        1 ATQ     -0.091000
      6 N2          1.3490    0.1290   -1.9120 n3        1 ATQ     -0.311000
      7 H41        -0.1120   -0.3390    2.3340 h1        1 ATQ      0.118500
      8 H42         0.0540    1.1070    1.6590 h1        1 ATQ      0.118500
      9 H51        -1.9980   -0.8380    0.9110 ha        1 ATQ      0.110000
     10 H52        -2.0420    0.6580    0.6120 ha        1 ATQ      0.110000
     11 HN21        2.2590    0.1900   -1.8810 hn        1 ATQ      0.205500
     12 HN22        0.8980    0.4200   -2.6500 hn        1 ATQ      0.205500
@<TRIPOS>BOND
     1    1    2 1   
     2    2    6 1   
     3    3    4 1   
     4    4    5 1   
     5    4    7 1   
     6    4    8 1   
     7    5    9 1   
     8    5   10 1   
     9    6   11 1   
    10    6   12 1   
@<TRIPOS>SUBSTRUCTURE
     1 ATQ         1 TEMP              0 ****  ****    0 ROOT
