@<TRIPOS>MOLECULE
ATR
   42    38     1     0     0
SMALL
bcc


@<TRIPOS>ATOM
      1 PB          5.6590    3.6710   -1.6310 p4        1 ATR      1.842200
      2 O1B         6.9180    2.9220   -2.0080 o         1 ATR     -0.971500
      3 O2B         5.9750    4.6830   -0.6150 os        1 ATR     -1.273000
      4 O3B         5.0920    4.3440   -2.8520 o         1 ATR     -1.020300
      5 PA          3.0390    3.0060   -0.8340 p4        1 ATR      1.950100
      6 O1A         2.5640    3.8860   -1.9580 o         1 ATR     -0.979300
      7 O2A         2.8560    3.7370    0.4960 os        1 ATR     -1.273000
      8 O3A         4.6000    2.6550   -1.0490 os        1 ATR     -0.813800
      9 O5'         2.1970    1.6630   -0.8160 os        1 ATR     -0.578200
     10 C5'         0.7850    1.7440   -0.6500 c3        1 ATR      0.201400
     11 C4'         0.1610    0.6890   -1.3840 c3        1 ATR      0.124100
     12 O4'         0.3770   -0.6120   -0.7040 os        1 ATR     -0.436600
     13 C3'        -1.4330    0.9010   -1.4270 c3        1 ATR      0.105100
     14 O3'        -1.8740    1.2890   -2.8280 oh        1 ATR     -0.610800
     15 C2'        -1.8990   -0.1690   -1.1250 c3        1 ATR      0.147100
     16 O2'        -2.1650   -1.0010   -2.3830 os        1 ATR     -0.594200
     17 P2'        -3.6040   -1.6830   -2.5640 p5        1 ATR      1.367900
     18 O1P        -3.4650   -2.9290   -3.3840 o         1 ATR     -0.752833
     19 O2P        -4.1610   -2.0300   -1.2280 o         1 ATR     -0.752833
     20 O3P        -4.5270   -0.7270   -3.2580 o         1 ATR     -0.752833
     21 C1'        -0.7660   -0.9100   -0.1920 c3        1 ATR      0.242800
     22 N9         -0.8440   -0.4300    1.1510 n3        1 ATR     -0.107400
     23 C8         -1.9900   -0.0950    1.8110 c1        1 ATR      0.093400
     24 N7         -2.1620   -0.9810    2.8330 ne        1 ATR     -0.616400
     25 C5         -1.1240   -1.8640    2.8040 cg        1 ATR     -0.066000
     26 C6         -0.8310   -2.9810    3.5880 c1        1 ATR      0.367600
     27 N6         -1.3420   -3.5940    4.7590 n3        1 ATR     -0.752400
     28 N1          0.2710   -3.7340    3.3150 n1        1 ATR     -0.579800
     29 C2          1.0890   -3.3980    2.2770 c1        1 ATR      0.272300
     30 N3          0.7990   -2.2840    1.4940 n1        1 ATR     -0.488800
     31 C4         -0.3090   -1.5260    1.7660 c1        1 ATR     -0.041300
     32 H5'1        0.4610    2.6270   -0.9900 h1        1 ATR      0.025700
     33 H5'2        0.5550    1.6560    0.3220 h1        1 ATR      0.025700
     34 H4'         0.5130    0.6560   -2.2770 h1        1 ATR      0.072700
     35 H3'        -1.6950    1.5580   -0.8070 h1        1 ATR      0.057700
     36 HO3'       -2.4020    2.0170   -2.7870 ho        1 ATR      0.403000
     37 H2'        -2.7060   -0.0490   -0.6310 h1        1 ATR      0.076700
     38 H1'        -0.8960   -1.8450   -0.2100 h2        1 ATR      0.052700
     39 H8         -2.5370    0.6930    1.6400 DU        1 ATR      0.277000
     40 HN61       -1.5340   -3.0820    5.4990 hn        1 ATR      0.341300
     41 HN62       -1.5430   -4.5180    4.7580 hn        1 ATR      0.341300
     42 H2          1.8960   -3.9530    2.0780 ha        1 ATR      0.072500
@<TRIPOS>BOND
     1    1    2 1   
     2    1    4 2   
     3    1    8 1   
     4    5    6 2   
     5    5    8 1   
     6    5    9 1   
     7    9   10 1   
     8   10   11 1   
     9   10   32 1   
    10   10   33 1   
    11   11   12 1   
    12   11   13 1   
    13   11   34 1   
    14   12   21 1   
    15   13   14 1   
    16   13   15 1   
    17   13   35 1   
    18   14   36 1   
    19   15   16 1   
    20   15   21 1   
    21   15   37 1   
    22   16   17 1   
    23   17   18 1   
    24   17   19 1   
    25   17   20 1   
    26   21   22 1   
    27   21   38 1   
    28   22   23 2   
    29   22   31 1   
    30   23   24 2   
    31   24   25 1   
    32   25   31 3   
    33   26   27 1   
    34   26   28 3   
    35   27   40 1   
    36   27   41 1   
    37   29   30 3   
    38   29   42 1   
@<TRIPOS>SUBSTRUCTURE
     1 ATR         1 TEMP              0 ****  ****    0 ROOT
