@<TRIPOS>MOLECULE
ATR
   42    44     1     0     0
SMALL
bcc


@<TRIPOS>ATOM
      1 PB         -0.6160   -0.0980    0.1210 p5        1 ATR      1.472900
      2 O1B         0.4560   -0.2730    1.1690 o         1 ATR     -0.972500
      3 O2B        -1.8460    0.6080    0.6320 o         1 ATR     -0.972500
      4 O3B        -0.9250   -1.3640   -0.6370 o         1 ATR     -0.972500
      5 PA          0.9610    1.9810   -1.9490 p5        1 ATR      1.579800
      6 O1A         2.1240    1.3390   -2.6300 o         1 ATR     -0.929500
      7 O2A         1.2120    3.3120   -1.3240 o         1 ATR     -0.929500
      8 O3A         0.1120    1.0030   -1.0620 os        1 ATR     -0.812800
      9 O5'        -0.0430    2.3940   -3.2770 os        1 ATR     -0.572200
     10 C5'         0.5980    3.2770   -4.1320 c3        1 ATR      0.188400
     11 C4'        -0.2950    3.6130   -5.3450 c3        1 ATR      0.085100
     12 O4'        -0.7230    4.9970   -5.2810 os        1 ATR     -0.423600
     13 C3'         0.3530    3.4120   -6.7320 c3        1 ATR      0.097100
     14 O3'        -0.3880    2.4660   -7.4760 oh        1 ATR     -0.626800
     15 C2'         0.4360    4.8090   -7.4260 c3        1 ATR      0.168100
     16 O2'        -0.3370    4.8770   -8.5470 os        1 ATR     -0.554200
     17 P2'         0.3640    5.5390  -10.0180 p5        1 ATR      1.315900
     18 O1P         0.0920    4.4440  -11.0120 o         1 ATR     -0.928833
     19 O2P        -0.4380    6.7940  -10.2250 o         1 ATR     -0.928833
     20 O3P         1.8080    5.7420   -9.6420 o         1 ATR     -0.928833
     21 C1'        -0.1620    5.7730   -6.3220 c3        1 ATR      0.187800
     22 N9          0.8380    6.6970   -5.7580 na        1 ATR     -0.207000
     23 C8          2.1000    6.3440   -5.2450 cc        1 ATR      0.488700
     24 N7          2.8840    7.3960   -4.9180 nd        1 ATR     -0.627100
     25 C5          2.1080    8.5210   -5.2120 ca        1 ATR     -0.180200
     26 C6          2.3570    9.9180   -5.1300 ca        1 ATR      0.633200
     27 N6          3.5870   10.3880   -4.6040 nh        1 ATR     -0.907500
     28 N1          1.3900   10.8060   -5.5150 nb        1 ATR     -0.812000
     29 C2          0.2040   10.2730   -5.9370 ca        1 ATR      0.609900
     30 N3         -0.1820    8.9890   -6.0740 nb        1 ATR     -0.658000
     31 C4          0.7910    8.0910   -5.7300 ca        1 ATR      0.453800
     32 H5'1        0.8390    4.2250   -3.5720 h1        1 ATR      0.015700
     33 H5'2        1.5630    2.8120   -4.4830 h1        1 ATR      0.015700
     34 H4'        -1.2490    3.0220   -5.2660 h1        1 ATR      0.087700
     35 H3'         1.3810    2.9730   -6.6260 h1        1 ATR      0.055700
     36 HO3'       -0.8830    2.9460   -8.1590 ho        1 ATR      0.430000
     37 H2'         1.5080    5.0690   -7.6660 h1        1 ATR      0.088700
     38 H1'        -0.9910    6.4090   -6.7470 h2        1 ATR      0.109700
     39 H8          2.3640    5.2800   -5.1110 h5        1 ATR      0.110800
     40 HN61        3.9300   11.1920   -5.0870 hn        1 ATR      0.369300
     41 HN62        4.2690    9.6570   -4.5880 hn        1 ATR      0.369300
     42 H2         -0.5570   11.0240   -6.2260 h5        1 ATR      0.008100
@<TRIPOS>BOND
     1    1    2 1   
     2    1    3 1   
     3    1    4 1   
     4    1    8 1   
     5    5    6 1   
     6    5    7 1   
     7    5    8 1   
     8    5    9 1   
     9    9   10 1   
    10   10   11 1   
    11   10   32 1   
    12   10   33 1   
    13   11   12 1   
    14   11   13 1   
    15   11   34 1   
    16   12   21 1   
    17   13   14 1   
    18   13   15 1   
    19   13   35 1   
    20   14   36 1   
    21   15   16 1   
    22   15   21 1   
    23   15   37 1   
    24   16   17 1   
    25   17   18 1   
    26   17   19 1   
    27   17   20 1   
    28   21   22 1   
    29   21   38 1   
    30   22   23 1   
    31   22   31 1   
    32   23   24 2   
    33   23   39 1   
    34   24   25 1   
    35   25   26 ar  
    36   25   31 ar  
    37   26   27 1   
    38   26   28 ar  
    39   27   40 1   
    40   27   41 1   
    41   28   29 ar  
    42   29   30 ar  
    43   29   42 1   
    44   30   31 ar  
@<TRIPOS>SUBSTRUCTURE
     1 ATR         1 TEMP              0 ****  ****    0 ROOT
