@<TRIPOS>MOLECULE
ATR
   42    44     1     0     0
SMALL
bcc


@<TRIPOS>ATOM
      1 PB         -0.6270   -0.1430    0.0740 p5        1 ATR      1.472900
      2 O1B         0.4400   -0.3210    1.1260 o         1 ATR     -0.972500
      3 O2B        -1.8630    0.5520    0.5850 o         1 ATR     -0.972500
      4 O3B        -0.9250   -1.4050   -0.6960 o         1 ATR     -0.972500
      5 PA          0.9490    1.9620   -1.9700 p5        1 ATR      1.579800
      6 O1A         2.1190    1.3330   -2.6510 o         1 ATR     -0.929500
      7 O2A         1.1900    3.2890   -1.3320 o         1 ATR     -0.929500
      8 O3A         0.1010    0.9720   -1.0950 os        1 ATR     -0.812800
      9 O5'        -0.0500    2.3820   -3.2990 os        1 ATR     -0.572200
     10 C5'         0.5900    3.2730   -4.1440 c3        1 ATR      0.188400
     11 C4'        -0.3010    3.6190   -5.3560 c3        1 ATR      0.085100
     12 O4'        -0.7250    5.0030   -5.2830 os        1 ATR     -0.423600
     13 C3'         0.3490    3.4260   -6.7440 c3        1 ATR      0.097100
     14 O3'        -0.3940    2.4860   -7.4950 oh        1 ATR     -0.626800
     15 C2'         0.4350    4.8270   -7.4280 c3        1 ATR      0.168100
     16 O2'        -0.3380    4.9040   -8.5490 os        1 ATR     -0.554200
     17 P2'         0.3640    5.5740  -10.0150 p5        1 ATR      1.315900
     18 O1P         0.0900    4.4860  -11.0170 o         1 ATR     -0.928833
     19 O2P        -0.4360    6.8320  -10.2140 o         1 ATR     -0.928833
     20 O3P         1.8080    5.7720   -9.6380 o         1 ATR     -0.928833
     21 C1'        -0.1610    5.7850   -6.3180 c3        1 ATR      0.187800
     22 N9          0.8420    6.7010   -5.7470 na        1 ATR     -0.207000
     23 C8          2.1010    6.3400   -5.2340 cc        1 ATR      0.488700
     24 N7          2.8890    7.3870   -4.8980 nd        1 ATR     -0.627100
     25 C5          2.1180    8.5170   -5.1860 ca        1 ATR     -0.180200
     26 C6          2.3720    9.9120   -5.0940 ca        1 ATR      0.633200
     27 N6          3.6030   10.3730   -4.5610 nv        1 ATR     -0.907500
     28 N1          1.4100   10.8060   -5.4750 nb        1 ATR     -0.812000
     29 C2          0.2230   10.2810   -5.9030 ca        1 ATR      0.609900
     30 N3         -0.1690    9.0000   -6.0480 nb        1 ATR     -0.658000
     31 C4          0.8000    8.0950   -5.7090 ca        1 ATR      0.453800
     32 H5'1        1.5570    2.8130   -4.4980 h1        1 ATR      0.015700
     33 H5'2        0.8290    4.2170   -3.5750 h1        1 ATR      0.015700
     34 H4'        -1.2560    3.0290   -5.2820 h1        1 ATR      0.087700
     35 H3'         1.3760    2.9840   -6.6400 h1        1 ATR      0.055700
     36 HO3'       -0.8880    2.9720   -8.1740 ho        1 ATR      0.430000
     37 H2'         1.5070    5.0870   -7.6670 h1        1 ATR      0.088700
     38 H1'        -0.9870    6.4270   -6.7390 h2        1 ATR      0.109700
     39 H8          2.3600    5.2740   -5.1060 h5        1 ATR      0.110800
     40 HN61        4.2820    9.6390   -4.5500 hn        1 ATR      0.369300
     41 HN62        3.9500   11.1800   -5.0380 hn        1 ATR      0.369300
     42 H2         -0.5350   11.0370   -6.1880 h5        1 ATR      0.008100
@<TRIPOS>BOND
     1    1    2 1   
     2    1    3 1   
     3    1    4 1   
     4    1    8 1   
     5    5    6 1   
     6    5    7 1   
     7    5    8 1   
     8    5    9 1   
     9    9   10 1   
    10   10   11 1   
    11   10   32 1   
    12   10   33 1   
    13   11   12 1   
    14   11   13 1   
    15   11   34 1   
    16   12   21 1   
    17   13   14 1   
    18   13   15 1   
    19   13   35 1   
    20   14   36 1   
    21   15   16 1   
    22   15   21 1   
    23   15   37 1   
    24   16   17 1   
    25   17   18 1   
    26   17   19 1   
    27   17   20 1   
    28   21   22 1   
    29   21   38 1   
    30   22   23 1   
    31   22   31 1   
    32   23   24 2   
    33   23   39 1   
    34   24   25 1   
    35   25   26 ar  
    36   25   31 ar  
    37   26   27 1   
    38   26   28 ar  
    39   27   40 1   
    40   27   41 1   
    41   28   29 ar  
    42   29   30 ar  
    43   29   42 1   
    44   30   31 ar  
@<TRIPOS>SUBSTRUCTURE
     1 ATR         1 TEMP              0 ****  ****    0 ROOT
