@<TRIPOS>MOLECULE
ATR
   42    44     1     0     0
SMALL
bcc


@<TRIPOS>ATOM
      1 PB         -0.6340   -0.1440    0.0720 p5        1 ATR      1.472900
      2 O1B         0.4260   -0.3120    1.1340 o         1 ATR     -0.972500
      3 O2B        -1.8800    0.5420    0.5710 o         1 ATR     -0.972500
      4 O3B        -0.9140   -1.4090   -0.6980 o         1 ATR     -0.972500
      5 PA          0.9440    1.9710   -1.9610 p5        1 ATR      1.579800
      6 O1A         2.1240    1.3500   -2.6310 o         1 ATR     -0.929500
      7 O2A         1.1680    3.3010   -1.3230 o         1 ATR     -0.929500
      8 O3A         0.0950    0.9750   -1.0930 os        1 ATR     -0.812800
      9 O5'        -0.0480    2.3800   -3.3000 os        1 ATR     -0.572200
     10 C5'         0.5930    3.2750   -4.1410 c3        1 ATR      0.188400
     11 C4'        -0.2910    3.6120   -5.3610 c3        1 ATR      0.085100
     12 O4'        -0.7240    4.9950   -5.2940 os        1 ATR     -0.423600
     13 C3'         0.3700    3.4210   -6.7440 c3        1 ATR      0.097100
     14 O3'        -0.3600    2.4750   -7.4980 oh        1 ATR     -0.626800
     15 C2'         0.4530    4.8210   -7.4300 c3        1 ATR      0.168100
     16 O2'        -0.3120    4.8910   -8.5570 os        1 ATR     -0.554200
     17 P2'         0.3970    5.5630  -10.0180 p5        1 ATR      1.315900
     18 O1P         0.1380    4.4710  -11.0200 o         1 ATR     -0.928833
     19 O2P        -0.4090    6.8160  -10.2260 o         1 ATR     -0.928833
     20 O3P         1.8370    5.7710   -9.6310 o         1 ATR     -0.928833
     21 C1'        -0.1560    5.7780   -6.3260 c3        1 ATR      0.187800
     22 N9          0.8370    6.7010   -5.7490 na        1 ATR     -0.207000
     23 C8          2.0940    6.3480   -5.2260 cc        1 ATR      0.488700
     24 N7          2.8730    7.4000   -4.8860 nd        1 ATR     -0.627100
     25 C5          2.0980    8.5250   -5.1820 ca        1 ATR     -0.180200
     26 C6          2.3430    9.9220   -5.0910 ca        1 ATR      0.633200
     27 N6          3.5670   10.3920   -4.5500 nh        1 ATR     -0.907500
     28 N1          1.3780   10.8090   -5.4810 nb        1 ATR     -0.812000
     29 C2          0.1980   10.2770   -5.9170 ca        1 ATR      0.609900
     30 N3         -0.1850    8.9930   -6.0630 nb        1 ATR     -0.658000
     31 C4          0.7860    8.0950   -5.7150 ca        1 ATR      0.453800
     32 H5'1        0.8200    4.2210   -3.5710 h1        1 ATR      0.016200
     33 H5'2        1.5660    2.8210   -4.4860 h1        1 ATR      0.016200
     34 H4'        -1.2420    3.0170   -5.2930 h1        1 ATR      0.087700
     35 H3'         1.4000    2.9850   -6.6310 h1        1 ATR      0.055700
     36 HO3'       -0.8530    2.9560   -8.1810 ho        1 ATR      0.430000
     37 H2'         1.5260    5.0870   -7.6620 h1        1 ATR      0.088700
     38 H1'        -0.9840    6.4140   -6.7540 h2        1 ATR      0.109700
     39 H8          2.3580    5.2830   -5.0930 h5        1 ATR      0.110800
     40 HN61        3.9130   11.1990   -5.0260 hn        1 ATR      0.369300
     41 HN62        4.2510    9.6610   -4.5320 hn        1 ATR      0.369300
     42 H2         -0.5620   11.0280   -6.2090 h5        1 ATR      0.008100
@<TRIPOS>BOND
     1    1    2 1   
     2    1    3 1   
     3    1    4 1   
     4    1    8 1   
     5    5    6 1   
     6    5    7 1   
     7    5    8 1   
     8    5    9 1   
     9    9   10 1   
    10   10   11 1   
    11   10   32 1   
    12   10   33 1   
    13   11   12 1   
    14   11   13 1   
    15   11   34 1   
    16   12   21 1   
    17   13   14 1   
    18   13   15 1   
    19   13   35 1   
    20   14   36 1   
    21   15   16 1   
    22   15   21 1   
    23   15   37 1   
    24   16   17 1   
    25   17   18 1   
    26   17   19 1   
    27   17   20 1   
    28   21   22 1   
    29   21   38 1   
    30   22   23 1   
    31   22   31 1   
    32   23   24 2   
    33   23   39 1   
    34   24   25 1   
    35   25   26 ar  
    36   25   31 ar  
    37   26   27 1   
    38   26   28 ar  
    39   27   40 1   
    40   27   41 1   
    41   28   29 ar  
    42   29   30 ar  
    43   29   42 1   
    44   30   31 ar  
@<TRIPOS>SUBSTRUCTURE
     1 ATR         1 TEMP              0 ****  ****    0 ROOT
