@<TRIPOS>MOLECULE
ATT
   40    41     1     0     0
SMALL
bcc


@<TRIPOS>ATOM
      1 C1          1.1130   -0.3910    0.8850 c3        1 ATT      0.051500
      2 C2          0.0190   -1.2880    1.4720 c         1 ATT      0.512100
      3 C3         -1.8540   -1.4570   -0.1460 c3        1 ATT      0.074100
      4 C7          4.4580    1.0710   -1.8680 ca        1 ATT     -0.104000
      5 C8          5.6570    0.8220   -1.1940 ca        1 ATT     -0.054000
      6 C9          5.6750   -0.0440   -0.0960 ca        1 ATT     -0.104000
      7 C10         4.5020   -0.6690    0.3220 ca        1 ATT     -0.119000
      8 C11         2.9320    2.2250    4.1380 cc        1 ATT      0.067300
      9 C12         5.1650    2.8040    4.8430 cc        1 ATT      0.314700
     10 N3          5.0250    1.4840    4.2650 nd        1 ATT     -0.233000
     11 N4          3.8690    1.1970    3.9160 nd        1 ATT     -0.284000
     12 S1          3.6820    3.6110    4.8310 ss        1 ATT      0.143200
     13 S2          6.6430    3.1950    5.3690 sh        1 ATT      0.284900
     14 N           1.5430    2.0320    3.8890 n4        1 ATT     -0.497500
     15 C           1.2360    1.5580    2.4840 c         1 ATT      0.481100
     16 O           0.4840    2.1920    1.7630 o         1 ATT     -0.322100
     17 N1          1.8920    0.3080    1.9850 n4        1 ATT     -0.644800
     18 O1         -0.2630   -1.3200    2.6650 o         1 ATT     -0.400100
     19 N2         -0.7470   -2.1740    0.5510 n4        1 ATT     -0.648800
     20 C4          2.0830   -1.2080   -0.0100 c3        1 ATT     -0.038100
     21 C5          3.2960   -0.4260   -0.3570 ca        1 ATT     -0.241300
     22 C6          3.2820    0.4470   -1.4560 ca        1 ATT     -0.119000
     23 H1          0.6250    0.4160    0.2450 hx        1 ATT      0.175700
     24 H31        -2.4060   -2.2000   -0.7960 hx        1 ATT      0.135700
     25 H32        -2.5710   -1.0360    0.6120 hx        1 ATT      0.135700
     26 H33        -1.4360   -0.6400   -0.7920 hx        1 ATT      0.135700
     27 H7          4.4480    1.7400   -2.7470 ha        1 ATT      0.184000
     28 H8          6.5950    1.2900   -1.5440 ha        1 ATT      0.189000
     29 H9          6.6270   -0.2600    0.4200 ha        1 ATT      0.184000
     30 H10         4.5450   -1.4030    1.1420 ha        1 ATT      0.143000
     31 HS2         6.4030    4.4280    5.7960 hs        1 ATT      0.179800
     32 HN          1.1570    1.3340    4.5540 hn        1 ATT      0.510300
     33 HN1         2.0740   -0.3530    2.7600 hn        1 ATT      0.524300
     34 HN2        -0.1110   -2.5940   -0.1460 hn        1 ATT      0.499300
     35 H41         2.3690   -2.1630    0.5060 hc        1 ATT      0.103200
     36 H42         1.5270   -1.4570   -0.9580 hc        1 ATT      0.103200
     37 H6          2.3530    0.6160   -2.0220 ha        1 ATT      0.143000
     38 HN3         1.0410    2.9370    4.0160 hn        1 ATT      0.510300
     39 H12         2.8310    0.5650    1.5600 hn        1 ATT      0.524300
     40 H22        -1.1630   -2.9460    1.1130 hn        1 ATT      0.499300
@<TRIPOS>BOND
     1    1    2 1   
     2    1   17 1   
     3    1   20 1   
     4    1   23 1   
     5    2   18 2   
     6    2   19 1   
     7    3   19 1   
     8    3   24 1   
     9    3   25 1   
    10    3   26 1   
    11    4    5 ar  
    12    4   22 ar  
    13    4   27 1   
    14    5    6 ar  
    15    5   28 1   
    16    6    7 ar  
    17    6   29 1   
    18    7   21 ar  
    19    7   30 1   
    20    8   11 2   
    21    8   12 1   
    22    8   14 1   
    23    9   10 2   
    24    9   12 1   
    25    9   13 1   
    26   10   11 1   
    27   13   31 1   
    28   14   15 1   
    29   14   32 1   
    30   14   38 1   
    31   15   16 2   
    32   15   17 1   
    33   17   33 1   
    34   17   39 1   
    35   19   34 1   
    36   19   40 1   
    37   20   21 1   
    38   20   35 1   
    39   20   36 1   
    40   21   22 ar  
    41   22   37 1   
@<TRIPOS>SUBSTRUCTURE
     1 ATT         1 TEMP              0 ****  ****    0 ROOT
