@<TRIPOS>MOLECULE
ATT
   39    40     1     0     0
SMALL
bcc


@<TRIPOS>ATOM
      1 C1          2.5260    0.6700    0.1500 c3        1 ATT      0.067500
      2 C2          1.3590    1.6130    0.4830 c         1 ATT      0.497100
      3 C3         -0.9300    0.6880    0.2960 c3        1 ATT      0.078100
      4 C7          4.7710   -2.4260   -2.2140 ca        1 ATT     -0.105000
      5 C8          5.4250   -3.2220   -1.2700 ca        1 ATT     -0.073000
      6 C9          5.0070   -3.2100    0.0630 ca        1 ATT     -0.105000
      7 C10         3.9390   -2.4050    0.4540 ca        1 ATT     -0.129000
      8 C11         2.4090    2.4590    4.1730 cc        1 ATT      0.245300
      9 C12         0.8620    3.3810    5.7450 cc        1 ATT      0.368700
     10 N3          0.2930    3.0560    4.5110 nd        1 ATT     -0.304000
     11 N4          1.1230    2.5730    3.6740 nd        1 ATT     -0.396000
     12 S1          2.5220    3.0020    5.7850 ss        1 ATT      0.107200
     13 S2         -0.1020    4.0600    6.9070 sh        1 ATT      0.009900
     14 N           3.4630    1.9060    3.4110 ns        1 ATT     -0.403400
     15 C           3.0880    0.8530    2.5930 c         1 ATT      0.633100
     16 O           2.3570   -0.1000    2.8780 o         1 ATT     -0.475100
     17 N1          3.6390    0.7860    1.1550 ny        1 ATT     -0.686800
     18 O1          1.3570    2.7870    0.1430 o         1 ATT     -0.347100
     19 N2          0.1630    1.1020    1.2160 ny        1 ATT     -0.653800
     20 C4          2.1050   -0.7920   -0.0840 c3        1 ATT     -0.046100
     21 C5          3.2830   -1.6020   -0.4920 ca        1 ATT     -0.198300
     22 C6          3.7010   -1.6200   -1.8280 ca        1 ATT     -0.129000
     23 H1          2.9490    1.0570   -0.8410 hx        1 ATT      0.167700
     24 H31        -1.8360    0.4260    0.9130 hx        1 ATT      0.125033
     25 H32        -1.1850    1.5410   -0.3920 hx        1 ATT      0.125033
     26 H33        -0.6140   -0.2090   -0.3000 hx        1 ATT      0.125033
     27 H7          5.0900   -2.4480   -3.2700 ha        1 ATT      0.171500
     28 H8          6.2620   -3.8710   -1.5810 ha        1 ATT      0.176000
     29 H9          5.5110   -3.8550    0.8030 ha        1 ATT      0.171500
     30 H10         3.5800   -2.4440    1.4950 ha        1 ATT      0.140500
     31 HS2         0.7900    4.1370    7.8850 hs        1 ATT      0.182800
     32 HN          4.1590    2.5630    3.1040 hn        1 ATT      0.354500
     33 HN1         4.2270    1.5940    0.9230 hn        1 ATT      0.490300
     34 HN2         0.4310    0.3150    1.8270 hn        1 ATT      0.496300
     35 H41         1.6420   -1.2320    0.8400 hc        1 ATT      0.095200
     36 H42         1.3400   -0.7920   -0.9090 hc        1 ATT      0.095200
     37 H6          3.1740   -1.0170   -2.5840 ha        1 ATT      0.140500
     38 H12         4.2150   -0.0800    1.0710 hn        1 ATT      0.490300
     39 H22        -0.2010    1.8710    1.8170 hn        1 ATT      0.496300
@<TRIPOS>BOND
     1    1    2 1   
     2    1   17 1   
     3    1   20 1   
     4    1   23 1   
     5    2   18 2   
     6    2   19 1   
     7    3   19 1   
     8    3   24 1   
     9    3   25 1   
    10    3   26 1   
    11    4    5 ar  
    12    4   22 ar  
    13    4   27 1   
    14    5    6 ar  
    15    5   28 1   
    16    6    7 ar  
    17    6   29 1   
    18    7   21 ar  
    19    7   30 1   
    20    8   11 2   
    21    8   12 1   
    22    8   14 1   
    23    9   10 2   
    24    9   12 1   
    25    9   13 1   
    26   10   11 1   
    27   13   31 1   
    28   14   15 1   
    29   14   32 1   
    30   15   16 2   
    31   15   17 1   
    32   17   33 1   
    33   17   38 1   
    34   19   34 1   
    35   19   39 1   
    36   20   21 1   
    37   20   35 1   
    38   20   36 1   
    39   21   22 ar  
    40   22   37 1   
@<TRIPOS>SUBSTRUCTURE
     1 ATT         1 TEMP              0 ****  ****    0 ROOT
