@<TRIPOS>MOLECULE
ATT
   39    40     1     0     0
SMALL
bcc


@<TRIPOS>ATOM
      1 C1          2.0520    0.1870    0.5040 c3        1 ATT      0.046500
      2 C2          0.6100    0.6710    0.6820 c         1 ATT      0.501100
      3 C3         -1.7940    0.0730    0.9080 c3        1 ATT      0.079100
      4 C7          5.6050   -1.1470   -2.0300 ca        1 ATT     -0.103500
      5 C8          6.0990   -2.2430   -1.3240 ca        1 ATT     -0.074000
      6 C9          5.2970   -2.8820   -0.3730 ca        1 ATT     -0.103500
      7 C10         4.0050   -2.4240   -0.1300 ca        1 ATT     -0.130000
      8 C11         2.8310    2.6370    4.0630 cc        1 ATT      0.191300
      9 C12         2.2560    4.4340    5.5130 cc        1 ATT      0.377700
     10 N3          1.4200    4.3110    4.3960 nd        1 ATT     -0.320000
     11 N4          1.7280    3.3550    3.6220 nd        1 ATT     -0.285000
     12 S1          3.4570    3.2410    5.5370 ss        1 ATT      0.124200
     13 S2          2.0950    5.5970    6.6620 sh        1 ATT     -0.069100
     14 N           3.3460    1.5250    3.3620 n         1 ATT     -0.377400
     15 C           2.4380    0.5740    2.9780 c         1 ATT      0.650100
     16 O           1.3880    0.2110    3.5230 o         1 ATT     -0.524100
     17 N1          2.7420   -0.3030    1.7360 n4        1 ATT     -0.689800
     18 O1          0.2310    1.7480    0.2560 o         1 ATT     -0.317100
     19 N2         -0.3980   -0.2310    1.3300 n4        1 ATT     -0.664800
     20 C4          2.1060   -0.8710   -0.6220 c3        1 ATT     -0.041100
     21 C5          3.5060   -1.3180   -0.8360 ca        1 ATT     -0.198300
     22 C6          4.3100   -0.6840   -1.7900 ca        1 ATT     -0.130000
     23 H1          2.6290    1.1070    0.1470 hx        1 ATT      0.171700
     24 H31        -1.9000   -0.0910   -0.1990 hx        1 ATT      0.130033
     25 H32        -2.0350    1.1470    1.1480 hx        1 ATT      0.130033
     26 H33        -2.4930   -0.6080    1.4680 hx        1 ATT      0.130033
     27 H7          6.2300   -0.6540   -2.7950 ha        1 ATT      0.173000
     28 H8          7.1180   -2.6190   -1.5260 ha        1 ATT      0.178000
     29 H9          5.6810   -3.7640    0.1670 ha        1 ATT      0.173000
     30 H10         3.3610   -2.9750    0.5720 ha        1 ATT      0.134500
     31 HS2         1.0760    6.3160    6.1870 hs        1 ATT      0.237800
     32 HN          4.1540    1.7140    2.7940 hn        1 ATT      0.356500
     33 HN1         3.7500   -0.3630    1.5130 hn        1 ATT      0.479300
     34 HN2        -0.1820   -1.2080    1.1030 hn        1 ATT      0.479300
     35 H41         1.7010   -0.3910   -1.5570 hc        1 ATT      0.095700
     36 H42         1.4510   -1.7460   -0.3680 hc        1 ATT      0.095700
     37 H6          3.9180    0.1640   -2.3740 ha        1 ATT      0.134500
     38 H12         2.4320   -1.2620    1.9510 hn        1 ATT      0.479300
     39 H22        -0.3330   -0.1070    2.3590 hn        1 ATT      0.479300
@<TRIPOS>BOND
     1    1    2 1   
     2    1   17 1   
     3    1   20 1   
     4    1   23 1   
     5    2   18 2   
     6    2   19 1   
     7    3   19 1   
     8    3   24 1   
     9    3   25 1   
    10    3   26 1   
    11    4    5 ar  
    12    4   22 ar  
    13    4   27 1   
    14    5    6 ar  
    15    5   28 1   
    16    6    7 ar  
    17    6   29 1   
    18    7   21 ar  
    19    7   30 1   
    20    8   11 2   
    21    8   12 1   
    22    8   14 1   
    23    9   10 2   
    24    9   12 1   
    25    9   13 1   
    26   10   11 1   
    27   13   31 1   
    28   14   15 1   
    29   14   32 1   
    30   15   16 2   
    31   15   17 1   
    32   17   33 1   
    33   17   38 1   
    34   19   34 1   
    35   19   39 1   
    36   20   21 1   
    37   20   35 1   
    38   20   36 1   
    39   21   22 ar  
    40   22   37 1   
@<TRIPOS>SUBSTRUCTURE
     1 ATT         1 TEMP              0 ****  ****    0 ROOT
