@<TRIPOS>MOLECULE
ATT
   37    38     1     0     0
SMALL
bcc


@<TRIPOS>ATOM
      1 C1          0.8590   -0.0090    2.5520 c3        1 ATT      0.034700
      2 C2          2.3700   -0.1720    2.8700 c         1 ATT      0.650100
      3 C3          4.6660    0.2230    2.0870 c3        1 ATT      0.077300
      4 C7         -3.4130    1.0890    3.3840 ca        1 ATT     -0.124500
      5 C8         -4.1700   -0.0720    3.2200 ca        1 ATT     -0.124000
      6 C9         -3.5450   -1.3190    3.2550 ca        1 ATT     -0.124500
      7 C10        -2.1670   -1.4050    3.4500 ca        1 ATT     -0.130500
      8 C11        -0.0610   -0.5250   -2.2000 cc        1 ATT      0.430300
      9 C12         0.3370    0.5840   -4.2720 cc        1 ATT      0.334700
     10 N3         -0.3080   -0.6130   -4.4070 nd        1 ATT     -0.318000
     11 N4         -0.5280   -1.2260   -3.2920 nd        1 ATT     -0.351000
     12 S1          0.6930    0.9670   -2.6510 ss        1 ATT      0.020200
     13 S2          0.7590    1.5970   -5.5340 sh        1 ATT     -0.276100
     14 N          -0.2140   -0.9540   -0.8860 n         1 ATT     -0.513400
     15 C           0.4680   -0.2860    0.1490 c         1 ATT      0.763100
     16 O           1.0780    0.7870   -0.1090 o         1 ATT     -0.653100
     17 N1          0.4780   -0.8440    1.4290 n         1 ATT     -0.527900
     18 O1          2.7400   -0.6910    3.9420 o         1 ATT     -0.614100
     19 N2          3.2480    0.3060    1.9330 n         1 ATT     -0.562900
     20 C4          0.0650   -0.3370    3.8290 c3        1 ATT     -0.048100
     21 C5         -1.4030   -0.2430    3.6110 ca        1 ATT     -0.099300
     22 C6         -2.0360    1.0050    3.5790 ca        1 ATT     -0.130500
     23 H1          0.6780    1.0800    2.2880 h1        1 ATT      0.087700
     24 H31         5.1070   -0.4110    1.2700 h1        1 ATT      0.045367
     25 H32         5.1170    1.2510    2.0250 h1        1 ATT      0.045367
     26 H33         4.9260   -0.2300    3.0810 h1        1 ATT      0.045367
     27 H7         -3.9040    2.0730    3.3600 ha        1 ATT      0.136000
     28 H8         -5.2570   -0.0050    3.0670 ha        1 ATT      0.136000
     29 H9         -4.1400   -2.2360    3.1340 ha        1 ATT      0.136000
     30 H10        -1.6810   -2.3920    3.4930 ha        1 ATT      0.133000
     31 HS2         0.3440    0.8950   -6.5810 hs        1 ATT      0.218800
     32 HN         -0.6250   -1.8500   -0.7360 hn        1 ATT      0.345500
     33 HN1        -0.1570   -1.5830    1.6420 hn        1 ATT      0.321500
     34 HN2         2.8940    0.7010    1.0900 hn        1 ATT      0.337500
     35 H41         0.3510   -1.3590    4.1950 hc        1 ATT      0.083700
     36 H42         0.3910    0.3940    4.6170 hc        1 ATT      0.083700
     37 H6         -1.4420    1.9210    3.7130 ha        1 ATT      0.133000
@<TRIPOS>BOND
     1    1    2 1   
     2    1   17 1   
     3    1   20 1   
     4    1   23 1   
     5    2   18 2   
     6    2   19 1   
     7    3   19 1   
     8    3   24 1   
     9    3   25 1   
    10    3   26 1   
    11    4    5 ar  
    12    4   22 ar  
    13    4   27 1   
    14    5    6 ar  
    15    5   28 1   
    16    6    7 ar  
    17    6   29 1   
    18    7   21 ar  
    19    7   30 1   
    20    8   11 2   
    21    8   12 1   
    22    8   14 1   
    23    9   10 2   
    24    9   12 1   
    25    9   13 1   
    26   10   11 1   
    27   13   31 1   
    28   14   15 1   
    29   14   32 1   
    30   15   16 2   
    31   15   17 1   
    32   17   33 1   
    33   19   34 1   
    34   20   21 1   
    35   20   35 1   
    36   20   36 1   
    37   21   22 ar  
    38   22   37 1   
@<TRIPOS>SUBSTRUCTURE
     1 ATT         1 TEMP              0 ****  ****    0 ROOT
