@<TRIPOS>MOLECULE
ATT
   37    34     1     0     0
SMALL
bcc


@<TRIPOS>ATOM
      1 C1         -0.3580   -0.7500   -0.3070 c3        1 ATT     -0.008000
      2 C2         -1.8700   -0.7740   -0.2700 c2        1 ATT      0.275000
      3 C3         -4.0370    0.1030   -1.0420 c3        1 ATT     -0.080000
      4 C7          1.1020   -0.8730   -4.4920 c1        1 ATT     -0.131000
      5 C8          2.4760   -1.0540   -4.4750 c1        1 ATT     -0.125500
      6 C9          3.1010   -1.5050   -3.3230 c1        1 ATT     -0.125500
      7 C10         2.3520   -1.7760   -2.1880 c1        1 ATT     -0.125000
      8 C11         0.4790    1.7960    3.7930 c1        1 ATT     -0.398500
      9 C12         0.8100    3.4680    5.5820 c1        1 ATT     -0.398500
     10 N3          0.5740    4.1540    4.3670 n2        1 ATT     -0.072500
     11 N4          0.3630    3.0860    3.2250 n2        1 ATT     -0.072500
     12 S1          0.7640    1.9650    5.2890 ss        1 ATT      0.651000
     13 S2          1.2180    4.2140    7.1380 s         1 ATT      0.219000
     14 N           0.2790    0.5650    3.1160 n2        1 ATT     -0.281000
     15 C           0.2680    0.5300    1.6970 c2        1 ATT      0.382000
     16 O           0.4300    1.5540    1.0630 o         1 ATT     -0.395000
     17 N1          0.1470   -0.7110    1.0190 n         1 ATT     -0.315000
     18 O1         -2.4470   -1.5640    0.4510 o         1 ATT     -0.385000
     19 N2         -2.6140    0.1000   -1.1040 n         1 ATT     -0.366000
     20 C4          0.1490   -1.9930   -1.0040 c3        1 ATT     -0.126000
     21 C5          0.9780   -1.5950   -2.2060 c2        1 ATT     -0.099000
     22 C6          0.3530   -1.1440   -3.3580 c2        1 ATT     -0.131000
     23 H1         -0.0570    0.0420   -0.7940 h1        1 ATT      0.154000
     24 H31        -4.3260    0.4610   -0.1750 h1        1 ATT      0.087000
     25 H32        -4.3710   -0.8140   -1.1460 h1        1 ATT      0.087000
     26 H33        -4.3940    0.6650   -1.7640 h1        1 ATT      0.087000
     27 H7          0.6620   -0.5560   -5.3030 ha        1 ATT      0.136000
     28 H8          3.0040   -0.8630   -5.2740 ha        1 ATT      0.137000
     29 H9          4.0690   -1.6320   -3.3100 ha        1 ATT      0.137000
     30 H10         2.7920   -2.0930   -1.3770 ha        1 ATT      0.146000
     31 HS2         0.3120    4.0950    7.8800 hs        1 ATT      0.046000
     32 HN          0.1280   -0.1970    3.5920 hn        1 ATT      0.261000
     33 HN1         0.3730   -1.4860    1.4440 hn        1 ATT      0.235000
     34 HN2        -2.1820    0.6470   -1.6910 hn        1 ATT      0.238000
     35 H41        -0.6110   -2.5360   -1.2960 hc        1 ATT      0.110500
     36 H42         0.7010   -2.5110   -0.3850 hc        1 ATT      0.110500
     37 H6         -0.6150   -1.0170   -3.3710 ha        1 ATT      0.136000
@<TRIPOS>BOND
     1    1    2 1   
     2    1   17 1   
     3    1   20 1   
     4    1   23 1   
     5    2   18 1   
     6    2   19 1   
     7    3   19 1   
     8    3   24 1   
     9    3   25 1   
    10    3   26 1   
    11    4   22 1   
    12    4   27 1   
    13    5    6 1   
    14    5   28 1   
    15    6   29 1   
    16    7   21 1   
    17    7   30 1   
    18    8   11 1   
    19    8   12 1   
    20    9   10 1   
    21    9   12 1   
    22   10   11 1   
    23   13   31 1   
    24   14   15 1   
    25   14   32 1   
    26   15   16 1   
    27   15   17 1   
    28   17   33 1   
    29   19   34 1   
    30   20   21 1   
    31   20   35 1   
    32   20   36 1   
    33   21   22 1   
    34   22   37 1   
@<TRIPOS>SUBSTRUCTURE
     1 ATT         1 TEMP              0 ****  ****    0 ROOT
