@<TRIPOS>MOLECULE
ATU
   33    36     1     0     0
SMALL
bcc


@<TRIPOS>ATOM
      1 N1          2.7120    1.6800    0.6320 n         1 ATU     -0.474100
      2 C2          1.5830    2.3390    0.1540 c         1 ATU      0.704500
      3 C3          0.6510    1.6760   -0.8400 c3        1 ATU     -0.071200
      4 O4          1.3680    3.4870    0.5820 o         1 ATU     -0.619500
      5 C5          2.5190   -0.6950   -0.0890 ca        1 ATU     -0.079800
      6 C6          3.2720    0.4730    0.1970 ca        1 ATU      0.097600
      7 C7          4.6880    0.3950    0.1060 ca        1 ATU     -0.173000
      8 C8          5.3190   -0.7840   -0.2560 ca        1 ATU     -0.090000
      9 C9          4.5680   -1.9250   -0.5480 ca        1 ATU     -0.149000
     10 C10         3.1840   -1.8740   -0.4650 ca        1 ATU     -0.097000
     11 N11         0.3070   -1.7980    0.3940 na        1 ATU     -0.175400
     12 C12         0.2130    0.3650   -0.3610 cc        1 ATU     -0.117400
     13 C13         1.0700   -0.6900   -0.0190 cd        1 ATU      0.019700
     14 C14        -1.1410   -0.0910   -0.1450 ca        1 ATU     -0.100800
     15 C15        -1.0380   -1.4540    0.3370 ca        1 ATU     -0.003200
     16 C16        -2.1890   -2.2000    0.6500 ca        1 ATU     -0.154000
     17 C17        -3.4220   -1.5990    0.4820 ca        1 ATU     -0.057000
     18 C18        -3.5210   -0.2670    0.0060 ca        1 ATU     -0.207200
     19 C19        -2.3910    0.4970   -0.3070 ca        1 ATU     -0.007000
     20 N20        -4.8680    0.3320   -0.1620 no        1 ATU      0.317200
     21 O21        -4.9590    1.4540   -0.5860 o         1 ATU     -0.214500
     22 O22        -5.8370   -0.3190    0.1270 o         1 ATU     -0.214500
     23 HN1         3.3110    2.2380    1.2100 hn        1 ATU      0.326500
     24 HC31        1.1880    1.5800   -1.8250 hc        1 ATU      0.088700
     25 HC32       -0.2290    2.3590   -0.9910 hc        1 ATU      0.088700
     26 HC7         5.3000    1.2840    0.3280 ha        1 ATU      0.143000
     27 HC8         6.4180   -0.8180   -0.3190 ha        1 ATU      0.141000
     28 HC9         5.0720   -2.8570   -0.8450 ha        1 ATU      0.142000
     29 H10         2.5980   -2.7720   -0.7140 ha        1 ATU      0.134000
     30 H11         0.6760   -2.6420    0.7470 hn        1 ATU      0.308700
     31 H16        -2.1130   -3.2320    1.0180 ha        1 ATU      0.148000
     32 H17        -4.3450   -2.1570    0.7190 ha        1 ATU      0.171000
     33 H19        -2.4860    1.5340   -0.6710 ha        1 ATU      0.175000
@<TRIPOS>BOND
     1    1    2 1   
     2    1    6 1   
     3    1   23 1   
     4    2    3 1   
     5    2    4 2   
     6    3   12 1   
     7    3   24 1   
     8    3   25 1   
     9    5    6 ar  
    10    5   10 ar  
    11    5   13 1   
    12    6    7 ar  
    13    7    8 ar  
    14    7   26 1   
    15    8    9 ar  
    16    8   27 1   
    17    9   10 ar  
    18    9   28 1   
    19   10   29 1   
    20   11   13 1   
    21   11   15 1   
    22   11   30 1   
    23   12   13 2   
    24   12   14 1   
    25   14   15 ar  
    26   14   19 ar  
    27   15   16 ar  
    28   16   17 ar  
    29   16   31 1   
    30   17   18 ar  
    31   17   32 1   
    32   18   19 ar  
    33   18   20 1   
    34   19   33 1   
    35   20   21 1   
    36   20   22 1   
@<TRIPOS>SUBSTRUCTURE
     1 ATU         1 TEMP              0 ****  ****    0 ROOT
