@<TRIPOS>MOLECULE
ATU
   33    36     1     0     0
SMALL
bcc


@<TRIPOS>ATOM
      1 N1          0.0100    0.0100   -0.0120 n         1 ATU     -0.474100
      2 C2          1.4000    0.0950   -0.0070 c         1 ATU      0.704500
      3 C3          2.1860   -0.0060    1.2840 c3        1 ATU     -0.071200
      4 O4          1.9660    0.2490   -1.1040 o         1 ATU     -0.619500
      5 C5         -0.6730   -0.7500    2.2590 ca        1 ATU     -0.079800
      6 C6         -0.8710    0.0080    1.0760 ca        1 ATU      0.097600
      7 C7         -2.0730    0.7570    0.9550 ca        1 ATU     -0.173000
      8 C8         -3.0240    0.7530    1.9630 ca        1 ATU     -0.090000
      9 C9         -2.8130    0.0130    3.1290 ca        1 ATU     -0.149000
     10 C10        -1.6480   -0.7260    3.2690 ca        1 ATU     -0.097000
     11 N11         0.5550   -2.7630    3.1430 na        1 ATU     -0.175400
     12 C12         1.8270   -1.2130    2.0290 cc        1 ATU     -0.117400
     13 C13         0.5310   -1.5360    2.4530 cd        1 ATU      0.019700
     14 C14         2.7000   -2.2810    2.4580 ca        1 ATU     -0.100800
     15 C15         1.8610   -3.2400    3.1480 ca        1 ATU     -0.003200
     16 C16         2.4050   -4.4150    3.6970 ca        1 ATU     -0.154000
     17 C17         3.7640   -4.6300    3.5630 ca        1 ATU     -0.057000
     18 C18         4.5840   -3.6890    2.8910 ca        1 ATU     -0.207200
     19 C19         4.0660   -2.5160    2.3330 ca        1 ATU     -0.007000
     20 N20         6.0380   -3.9630    2.7780 no        1 ATU      0.317200
     21 O21         6.7430   -3.1590    2.2280 o         1 ATU     -0.214500
     22 O22         6.4790   -4.9820    3.2410 o         1 ATU     -0.214500
     23 HN1        -0.4190    0.1830   -0.9010 hn        1 ATU      0.326500
     24 HC31        3.2790   -0.0130    1.0190 hc        1 ATU      0.088700
     25 HC32        1.9840    0.9150    1.8990 hc        1 ATU      0.088700
     26 HC7        -2.2580    1.3500    0.0450 ha        1 ATU      0.143000
     27 HC8        -3.9470    1.3410    1.8440 ha        1 ATU      0.141000
     28 HC9        -3.5660    0.0210    3.9320 ha        1 ATU      0.142000
     29 H10        -1.4800   -1.2920    4.1990 ha        1 ATU      0.134000
     30 H11        -0.2380   -3.2390    3.4840 hn        1 ATU      0.308700
     31 H16         1.7700   -5.1450    4.2180 ha        1 ATU      0.148000
     32 H17         4.2210   -5.5430    3.9820 ha        1 ATU      0.171000
     33 H19         4.7180   -1.7970    1.8070 ha        1 ATU      0.175000
@<TRIPOS>BOND
     1    1    2 1   
     2    1    6 1   
     3    1   23 1   
     4    2    3 1   
     5    2    4 2   
     6    3   12 1   
     7    3   24 1   
     8    3   25 1   
     9    5    6 ar  
    10    5   10 ar  
    11    5   13 1   
    12    6    7 ar  
    13    7    8 ar  
    14    7   26 1   
    15    8    9 ar  
    16    8   27 1   
    17    9   10 ar  
    18    9   28 1   
    19   10   29 1   
    20   11   13 1   
    21   11   15 1   
    22   11   30 1   
    23   12   13 2   
    24   12   14 1   
    25   14   15 ar  
    26   14   19 ar  
    27   15   16 ar  
    28   16   17 ar  
    29   16   31 1   
    30   17   18 ar  
    31   17   32 1   
    32   18   19 ar  
    33   18   20 1   
    34   19   33 1   
    35   20   21 1   
    36   20   22 1   
@<TRIPOS>SUBSTRUCTURE
     1 ATU         1 TEMP              0 ****  ****    0 ROOT
