@<TRIPOS>MOLECULE
ATU
   33    36     1     0     0
SMALL
bcc


@<TRIPOS>ATOM
      1 N1          0.0110    0.0120   -0.0120 ns        1 ATU     -0.474100
      2 C2          1.4010    0.0960   -0.0060 c         1 ATU      0.704500
      3 C3          2.1870   -0.0060    1.2850 c3        1 ATU     -0.071200
      4 O4          1.9680    0.2500   -1.1030 o         1 ATU     -0.619500
      5 C5         -0.6720   -0.7500    2.2580 ca        1 ATU     -0.079800
      6 C6         -0.8700    0.0090    1.0760 ca        1 ATU      0.097600
      7 C7         -2.0720    0.7580    0.9550 ca        1 ATU     -0.173000
      8 C8         -3.0230    0.7540    1.9620 ca        1 ATU     -0.090000
      9 C9         -2.8130    0.0140    3.1280 ca        1 ATU     -0.149000
     10 C10        -1.6480   -0.7250    3.2690 ca        1 ATU     -0.097000
     11 N11         0.5550   -2.7630    3.1430 na        1 ATU     -0.175400
     12 C12         1.8270   -1.2130    2.0290 cc        1 ATU     -0.117400
     13 C13         0.5300   -1.5360    2.4530 cd        1 ATU      0.019700
     14 C14         2.7000   -2.2820    2.4580 ca        1 ATU     -0.100800
     15 C15         1.8600   -3.2410    3.1480 ca        1 ATU     -0.003200
     16 C16         2.4040   -4.4160    3.6960 ca        1 ATU     -0.154000
     17 C17         3.7620   -4.6320    3.5630 ca        1 ATU     -0.057000
     18 C18         4.5830   -3.6910    2.8910 ca        1 ATU     -0.207200
     19 C19         4.0660   -2.5170    2.3330 ca        1 ATU     -0.007000
     20 N20         6.0370   -3.9660    2.7780 no        1 ATU      0.317200
     21 O21         6.7420   -3.1610    2.2290 o         1 ATU     -0.214500
     22 O22         6.4770   -4.9850    3.2410 o         1 ATU     -0.214500
     23 HN1        -0.4170    0.1850   -0.9000 hn        1 ATU      0.326500
     24 HC31        1.9850    0.9150    1.9010 hc        1 ATU      0.088700
     25 HC32        3.2800   -0.0130    1.0210 hc        1 ATU      0.088700
     26 HC7        -2.2560    1.3530    0.0450 ha        1 ATU      0.143000
     27 HC8        -3.9460    1.3430    1.8440 ha        1 ATU      0.141000
     28 HC9        -3.5660    0.0210    3.9300 ha        1 ATU      0.142000
     29 H10        -1.4810   -1.2920    4.1980 ha        1 ATU      0.134000
     30 H11        -0.2390   -3.2390    3.4820 hn        1 ATU      0.308700
     31 H16         1.7680   -5.1460    4.2170 ha        1 ATU      0.148000
     32 H17         4.2190   -5.5450    3.9810 ha        1 ATU      0.171000
     33 H19         4.7180   -1.7980    1.8080 ha        1 ATU      0.175000
@<TRIPOS>BOND
     1    1    2 1   
     2    1    6 1   
     3    1   23 1   
     4    2    3 1   
     5    2    4 2   
     6    3   12 1   
     7    3   24 1   
     8    3   25 1   
     9    5    6 ar  
    10    5   10 ar  
    11    5   13 1   
    12    6    7 ar  
    13    7    8 ar  
    14    7   26 1   
    15    8    9 ar  
    16    8   27 1   
    17    9   10 ar  
    18    9   28 1   
    19   10   29 1   
    20   11   13 1   
    21   11   15 1   
    22   11   30 1   
    23   12   13 2   
    24   12   14 1   
    25   14   15 ar  
    26   14   19 ar  
    27   15   16 ar  
    28   16   17 ar  
    29   16   31 1   
    30   17   18 ar  
    31   17   32 1   
    32   18   19 ar  
    33   18   20 1   
    34   19   33 1   
    35   20   21 1   
    36   20   22 1   
@<TRIPOS>SUBSTRUCTURE
     1 ATU         1 TEMP              0 ****  ****    0 ROOT
