@<TRIPOS>MOLECULE
ATU
   33    29     1     0     0
SMALL
bcc


@<TRIPOS>ATOM
      1 N1         -1.3090    1.4790   -1.5410 n         1 ATU     -0.328000
      2 C2         -0.1700    1.5160   -1.5700 c2        1 ATU      0.312000
      3 C3          0.3520    1.6150   -0.2690 c3        1 ATU     -0.104000
      4 O4          0.4960    1.6250   -2.5930 o         1 ATU     -0.344000
      5 C5         -2.1130    0.6550    0.3760 c1        1 ATU     -0.068000
      6 C6         -1.7570    1.7790   -0.3000 c2        1 ATU      0.105000
      7 C7         -2.6300    2.9060   -0.3140 c2        1 ATU     -0.173000
      8 C8         -3.8450    2.8520    0.3650 c1        1 ATU     -0.090000
      9 C9         -4.2030    1.7020    1.0530 c1        1 ATU     -0.123000
     10 C10        -3.3460    0.6010    1.0640 c1        1 ATU     -0.123000
     11 N11        -0.5110   -1.6330    1.0830 n2        1 ATU     -0.198000
     12 C12         0.5250    0.2430    0.1870 c2        1 ATU     -0.125000
     13 C13        -0.7610   -0.3420    0.7120 c1        1 ATU      0.035000
     14 C14         1.5120   -0.7480    0.2680 c1        1 ATU     -0.089000
     15 C15         0.9180   -1.9210    0.8150 c1        1 ATU      0.042000
     16 C16         1.6580   -3.1030    0.8930 c1        1 ATU     -0.154000
     17 C17         2.9770   -3.1320    0.4350 c1        1 ATU     -0.057000
     18 C18         3.5620   -1.9690   -0.1060 c1        1 ATU     -0.162000
     19 C19         2.8250   -0.7840   -0.1860 c1        1 ATU     -0.007000
     20 N20         4.6470   -2.3900   -0.9260 no        1 ATU      0.572000
     21 O21         4.6690   -2.0960   -2.0770 o         1 ATU     -0.364500
     22 O22         5.7170   -3.0450   -0.3650 o         1 ATU     -0.364500
     23 HN1        -1.8210    1.1760   -2.2020 hn        1 ATU      0.240000
     24 HC31       -0.0620    2.2390    0.3330 hc        1 ATU      0.128000
     25 HC32        1.2680    2.0220   -0.3440 hc        1 ATU      0.128000
     26 HC7        -2.3640    3.7460   -0.8160 ha        1 ATU      0.143000
     27 HC8        -4.4500    3.6280    0.3550 ha        1 ATU      0.141000
     28 HC9        -5.0880    1.6610    1.5470 ha        1 ATU      0.138000
     29 H10        -3.5950   -0.1990    1.5430 ha        1 ATU      0.138000
     30 H11        -1.1120   -2.2150    1.3890 DU        1 ATU      0.259000
     31 H16         1.2690   -3.8800    1.2540 ha        1 ATU      0.148000
     32 H17         3.5170   -3.9930    0.4920 ha        1 ATU      0.171000
     33 H19         3.2260    0.0060   -0.5550 ha        1 ATU      0.175000
@<TRIPOS>BOND
     1    1    2 1   
     2    1    6 1   
     3    1   23 1   
     4    2    3 1   
     5    2    4 1   
     6    3   12 1   
     7    3   24 1   
     8    3   25 1   
     9    5    6 1   
    10    6    7 1   
    11    7    8 1   
    12    7   26 1   
    13    8   27 1   
    14    9   10 1   
    15    9   28 1   
    16   10   29 1   
    17   11   13 1   
    18   11   15 1   
    19   12   13 1   
    20   12   14 1   
    21   14   19 1   
    22   15   16 1   
    23   16   31 1   
    24   17   18 1   
    25   17   32 1   
    26   18   20 1   
    27   19   33 1   
    28   20   21 1   
    29   20   22 1   
@<TRIPOS>SUBSTRUCTURE
     1 ATU         1 TEMP              0 ****  ****    0 ROOT
