@<TRIPOS>MOLECULE
ATU
   33    36     1     0     0
SMALL
bcc


@<TRIPOS>ATOM
      1 N1          0.0150    0.0130   -0.0120 n         1 ATU     -0.474100
      2 C2          1.4050    0.0960   -0.0070 c         1 ATU      0.704500
      3 C3          2.1910   -0.0040    1.2840 c3        1 ATU     -0.071200
      4 O4          1.9710    0.2500   -1.1040 o         1 ATU     -0.619500
      5 C5         -0.6690   -0.7470    2.2590 ca        1 ATU     -0.079800
      6 C6         -0.8670    0.0110    1.0760 ca        1 ATU      0.097600
      7 C7         -2.0680    0.7610    0.9550 ca        1 ATU     -0.173000
      8 C8         -3.0190    0.7580    1.9620 ca        1 ATU     -0.090000
      9 C9         -2.8090    0.0180    3.1280 ca        1 ATU     -0.149000
     10 C10        -1.6440   -0.7220    3.2690 ca        1 ATU     -0.097000
     11 N11         0.5580   -2.7600    3.1440 na        1 ATU     -0.175400
     12 C12         1.8300   -1.2110    2.0290 cc        1 ATU     -0.117400
     13 C13         0.5340   -1.5340    2.4530 cd        1 ATU      0.019700
     14 C14         2.7030   -2.2800    2.4580 ca        1 ATU     -0.100800
     15 C15         1.8630   -3.2380    3.1490 ca        1 ATU     -0.003200
     16 C16         2.4070   -4.4130    3.6980 ca        1 ATU     -0.154000
     17 C17         3.7650   -4.6290    3.5640 ca        1 ATU     -0.057000
     18 C18         4.5860   -3.6890    2.8920 ca        1 ATU     -0.207200
     19 C19         4.0690   -2.5150    2.3340 ca        1 ATU     -0.007000
     20 N20         6.0400   -3.9640    2.7790 no        1 ATU      0.317200
     21 O21         6.7450   -3.1600    2.2290 o         1 ATU     -0.214500
     22 O22         6.4800   -4.9830    3.2430 o         1 ATU     -0.214500
     23 HN1        -0.4140    0.1860   -0.9010 hn        1 ATU      0.326500
     24 HC31        1.9890    0.9160    1.8990 hc        1 ATU      0.088700
     25 HC32        3.2840   -0.0120    1.0190 hc        1 ATU      0.088700
     26 HC7        -2.2520    1.3540    0.0450 ha        1 ATU      0.143000
     27 HC8        -3.9420    1.3470    1.8430 ha        1 ATU      0.141000
     28 HC9        -3.5610    0.0260    3.9310 ha        1 ATU      0.142000
     29 H10        -1.4770   -1.2880    4.1990 ha        1 ATU      0.134000
     30 H11        -0.2360   -3.2360    3.4840 hn        1 ATU      0.308700
     31 H16         1.7710   -5.1420    4.2190 ha        1 ATU      0.148000
     32 H17         4.2220   -5.5430    3.9840 ha        1 ATU      0.171000
     33 H19         4.7210   -1.7970    1.8080 ha        1 ATU      0.175000
@<TRIPOS>BOND
     1    1    2 1   
     2    1    6 1   
     3    1   23 1   
     4    2    3 1   
     5    2    4 2   
     6    3   12 1   
     7    3   24 1   
     8    3   25 1   
     9    5    6 ar  
    10    5   10 ar  
    11    5   13 1   
    12    6    7 ar  
    13    7    8 ar  
    14    7   26 1   
    15    8    9 ar  
    16    8   27 1   
    17    9   10 ar  
    18    9   28 1   
    19   10   29 1   
    20   11   13 1   
    21   11   15 1   
    22   11   30 1   
    23   12   13 2   
    24   12   14 1   
    25   14   15 ar  
    26   14   19 ar  
    27   15   16 ar  
    28   16   17 ar  
    29   16   31 1   
    30   17   18 ar  
    31   17   32 1   
    32   18   19 ar  
    33   18   20 1   
    34   19   33 1   
    35   20   21 1   
    36   20   22 1   
@<TRIPOS>SUBSTRUCTURE
     1 ATU         1 TEMP              0 ****  ****    0 ROOT
