@<TRIPOS>MOLECULE
ATV
   30    33     1     0     0
SMALL
bcc


@<TRIPOS>ATOM
      1 OAA        -0.0190    0.0620    0.1090 o         1 ATV     -0.612500
      2 OAB         0.8000   -0.2550   -4.3990 o         1 ATV     -0.612500
      3 CAC         4.1360    0.1390    0.9900 ca        1 ATV     -0.149500
      4 CAD         4.9930   -0.0810   -3.7860 ca        1 ATV     -0.149500
      5 CAE         5.0320    0.1020   -0.0520 ca        1 ATV     -0.075500
      6 CAF         5.4720   -0.0090   -2.5000 ca        1 ATV     -0.075500
      7 CAG         2.7440    0.1070    0.7430 ca        1 ATV     -0.034500
      8 CAH         3.6020   -0.1210   -4.0360 ca        1 ATV     -0.034500
      9 CAI        -2.7910    1.8020   -2.9810 cx        1 ATV      0.059400
     10 CAJ        -1.0620   -0.0440   -2.3890 c3        1 ATV      0.094000
     11 OAK        -1.4670    2.3490   -3.0350 os        1 ATV     -0.398600
     12 CAL         0.8150    0.0150   -0.8150 c         1 ATV      0.726100
     13 CAM         1.2500   -0.1360   -3.2450 c         1 ATV      0.726100
     14 CAN         4.5770    0.0280   -1.3960 ca        1 ATV     -0.063000
     15 CAO         2.2740    0.0350   -0.5530 ca        1 ATV     -0.152100
     16 CAP         2.7090   -0.0870   -2.9830 ca        1 ATV     -0.152100
     17 CAQ         3.1820   -0.0080   -1.6450 ca        1 ATV      0.019000
     18 CAR        -1.7130    1.2900   -2.0930 cx        1 ATV      0.038100
     19 NAS         0.3700   -0.0690   -2.1470 n         1 ATV     -0.488400
     20 HAC         4.4890    0.1950    2.0310 ha        1 ATV      0.145000
     21 HAD         5.6860   -0.1080   -4.6410 ha        1 ATV      0.145000
     22 HAE         6.1170    0.1290    0.1370 ha        1 ATV      0.140000
     23 HAF         6.5550    0.0210   -2.3020 ha        1 ATV      0.140000
     24 HAG         2.0330    0.1410    1.5860 ha        1 ATV      0.164500
     25 HAH         3.2280   -0.1810   -5.0720 ha        1 ATV      0.164500
     26 HAIA       -3.5600    2.4920   -2.5880 h1        1 ATV      0.079200
     27 HAJ        -1.5440   -0.8090   -1.7130 h1        1 ATV      0.083700
     28 HAJA       -1.2500   -0.3300   -3.4640 h1        1 ATV      0.083700
     29 HAR        -1.6530    1.6050   -1.0310 h1        1 ATV      0.111700
     30 HAI        -3.0930    1.2420   -3.8850 h1        1 ATV      0.079200
@<TRIPOS>BOND
     1    1   12 2   
     2    2   13 2   
     3    3    5 ar  
     4    3    7 ar  
     5    3   20 1   
     6    4    6 ar  
     7    4    8 ar  
     8    4   21 1   
     9    5   14 ar  
    10    5   22 1   
    11    6   14 ar  
    12    6   23 1   
    13    7   15 ar  
    14    7   24 1   
    15    8   16 ar  
    16    8   25 1   
    17    9   11 1   
    18    9   18 1   
    19    9   26 1   
    20    9   30 1   
    21   10   18 1   
    22   10   19 1   
    23   10   27 1   
    24   10   28 1   
    25   11   18 1   
    26   12   15 1   
    27   12   19 1   
    28   13   16 1   
    29   13   19 1   
    30   14   17 ar  
    31   15   17 ar  
    32   16   17 ar  
    33   18   29 1   
@<TRIPOS>SUBSTRUCTURE
     1 ATV         1 TEMP              0 ****  ****    0 ROOT
