@<TRIPOS>MOLECULE
ATV
   30    33     1     0     0
SMALL
bcc


@<TRIPOS>ATOM
      1 OAA         1.0770    2.4620   -0.3800 o         1 ATV     -0.612500
      2 OAB         1.3500   -2.1010   -0.8280 o         1 ATV     -0.612500
      3 CAC        -3.0860    2.2610    0.4430 ca        1 ATV     -0.149500
      4 CAD        -2.7650   -2.5720    0.0820 ca        1 ATV     -0.149500
      5 CAE        -3.6900    1.0280    0.4940 ca        1 ATV     -0.075500
      6 CAF        -3.5260   -1.4500    0.3100 ca        1 ATV     -0.075500
      7 CAG        -1.7040    2.3760    0.1650 ca        1 ATV     -0.034500
      8 CAH        -1.3850   -2.4610   -0.2060 ca        1 ATV     -0.034500
      9 CAI         4.7870    0.1450    0.6810 cx        1 ATV      0.059400
     10 CAJ         2.6670    0.3110   -0.8100 c3        1 ATV      0.094000
     11 OAK         3.6360   -0.2510    1.4380 os        1 ATV     -0.398600
     12 CAL         0.5010    1.3570   -0.3430 c         1 ATV      0.726100
     13 CAM         0.6580   -1.1010   -0.5660 c         1 ATV      0.726100
     14 CAN        -2.9380   -0.1560    0.2640 ca        1 ATV     -0.063000
     15 CAO        -0.9500    1.2420   -0.0630 ca        1 ATV     -0.152100
     16 CAP        -0.7880   -1.2170   -0.2580 ca        1 ATV     -0.152100
     17 CAQ        -1.5540   -0.0440   -0.0200 ca        1 ATV      0.019000
     18 CAR         3.4510    0.7400    0.4120 cx        1 ATV      0.038100
     19 NAS         1.2390    0.1830   -0.5810 n         1 ATV     -0.488400
     20 HAC        -3.6680    3.1780    0.6210 ha        1 ATV      0.145000
     21 HAD        -3.2200   -3.5740    0.1200 ha        1 ATV      0.145000
     22 HAE        -4.7650    0.9350    0.7140 ha        1 ATV      0.140000
     23 HAF        -4.6010   -1.5330    0.5330 ha        1 ATV      0.140000
     24 HAG        -1.2280    3.3700    0.1300 ha        1 ATV      0.164500
     25 HAH        -0.7840   -3.3680   -0.3890 ha        1 ATV      0.164500
     26 HAIA        5.1980   -0.6440    0.0250 h1        1 ATV      0.079200
     27 HAJ         2.8250    1.1000   -1.6030 h1        1 ATV      0.083700
     28 HAJA        3.0600   -0.6770   -1.1880 h1        1 ATV      0.083700
     29 HAR         3.1880    1.7470    0.7950 h1        1 ATV      0.111700
     30 HAI         5.5450    0.7090    1.2550 h1        1 ATV      0.079200
@<TRIPOS>BOND
     1    1   12 2   
     2    2   13 2   
     3    3    5 ar  
     4    3    7 ar  
     5    3   20 1   
     6    4    6 ar  
     7    4    8 ar  
     8    4   21 1   
     9    5   14 ar  
    10    5   22 1   
    11    6   14 ar  
    12    6   23 1   
    13    7   15 ar  
    14    7   24 1   
    15    8   16 ar  
    16    8   25 1   
    17    9   11 1   
    18    9   18 1   
    19    9   26 1   
    20    9   30 1   
    21   10   18 1   
    22   10   19 1   
    23   10   27 1   
    24   10   28 1   
    25   11   18 1   
    26   12   15 1   
    27   12   19 1   
    28   13   16 1   
    29   13   19 1   
    30   14   17 ar  
    31   15   17 ar  
    32   16   17 ar  
    33   18   29 1   
@<TRIPOS>SUBSTRUCTURE
     1 ATV         1 TEMP              0 ****  ****    0 ROOT
