@<TRIPOS>MOLECULE
ATV
   30    33     1     0     0
SMALL
bcc


@<TRIPOS>ATOM
      1 OAA        -0.0150    0.0700    0.1130 o         1 ATV     -0.612500
      2 OAB         0.7960   -0.2670   -4.3950 o         1 ATV     -0.612500
      3 CAC         4.1410    0.1530    0.9870 ca        1 ATV     -0.149500
      4 CAD         4.9900   -0.0870   -3.7900 ca        1 ATV     -0.149500
      5 CAE         5.0350    0.1120   -0.0560 ca        1 ATV     -0.075500
      6 CAF         5.4710   -0.0090   -2.5040 ca        1 ATV     -0.075500
      7 CAG         2.7480    0.1190    0.7430 ca        1 ATV     -0.034500
      8 CAH         3.5980   -0.1300   -4.0370 ca        1 ATV     -0.034500
      9 CAI        -2.7930    1.7940   -2.9810 cx        1 ATV      0.059400
     10 CAJ        -1.0630   -0.0480   -2.3820 c3        1 ATV      0.094000
     11 OAK        -1.4700    2.3420   -3.0390 os        1 ATV     -0.398600
     12 CAL         0.8170    0.0190   -0.8120 c         1 ATV      0.726100
     13 CAM         1.2480   -0.1430   -3.2420 c         1 ATV      0.726100
     14 CAN         4.5780    0.0320   -1.3990 ca        1 ATV     -0.063000
     15 CAO         2.2760    0.0420   -0.5520 ca        1 ATV     -0.152100
     16 CAP         2.7080   -0.0920   -2.9820 ca        1 ATV     -0.152100
     17 CAQ         3.1830   -0.0060   -1.6460 ca        1 ATV      0.019000
     18 CAR        -1.7140    1.2870   -2.0920 cx        1 ATV      0.038100
     19 NAS         0.3690   -0.0710   -2.1430 n         1 ATV     -0.488400
     20 HAC         4.4950    0.2140    2.0270 ha        1 ATV      0.145000
     21 HAD         5.6810   -0.1170   -4.6460 ha        1 ATV      0.145000
     22 HAE         6.1200    0.1410    0.1310 ha        1 ATV      0.140000
     23 HAF         6.5540    0.0230   -2.3080 ha        1 ATV      0.140000
     24 HAG         2.0380    0.1570    1.5870 ha        1 ATV      0.164500
     25 HAH         3.2230   -0.1940   -5.0720 ha        1 ATV      0.164500
     26 HAIA       -3.0960    1.2300   -3.8820 h1        1 ATV      0.079200
     27 HAJ        -1.5430   -0.8100   -1.7020 h1        1 ATV      0.083700
     28 HAJA       -1.2520   -0.3390   -3.4560 h1        1 ATV      0.083700
     29 HAR        -1.6530    1.6070   -1.0310 h1        1 ATV      0.111700
     30 HAI        -3.5620    2.4850   -2.5900 h1        1 ATV      0.079200
@<TRIPOS>BOND
     1    1   12 2   
     2    2   13 2   
     3    3    5 ar  
     4    3    7 ar  
     5    3   20 1   
     6    4    6 ar  
     7    4    8 ar  
     8    4   21 1   
     9    5   14 ar  
    10    5   22 1   
    11    6   14 ar  
    12    6   23 1   
    13    7   15 ar  
    14    7   24 1   
    15    8   16 ar  
    16    8   25 1   
    17    9   11 1   
    18    9   18 1   
    19    9   26 1   
    20    9   30 1   
    21   10   18 1   
    22   10   19 1   
    23   10   27 1   
    24   10   28 1   
    25   11   18 1   
    26   12   15 1   
    27   12   19 1   
    28   13   16 1   
    29   13   19 1   
    30   14   17 ar  
    31   15   17 ar  
    32   16   17 ar  
    33   18   29 1   
@<TRIPOS>SUBSTRUCTURE
     1 ATV         1 TEMP              0 ****  ****    0 ROOT
