@<TRIPOS>MOLECULE
ATV
   30    33     1     0     0
SMALL
bcc


@<TRIPOS>ATOM
      1 OAA        -0.0190    0.0760    0.1110 o         1 ATV     -0.612500
      2 OAB         0.8020   -0.2830   -4.3940 o         1 ATV     -0.612500
      3 CAC         4.1360    0.1750    0.9920 ca        1 ATV     -0.149500
      4 CAD         4.9950   -0.0880   -3.7810 ca        1 ATV     -0.149500
      5 CAE         5.0320    0.1310   -0.0490 ca        1 ATV     -0.075500
      6 CAF         5.4730   -0.0020   -2.4950 ca        1 ATV     -0.075500
      7 CAG         2.7440    0.1370    0.7460 ca        1 ATV     -0.034500
      8 CAH         3.6040   -0.1360   -4.0310 ca        1 ATV     -0.034500
      9 CAI        -2.7960    1.7750   -2.9970 cx        1 ATV      0.059400
     10 CAJ        -1.0610   -0.0580   -2.3860 c3        1 ATV      0.094000
     11 OAK        -1.4740    2.3270   -3.0560 os        1 ATV     -0.398600
     12 CAL         0.8160    0.0220   -0.8130 c         1 ATV      0.726100
     13 CAM         1.2520   -0.1510   -3.2410 c         1 ATV      0.726100
     14 CAN         4.5770    0.0430   -1.3920 ca        1 ATV     -0.063000
     15 CAO         2.2740    0.0510   -0.5500 ca        1 ATV     -0.152100
     16 CAP         2.7110   -0.0950   -2.9780 ca        1 ATV     -0.152100
     17 CAQ         3.1830   -0.0010   -1.6410 ca        1 ATV      0.019000
     18 CAR        -1.7170    1.2760   -2.1030 cx        1 ATV      0.038100
     19 NAS         0.3710   -0.0760   -2.1440 n         1 ATV     -0.488400
     20 HAC         4.4880    0.2430    2.0330 ha        1 ATV      0.145000
     21 HAD         5.6880   -0.1210   -4.6360 ha        1 ATV      0.145000
     22 HAE         6.1170    0.1640    0.1400 ha        1 ATV      0.140000
     23 HAF         6.5560    0.0340   -2.2970 ha        1 ATV      0.140000
     24 HAG         2.0320    0.1770    1.5880 ha        1 ATV      0.164500
     25 HAH         3.2310   -0.2060   -5.0670 ha        1 ATV      0.164500
     26 HAIA       -3.5670    2.4660   -2.6110 h1        1 ATV      0.079200
     27 HAJ        -1.5410   -0.8180   -1.7030 h1        1 ATV      0.083700
     28 HAJA       -1.2470   -0.3550   -3.4580 h1        1 ATV      0.083700
     29 HAR        -1.6580    1.6010   -1.0440 h1        1 ATV      0.111700
     30 HAI        -3.0960    1.2050   -3.8950 h1        1 ATV      0.079200
@<TRIPOS>BOND
     1    1   12 2   
     2    2   13 2   
     3    3    5 ar  
     4    3    7 ar  
     5    3   20 1   
     6    4    6 ar  
     7    4    8 ar  
     8    4   21 1   
     9    5   14 ar  
    10    5   22 1   
    11    6   14 ar  
    12    6   23 1   
    13    7   15 ar  
    14    7   24 1   
    15    8   16 ar  
    16    8   25 1   
    17    9   11 1   
    18    9   18 1   
    19    9   26 1   
    20    9   30 1   
    21   10   18 1   
    22   10   19 1   
    23   10   27 1   
    24   10   28 1   
    25   11   18 1   
    26   12   15 1   
    27   12   19 1   
    28   13   16 1   
    29   13   19 1   
    30   14   17 ar  
    31   15   17 ar  
    32   16   17 ar  
    33   18   29 1   
@<TRIPOS>SUBSTRUCTURE
     1 ATV         1 TEMP              0 ****  ****    0 ROOT
