@<TRIPOS>MOLECULE
ATV
   30    26     1     0     0
SMALL
bcc


@<TRIPOS>ATOM
      1 OAA        -1.8200    0.0600    2.0190 o         1 ATV     -0.337000
      2 OAB        -0.7880    0.5740   -2.3820 o         1 ATV     -0.337000
      3 CAC         2.2930   -0.0050    3.1540 c1        1 ATV     -0.092000
      4 CAD         3.4030    0.3710   -1.6080 c1        1 ATV     -0.092000
      5 CAE         3.2550    0.0800    2.1270 c1        1 ATV     -0.075500
      6 CAF         3.8120    0.2690   -0.2630 c1        1 ATV     -0.075500
      7 CAG         0.9250    0.0120    2.8380 c1        1 ATV     -0.092000
      8 CAH         2.0350    0.3890   -1.9270 c1        1 ATV     -0.092000
      9 CAI        -4.6710   -1.0220   -1.4430 cx        1 ATV     -0.091000
     10 CAJ        -2.7990    0.4110   -0.5220 c3        1 ATV     -0.022000
     11 OAK        -3.7940   -1.9300   -0.7120 os        1 ATV     -0.255000
     12 CAL        -0.9890    0.1230    1.1310 c1        1 ATV      0.363000
     13 CAM        -0.4360    0.3670   -1.2350 c1        1 ATV      0.363000
     14 CAN         2.8410    0.1830    0.7710 c1        1 ATV     -0.063000
     15 CAO         0.5080    0.1150    1.4780 c1        1 ATV     -0.131500
     16 CAP         1.0600    0.3030   -0.8900 c1        1 ATV     -0.131500
     17 CAQ         1.4690    0.2040    0.4530 c1        1 ATV      0.019000
     18 CAR        -3.2570   -0.7720   -1.4190 cx        1 ATV     -0.073000
     19 NAS        -1.4000    0.2640   -0.2110 n3        1 ATV     -0.317000
     20 HAC         2.5800   -0.0730    4.0900 ha        1 ATV      0.154750
     21 HAD         4.0740    0.4270   -2.3220 ha        1 ATV      0.154750
     22 HAE         4.2120    0.0680    2.3480 ha        1 ATV      0.140000
     23 HAF         4.7680    0.2570   -0.0400 ha        1 ATV      0.140000
     24 HAG         0.2560   -0.0470    3.5530 ha        1 ATV      0.154750
     25 HAH         1.7510    0.4600   -2.8630 ha        1 ATV      0.154750
     26 HAI        -5.2190   -0.4230   -0.8910 h1        1 ATV      0.118500
     27 HAIA       -5.0280   -1.3670   -2.2920 h1        1 ATV      0.118500
     28 HAJ        -3.3210    0.4120    0.3090 h1        1 ATV      0.123000
     29 HAJA       -2.9410    1.2580   -1.0000 h1        1 ATV      0.123000
     30 HAR        -2.7760   -0.9670   -2.2520 h1        1 ATV      0.151000
@<TRIPOS>BOND
     1    1   12 1   
     2    2   13 1   
     3    3    7 1   
     4    3   20 1   
     5    4    8 1   
     6    4   21 1   
     7    5   14 1   
     8    5   22 1   
     9    6   14 1   
    10    6   23 1   
    11    7   24 1   
    12    8   25 1   
    13    9   11 1   
    14    9   18 1   
    15    9   26 1   
    16    9   27 1   
    17   10   18 1   
    18   10   19 1   
    19   10   28 1   
    20   10   29 1   
    21   11   18 1   
    22   12   19 1   
    23   13   19 1   
    24   15   17 1   
    25   16   17 1   
    26   18   30 1   
@<TRIPOS>SUBSTRUCTURE
     1 ATV         1 TEMP              0 ****  ****    0 ROOT
