@<TRIPOS>MOLECULE
ATW
   47    50     1     0     0
SMALL
bcc


@<TRIPOS>ATOM
      1 N1         -0.0210   -0.4540    0.0820 nb        1 ATW     -0.601000
      2 C2          1.3160   -0.2930    0.0570 ca        1 ATW      0.232900
      3 C3          2.0620   -0.1230    1.2680 ca        1 ATW      0.451500
      4 N4          1.4550   -0.1210    2.4890 nb        1 ATW     -0.736000
      5 C5          0.0940   -0.2770    2.5050 ca        1 ATW      0.468500
      6 C6         -0.6370   -0.4480    1.2660 ca        1 ATW      0.242900
      7 N13         3.4730    0.0690    1.2180 na        1 ATW      0.044100
      8 N15        -0.5750   -0.2710    3.7250 na        1 ATW     -0.133900
      9 C17         4.3270    0.4680    2.2800 ca        1 ATW      0.022800
     10 C18         5.6700    0.4040    1.7500 ca        1 ATW     -0.260900
     11 C19         5.4970   -0.0660    0.3830 cc        1 ATW      0.364800
     12 N20         4.1980   -0.2610    0.1150 nd        1 ATW     -0.507100
     13 C26        -1.9810   -0.2450    3.8950 cc        1 ATW     -0.128300
     14 C27        -2.2610   -0.2160    5.2570 cd        1 ATW     -0.079300
     15 C28        -0.9880   -0.2220    5.9580 cd        1 ATW     -0.189000
     16 C29         0.0220   -0.2500    5.0070 cc        1 ATW     -0.164300
     17 C35         6.7470    0.7740    2.5440 ca        1 ATW     -0.043000
     18 C36         6.5170    1.1990    3.8410 ca        1 ATW     -0.203000
     19 C37         5.2000    1.2580    4.3820 ca        1 ATW      0.168600
     20 C38         4.0890    0.9010    3.5850 ca        1 ATW     -0.186000
     21 N44         4.9820    1.5760    5.7340 nu        1 ATW     -0.720600
     22 C46         5.8620    2.5260    6.3980 c3        1 ATW      0.194500
     23 C48         5.9470    3.9010    5.7310 c3        1 ATW     -0.114600
     24 C51         5.4560    2.7170    7.8620 c3        1 ATW     -0.114600
     25 C57        -3.5890   -0.1720    5.8750 c3        1 ATW     -0.145100
     26 C59        -4.7350   -0.7220    4.9970 c         1 ATW      0.917600
     27 O61        -4.7250   -0.5000    3.7500 o         1 ATW     -0.846800
     28 O63        -5.6560   -1.3480    5.5910 o         1 ATW     -0.846800
     29 H2          1.7920   -0.3040   -0.9360 h4        1 ATW      0.047100
     30 H6         -1.7340   -0.5840    1.2620 h4        1 ATW      0.065100
     31 H19         6.2770   -0.2500   -0.3570 h4        1 ATW      0.048800
     32 H26        -2.7040   -0.2670    3.0690 h4        1 ATW      0.228000
     33 H28        -0.8650   -0.2160    7.0360 ha        1 ATW      0.142000
     34 H29         1.1050   -0.2690    5.1250 h4        1 ATW      0.162000
     35 H35         7.7710    0.7310    2.1450 ha        1 ATW      0.130000
     36 H36         7.3760    1.4870    4.4630 ha        1 ATW      0.131000
     37 H38         3.0690    0.9520    3.9930 ha        1 ATW      0.172000
     38 HN44        4.0170    1.7440    5.9420 hn        1 ATW      0.397800
     39 H46         6.8970    2.0690    6.3880 h1        1 ATW      0.055700
     40 H48         4.9580    4.4170    5.7570 hc        1 ATW      0.042033
     41 H48A        6.2700    3.8000    4.6670 hc        1 ATW      0.042033
     42 H48B        6.6910    4.5300    6.2740 hc        1 ATW      0.042033
     43 H51         4.4540    3.2020    7.9390 hc        1 ATW      0.042033
     44 H51A        5.4240    1.7390    8.3980 hc        1 ATW      0.042033
     45 H51B        6.2090    3.3740    8.3590 hc        1 ATW      0.042033
     46 H57        -3.5760   -0.7410    6.8410 hc        1 ATW      0.038700
     47 H57A       -3.8490    0.8950    6.1120 hc        1 ATW      0.038700
@<TRIPOS>BOND
     1    1    2 ar  
     2    1    6 ar  
     3    2    3 ar  
     4    2   29 1   
     5    3    4 ar  
     6    3    7 1   
     7    4    5 ar  
     8    5    6 ar  
     9    5    8 1   
    10    6   30 1   
    11    7    9 1   
    12    7   12 1   
    13    8   13 1   
    14    8   16 1   
    15    9   10 ar  
    16    9   20 ar  
    17   10   11 1   
    18   10   17 ar  
    19   11   12 2   
    20   11   31 1   
    21   13   14 2   
    22   13   32 1   
    23   14   15 1   
    24   14   25 1   
    25   15   16 2   
    26   15   33 1   
    27   16   34 1   
    28   17   18 ar  
    29   17   35 1   
    30   18   19 ar  
    31   18   36 1   
    32   19   20 ar  
    33   19   21 1   
    34   20   37 1   
    35   21   22 1   
    36   21   38 1   
    37   22   23 1   
    38   22   24 1   
    39   22   39 1   
    40   23   40 1   
    41   23   41 1   
    42   23   42 1   
    43   24   43 1   
    44   24   44 1   
    45   24   45 1   
    46   25   26 1   
    47   25   46 1   
    48   25   47 1   
    49   26   27 1   
    50   26   28 1   
@<TRIPOS>SUBSTRUCTURE
     1 ATW         1 TEMP              0 ****  ****    0 ROOT
