@<TRIPOS>MOLECULE
ATW
   48    51     1     0     0
SMALL
bcc


@<TRIPOS>ATOM
      1 N1          0.9740    1.9770   -0.6230 nb        1 ATW     -0.596000
      2 C2          2.1930    1.4700   -0.4180 ca        1 ATW      0.270900
      3 C3          2.5950    0.9700    0.8780 ca        1 ATW      0.467500
      4 N4          1.7360    0.9880    1.9360 nb        1 ATW     -0.703000
      5 C5          0.4920    1.5120    1.7070 ca        1 ATW      0.430500
      6 C6          0.1210    2.0120    0.4150 ca        1 ATW      0.235900
      7 N13         3.9090    0.4730    1.0550 na        1 ATW      0.033100
      8 N15        -0.4320    1.5550    2.7690 na        1 ATW     -0.106900
      9 C17         4.5360    0.0740    2.2710 ca        1 ATW      0.028800
     10 C18         5.7560   -0.5930    1.8780 ca        1 ATW     -0.273900
     11 C19         5.7370   -0.5680    0.4210 cc        1 ATW      0.401800
     12 N20         4.6370    0.0430   -0.0250 nd        1 ATW     -0.525100
     13 C26        -0.1450    1.4330    4.1350 cc        1 ATW     -0.088300
     14 C27        -1.3490    1.5110    4.8430 cd        1 ATW     -0.179300
     15 C28        -2.4110    1.6690    3.8770 cd        1 ATW     -0.167000
     16 C29        -1.8260    1.6890    2.6150 cc        1 ATW     -0.150300
     17 C35         6.6350   -1.0600    2.8450 ca        1 ATW     -0.024000
     18 C36         6.3250   -0.8730    4.1800 ca        1 ATW     -0.221000
     19 C37         5.1200   -0.2180    4.5880 ca        1 ATW      0.204600
     20 C38         4.2190    0.2710    3.6130 ca        1 ATW     -0.197000
     21 N44         4.8370   -0.1570    5.9500 nh        1 ATW     -0.734600
     22 C46         3.8650    0.7810    6.4840 c3        1 ATW      0.197500
     23 C48         3.6420    0.5470    7.9800 c3        1 ATW     -0.111100
     24 C51         4.2180    2.2540    6.2700 c3        1 ATW     -0.111100
     25 C57        -1.5460    1.4840    6.2970 c3        1 ATW     -0.041100
     26 C59        -0.5630    0.5970    6.9970 c         1 ATW      0.645100
     27 O61         0.6720    0.6290    6.9910 o         1 ATW     -0.570000
     28 O63        -1.1420   -0.3570    7.7790 oh        1 ATW     -0.604100
     29 H2          2.8740    1.4550   -1.2880 h4        1 ATW      0.064100
     30 H6         -0.8700    2.4530    0.2170 h4        1 ATW      0.042100
     31 H19         6.4930   -0.9750   -0.2540 h4        1 ATW      0.057800
     32 H26         0.8740    1.2930    4.5090 h4        1 ATW      0.199000
     33 H28        -3.4700    1.7520    4.1030 ha        1 ATW      0.159000
     34 H29        -2.2870    1.7750    1.6310 h4        1 ATW      0.174000
     35 H35         7.5680   -1.5650    2.5530 ha        1 ATW      0.138000
     36 H36         7.0230   -1.2450    4.9450 ha        1 ATW      0.134000
     37 H38         3.2940    0.7830    3.9120 ha        1 ATW      0.164000
     38 HN44        5.6340   -0.2840    6.5390 hn        1 ATW      0.401800
     39 H46         2.8790    0.5730    5.9610 h1        1 ATW      0.083700
     40 H48         3.4220   -0.5270    8.1900 hc        1 ATW      0.042700
     41 H48A        2.7590    1.1530    8.2980 hc        1 ATW      0.042700
     42 H48B        4.5330    0.8580    8.5740 hc        1 ATW      0.042700
     43 H51         4.3630    2.4750    5.1850 hc        1 ATW      0.042700
     44 H51A        3.3840    2.8870    6.6550 hc        1 ATW      0.042700
     45 H51B        5.1520    2.5250    6.8170 hc        1 ATW      0.042700
     46 H57        -2.5910    1.1420    6.5360 hc        1 ATW      0.084700
     47 H57A       -1.4160    2.5200    6.7230 hc        1 ATW      0.084700
     48 H442       -0.4550   -0.8980    8.2020 ho        1 ATW      0.444000
@<TRIPOS>BOND
     1    1    2 ar  
     2    1    6 ar  
     3    2    3 ar  
     4    2   29 1   
     5    3    4 ar  
     6    3    7 1   
     7    4    5 ar  
     8    5    6 ar  
     9    5    8 1   
    10    6   30 1   
    11    7    9 1   
    12    7   12 1   
    13    8   13 1   
    14    8   16 1   
    15    9   10 ar  
    16    9   20 ar  
    17   10   11 1   
    18   10   17 ar  
    19   11   12 2   
    20   11   31 1   
    21   13   14 2   
    22   13   32 1   
    23   14   15 1   
    24   14   25 1   
    25   15   16 2   
    26   15   33 1   
    27   16   34 1   
    28   17   18 ar  
    29   17   35 1   
    30   18   19 ar  
    31   18   36 1   
    32   19   20 ar  
    33   19   21 1   
    34   20   37 1   
    35   21   22 1   
    36   21   38 1   
    37   22   23 1   
    38   22   24 1   
    39   22   39 1   
    40   23   40 1   
    41   23   41 1   
    42   23   42 1   
    43   24   43 1   
    44   24   44 1   
    45   24   45 1   
    46   25   26 1   
    47   25   46 1   
    48   25   47 1   
    49   26   27 2   
    50   26   28 1   
    51   28   48 1   
@<TRIPOS>SUBSTRUCTURE
     1 ATW         1 TEMP              0 ****  ****    0 ROOT
