@<TRIPOS>MOLECULE
ATW
   47    50     1     0     0
SMALL
bcc


@<TRIPOS>ATOM
      1 N1          1.3850   -3.6420   -0.7560 nb        1 ATW     -0.604000
      2 C2          0.0410   -3.5630   -0.7550 ca        1 ATW      0.242900
      3 C3         -0.6260   -2.3750   -0.3220 ca        1 ATW      0.437500
      4 N4          0.0590   -1.2840    0.1240 nb        1 ATW     -0.729000
      5 C5          1.4270   -1.3680    0.1140 ca        1 ATW      0.463500
      6 C6          2.0800   -2.5800   -0.3420 ca        1 ATW      0.248900
      7 N13        -2.0530   -2.3110   -0.3810 na        1 ATW      0.049100
      8 N15         2.1780   -0.2840    0.5540 na        1 ATW     -0.132900
      9 C17        -2.8290   -1.1190   -0.3250 ca        1 ATW      0.015800
     10 C18        -4.1710   -1.5340    0.0120 ca        1 ATW     -0.259900
     11 C19        -4.0680   -2.9790    0.1810 cc        1 ATW      0.369800
     12 N20        -2.8100   -3.3880   -0.0240 nd        1 ATW     -0.510100
     13 C26         3.5910   -0.1890    0.5190 cc        1 ATW     -0.130300
     14 C27         3.9630    1.0560    1.0160 cd        1 ATW     -0.078300
     15 C28         2.7420    1.7600    1.3690 cd        1 ATW     -0.189000
     16 C29         1.6710    0.9280    1.0770 cc        1 ATW     -0.164300
     17 C35        -5.1860   -0.5900    0.0870 ca        1 ATW     -0.043000
     18 C36        -4.8910    0.7400   -0.1640 ca        1 ATW     -0.203000
     19 C37        -3.5770    1.1610   -0.5170 ca        1 ATW      0.169600
     20 C38        -2.5290    0.2140   -0.5920 ca        1 ATW     -0.182000
     21 N44        -3.3100    2.4910   -0.8870 nh        1 ATW     -0.719600
     22 C46        -4.0510    3.5710   -0.2540 c3        1 ATW      0.193500
     23 C48        -3.9550    3.6110    1.2730 c3        1 ATW     -0.115100
     24 C51        -3.6140    4.9310   -0.8050 c3        1 ATW     -0.115100
     25 C57         5.3300    1.5610    1.1690 c3        1 ATW     -0.145100
     26 C59         6.3610    0.9290    0.2070 c         1 ATW      0.917600
     27 O61         6.2980   -0.3110   -0.0420 o         1 ATW     -0.845800
     28 O63         7.2490    1.6960   -0.2600 o         1 ATW     -0.845800
     29 H2         -0.5100   -4.4530   -1.0980 h4        1 ATW      0.045100
     30 H6          3.1820   -2.6630   -0.3620 h4        1 ATW      0.064100
     31 H19        -4.8730   -3.6710    0.4300 h4        1 ATW      0.048800
     32 H26         4.2560   -0.9700    0.1290 h4        1 ATW      0.227000
     33 H28         2.6920    2.7620    1.7830 ha        1 ATW      0.142000
     34 H29         0.6000    1.0840    1.2000 h4        1 ATW      0.163000
     35 H35        -6.2110   -0.8940    0.3420 ha        1 ATW      0.130000
     36 H36        -5.7010    1.4810   -0.0980 ha        1 ATW      0.131000
     37 H38        -1.5070    0.5230   -0.8550 ha        1 ATW      0.166000
     38 HN44       -2.3290    2.6860   -0.9390 hn        1 ATW      0.397800
     39 H46        -5.1390    3.4230   -0.5320 h1        1 ATW      0.054700
     40 H48        -2.9060    3.8020    1.6010 hc        1 ATW      0.042700
     41 H48A       -4.6050    4.4290    1.6640 hc        1 ATW      0.042700
     42 H48B       -4.2960    2.6420    1.7120 hc        1 ATW      0.042700
     43 H51        -3.7110    4.9610   -1.9170 hc        1 ATW      0.042700
     44 H51A       -4.2680    5.7220   -0.3670 hc        1 ATW      0.042700
     45 H51B       -2.5550    5.1520   -0.5310 hc        1 ATW      0.042700
     46 H57         5.3420    2.6730    1.0260 hc        1 ATW      0.039200
     47 H57A        5.6880    1.3470    2.2120 hc        1 ATW      0.039200
@<TRIPOS>BOND
     1    1    2 ar  
     2    1    6 ar  
     3    2    3 ar  
     4    2   29 1   
     5    3    4 ar  
     6    3    7 1   
     7    4    5 ar  
     8    5    6 ar  
     9    5    8 1   
    10    6   30 1   
    11    7    9 1   
    12    7   12 1   
    13    8   13 1   
    14    8   16 1   
    15    9   10 ar  
    16    9   20 ar  
    17   10   11 1   
    18   10   17 ar  
    19   11   12 2   
    20   11   31 1   
    21   13   14 2   
    22   13   32 1   
    23   14   15 1   
    24   14   25 1   
    25   15   16 2   
    26   15   33 1   
    27   16   34 1   
    28   17   18 ar  
    29   17   35 1   
    30   18   19 ar  
    31   18   36 1   
    32   19   20 ar  
    33   19   21 1   
    34   20   37 1   
    35   21   22 1   
    36   21   38 1   
    37   22   23 1   
    38   22   24 1   
    39   22   39 1   
    40   23   40 1   
    41   23   41 1   
    42   23   42 1   
    43   24   43 1   
    44   24   44 1   
    45   24   45 1   
    46   25   26 1   
    47   25   46 1   
    48   25   47 1   
    49   26   27 1   
    50   26   28 1   
@<TRIPOS>SUBSTRUCTURE
     1 ATW         1 TEMP              0 ****  ****    0 ROOT
