@<TRIPOS>MOLECULE
ATW
   47    38     1     0     0
SMALL
bcc


@<TRIPOS>ATOM
      1 N1         -2.7240    1.5630   -1.5920 n1        1 ATW     -0.405800
      2 C2         -1.3830    1.6040   -1.5840 c1        1 ATW     -0.119500
      3 C3         -0.6540    0.4250   -1.5770 c1        1 ATW      0.157800
      4 N4         -1.2890   -0.7570   -1.5790 n1        1 ATW     -0.492800
      5 C5         -2.6310   -0.7980   -1.5880 c1        1 ATW      0.517600
      6 C6         -3.3590    0.3810   -1.5940 c1        1 ATW      0.237300
      7 N13         0.7630    0.4680   -1.4960 n3        1 ATW     -0.220600
      8 N15        -3.3020   -2.0470   -1.6340 n3        1 ATW     -0.285400
      9 C17         1.8520    0.8290   -0.7490 c1        1 ATW      0.093800
     10 C18         2.9710    0.5180   -1.4600 c1        1 ATW     -0.164000
     11 C19         2.5710   -0.0420   -2.6600 c1        1 ATW      0.184800
     12 N20         1.2170   -0.0710   -2.6780 n1        1 ATW     -0.333800
     13 C26        -3.9080   -2.7290   -0.6180 c1        1 ATW     -0.064700
     14 C27        -4.5000   -3.8530   -1.1530 cg        1 ATW     -0.130000
     15 C28        -4.2590   -3.8580   -2.4890 cg        1 ATW     -0.130000
     16 C29        -3.5140   -2.7380   -2.7910 c1        1 ATW     -0.064700
     17 C35         4.2440    0.8000   -0.9270 c1        1 ATW     -0.065000
     18 C36         4.3580    1.3940    0.3190 c1        1 ATW     -0.065000
     19 C37         3.2210    1.7100    1.0420 c1        1 ATW      0.149800
     20 C38         1.9680    1.4330    0.5180 c1        1 ATW     -0.146500
     21 N44         3.0380    2.4070    2.2660 n3        1 ATW     -0.695800
     22 C46         4.1570    2.9780    2.9330 c3        1 ATW      0.194500
     23 C48         3.9600    4.4730    3.0600 c3        1 ATW     -0.115100
     24 C51         4.2880    2.3670    4.3120 c3        1 ATW     -0.115100
     25 C57        -5.2160   -4.9360   -0.3740 c2        1 ATW     -0.180000
     26 C59        -6.7020   -4.6510   -0.3630 c         1 ATW      0.867600
     27 O61        -7.4200   -5.0170   -1.3300 o         1 ATW     -0.847300
     28 O63        -7.2270   -4.0870    0.6330 o         1 ATW     -0.847300
     29 H2         -0.9210    2.4630   -1.5820 ha        1 ATW      0.112500
     30 H6         -4.3350    0.3520   -1.6000 ha        1 ATW      0.145500
     31 H19         3.0330   -0.6000   -3.3180 DU        1 ATW      0.179750
     32 H26        -3.9360   -2.4550    0.3180 DU        1 ATW      0.179750
     33 H28        -4.5590   -4.5360   -3.1240 DU        1 ATW      0.179750
     34 H29        -3.1950   -2.4830   -3.6780 DU        1 ATW      0.179750
     35 H35         5.0460    0.5870   -1.4410 ha        1 ATW      0.074000
     36 H36         5.2410    1.5890    0.6880 ha        1 ATW      0.074000
     37 H38         1.1660    1.6780    1.0180 ha        1 ATW      0.092500
     38 HN44        2.2010    2.5040    2.6150 hn        1 ATW      0.394800
     39 H46         4.9690    2.7990    2.4190 h1        1 ATW      0.059700
     40 H48         4.7640    4.8760    3.4500 hc        1 ATW      0.041867
     41 H48A        3.1900    4.6520    3.6400 hc        1 ATW      0.041867
     42 H48B        3.7980    4.8570    2.1740 hc        1 ATW      0.041867
     43 H51         3.4700    2.5360    4.8230 hc        1 ATW      0.041867
     44 H51A        5.0530    2.7690    4.7760 hc        1 ATW      0.041867
     45 H51B        4.4280    1.4000    4.2290 hc        1 ATW      0.041867
     46 H57        -4.8800   -4.9530    0.5450 ha        1 ATW      0.079000
     47 H57A       -5.0530   -5.8030   -0.7970 ha        1 ATW      0.079000
@<TRIPOS>BOND
     1    1    6 3   
     2    2    3 3   
     3    2   29 1   
     4    3    7 1   
     5    4    5 3   
     6    5    8 1   
     7    6   30 1   
     8    7    9 1   
     9    7   12 1   
    10    8   13 1   
    11    8   16 1   
    12    9   10 3   
    13   11   12 3   
    14   13   14 3   
    15   14   15 1   
    16   15   16 3   
    17   17   18 3   
    18   17   35 1   
    19   18   36 1   
    20   19   20 3   
    21   19   21 1   
    22   20   37 1   
    23   21   22 1   
    24   21   38 1   
    25   22   23 1   
    26   22   24 1   
    27   22   39 1   
    28   23   40 1   
    29   23   41 1   
    30   23   42 1   
    31   24   43 1   
    32   24   44 1   
    33   24   45 1   
    34   25   26 2   
    35   25   46 1   
    36   25   47 1   
    37   26   27 1   
    38   26   28 1   
@<TRIPOS>SUBSTRUCTURE
     1 ATW         1 TEMP              0 ****  ****    0 ROOT
