@<TRIPOS>MOLECULE
ATW
   47    50     1     0     0
SMALL
bcc


@<TRIPOS>ATOM
      1 N1         -0.0260   -0.4820    0.0920 nb        1 ATW     -0.601000
      2 C2          1.3100   -0.3210    0.0650 ca        1 ATW      0.232900
      3 C3          2.0590   -0.1410    1.2730 ca        1 ATW      0.451500
      4 N4          1.4520   -0.1300    2.4950 nb        1 ATW     -0.736000
      5 C5          0.0920   -0.2850    2.5140 ca        1 ATW      0.468500
      6 C6         -0.6410   -0.4670    1.2770 ca        1 ATW      0.242900
      7 N13         3.4690    0.0500    1.2210 na        1 ATW      0.044100
      8 N15        -0.5750   -0.2700    3.7340 na        1 ATW     -0.133900
      9 C17         4.3240    0.4550    2.2790 ca        1 ATW      0.022800
     10 C18         5.6670    0.3930    1.7450 ca        1 ATW     -0.260900
     11 C19         5.4910   -0.0810    0.3810 cc        1 ATW      0.364800
     12 N20         4.1920   -0.2800    0.1160 nd        1 ATW     -0.507100
     13 C26        -1.9810   -0.2440    3.9060 cc        1 ATW     -0.128300
     14 C27        -2.2600   -0.2040    5.2680 cd        1 ATW     -0.079300
     15 C28        -0.9860   -0.2040    5.9680 cd        1 ATW     -0.189000
     16 C29         0.0230   -0.2390    5.0160 cc        1 ATW     -0.164300
     17 C35         6.7450    0.7680    2.5350 ca        1 ATW     -0.043000
     18 C36         6.5170    1.1960    3.8320 ca        1 ATW     -0.203000
     19 C37         5.2010    1.2530    4.3770 ca        1 ATW      0.168600
     20 C38         4.0900    0.8910    3.5830 ca        1 ATW     -0.186000
     21 N44         4.9870    1.5740    5.7280 nh        1 ATW     -0.720600
     22 C46         5.8650    2.5270    6.3870 c3        1 ATW      0.194500
     23 C48         5.9460    3.9010    5.7170 c3        1 ATW     -0.114600
     24 C51         5.4640    2.7220    7.8510 c3        1 ATW     -0.114600
     25 C57        -3.5870   -0.1560    5.8870 c3        1 ATW     -0.145100
     26 C59        -4.7340   -0.7140    5.0150 c         1 ATW      0.917600
     27 O61        -4.7260   -0.5010    3.7670 o         1 ATW     -0.846800
     28 O63        -5.6540   -1.3350    5.6160 o         1 ATW     -0.846800
     29 H2          1.7860   -0.3400   -0.9290 h4        1 ATW      0.047100
     30 H6         -1.7380   -0.6020    1.2750 h4        1 ATW      0.065100
     31 H19         6.2700   -0.2650   -0.3610 h4        1 ATW      0.048800
     32 H26        -2.7060   -0.2720    3.0810 h4        1 ATW      0.228000
     33 H28        -0.8620   -0.1900    7.0450 ha        1 ATW      0.142000
     34 H29         1.1060   -0.2580    5.1330 h4        1 ATW      0.162000
     35 H35         7.7680    0.7270    2.1340 ha        1 ATW      0.130000
     36 H36         7.3770    1.4880    4.4510 ha        1 ATW      0.131000
     37 H38         3.0700    0.9400    3.9940 ha        1 ATW      0.172000
     38 HN44        4.0210    1.7400    5.9380 hn        1 ATW      0.397800
     39 H46         6.9020    2.0730    6.3750 h1        1 ATW      0.055700
     40 H48         4.9560    4.4150    5.7440 hc        1 ATW      0.042200
     41 H48A        6.6900    4.5330    6.2560 hc        1 ATW      0.042200
     42 H48B        6.2660    3.7990    4.6520 hc        1 ATW      0.042200
     43 H51         5.4340    1.7450    8.3910 hc        1 ATW      0.042200
     44 H51A        6.2160    3.3810    8.3460 hc        1 ATW      0.042200
     45 H51B        4.4600    3.2040    7.9310 hc        1 ATW      0.042200
     46 H57        -3.5720   -0.7180    6.8580 hc        1 ATW      0.038700
     47 H57A       -3.8470    0.9130    6.1170 hc        1 ATW      0.038700
@<TRIPOS>BOND
     1    1    2 ar  
     2    1    6 ar  
     3    2    3 ar  
     4    2   29 1   
     5    3    4 ar  
     6    3    7 1   
     7    4    5 ar  
     8    5    6 ar  
     9    5    8 1   
    10    6   30 1   
    11    7    9 1   
    12    7   12 1   
    13    8   13 1   
    14    8   16 1   
    15    9   10 ar  
    16    9   20 ar  
    17   10   11 1   
    18   10   17 ar  
    19   11   12 2   
    20   11   31 1   
    21   13   14 2   
    22   13   32 1   
    23   14   15 1   
    24   14   25 1   
    25   15   16 2   
    26   15   33 1   
    27   16   34 1   
    28   17   18 ar  
    29   17   35 1   
    30   18   19 ar  
    31   18   36 1   
    32   19   20 ar  
    33   19   21 1   
    34   20   37 1   
    35   21   22 1   
    36   21   38 1   
    37   22   23 1   
    38   22   24 1   
    39   22   39 1   
    40   23   40 1   
    41   23   41 1   
    42   23   42 1   
    43   24   43 1   
    44   24   44 1   
    45   24   45 1   
    46   25   26 1   
    47   25   46 1   
    48   25   47 1   
    49   26   27 1   
    50   26   28 1   
@<TRIPOS>SUBSTRUCTURE
     1 ATW         1 TEMP              0 ****  ****    0 ROOT
