@<TRIPOS>MOLECULE
ATX
   29    29     1     0     0
SMALL
bcc


@<TRIPOS>ATOM
      1 N           4.2000    0.4500   -0.7790 n3        1 ATX     -0.900800
      2 CA          3.1550   -0.3760   -0.2050 c3        1 ATX      0.088500
      3 C           1.9350    0.4620    0.1740 c         1 ATX      0.517600
      4 O           1.9990    1.6050    0.6240 o         1 ATX     -0.485100
      5 CB          3.5500   -1.1830    1.0350 c3        1 ATX     -0.134100
      6 C5          0.6360   -0.2140   -0.0070 cc        1 ATX      0.357900
      7 N4          0.2860   -1.4810   -0.3160 nd        1 ATX     -0.306000
      8 N3         -1.0280   -1.5720   -0.3490 nd        1 ATX     -0.361000
      9 C2         -1.5640   -0.3610   -0.0640 cc        1 ATX      0.487700
     10 O1         -0.5300    0.5500    0.1670 os        1 ATX     -0.347800
     11 C6         -2.9810    0.1070    0.0280 c3        1 ATX     -0.069300
     12 C7         -3.6970   -0.7150    1.0940 c3        1 ATX     -0.092767
     13 C8         -3.0230    1.5830    0.4010 c3        1 ATX     -0.092767
     14 C9         -3.6520   -0.1040   -1.3250 c3        1 ATX     -0.092767
     15 HN1         4.3510    1.2750   -0.2300 hn        1 ATX      0.360800
     16 HN2         5.0530   -0.0720   -0.8340 hn        1 ATX      0.360800
     17 HA          2.8550   -1.1040   -1.0200 h1        1 ATX      0.098700
     18 HB1         3.8410   -0.5090    1.8750 hc        1 ATX      0.052033
     19 HB2         2.6930   -1.8190    1.3620 hc        1 ATX      0.052033
     20 HB3         4.4120   -1.8510    0.7960 hc        1 ATX      0.052033
     21 H71        -3.2070   -0.5790    2.0870 hc        1 ATX      0.050589
     22 H72        -4.7590   -0.3780    1.1690 hc        1 ATX      0.050589
     23 H73        -3.6820   -1.8000    0.8280 hc        1 ATX      0.050589
     24 H81        -2.4940    2.1940   -0.3700 hc        1 ATX      0.050589
     25 H82        -4.0840    1.9230    0.4680 hc        1 ATX      0.050589
     26 H83        -2.5250    1.7500    1.3860 hc        1 ATX      0.050589
     27 H91        -3.6360   -1.1840   -1.6060 hc        1 ATX      0.050589
     28 H92        -4.7140    0.2380   -1.2670 hc        1 ATX      0.050589
     29 H93        -3.1290    0.4850   -2.1150 hc        1 ATX      0.050589
@<TRIPOS>BOND
     1    1    2 1   
     2    1   15 1   
     3    1   16 1   
     4    2    3 1   
     5    2    5 1   
     6    2   17 1   
     7    3    4 2   
     8    3    6 1   
     9    5   18 1   
    10    5   19 1   
    11    5   20 1   
    12    6    7 2   
    13    6   10 1   
    14    7    8 1   
    15    8    9 2   
    16    9   10 1   
    17    9   11 1   
    18   11   12 1   
    19   11   13 1   
    20   11   14 1   
    21   12   21 1   
    22   12   22 1   
    23   12   23 1   
    24   13   24 1   
    25   13   25 1   
    26   13   26 1   
    27   14   27 1   
    28   14   28 1   
    29   14   29 1   
@<TRIPOS>SUBSTRUCTURE
     1 ATX         1 TEMP              0 ****  ****    0 ROOT
