@<TRIPOS>MOLECULE
ATX
   30    30     1     0     0
SMALL
bcc


@<TRIPOS>ATOM
      1 N          -0.0140   -0.0760    0.0380 nz        1 ATX     -0.840600
      2 CA          1.4870    0.0490    0.0450 c3        1 ATX      0.029500
      3 C           2.0150    0.0070    1.4890 c         1 ATX      0.513600
      4 O           1.2810    0.2790    2.4380 o         1 ATX     -0.474100
      5 CB          1.9370    1.3390   -0.6250 c3        1 ATX     -0.134100
      6 C5          3.4100   -0.3700    1.5970 cc        1 ATX      0.287900
      7 N4          4.3240   -0.7770    0.6780 nd        1 ATX     -0.267000
      8 N3          5.4580   -1.0170    1.2770 nd        1 ATX     -0.345000
      9 C2          5.3210   -0.7730    2.6160 cc        1 ATX      0.554700
     10 O1          4.0180   -0.3560    2.8660 os        1 ATX     -0.318800
     11 C6          6.2930   -0.8820    3.7510 c3        1 ATX     -0.079300
     12 C7          7.4620    0.0570    3.4720 c3        1 ATX     -0.098767
     13 C8          5.6160   -0.4980    5.0590 c3        1 ATX     -0.098767
     14 C9          6.7890   -2.3230    3.8210 c3        1 ATX     -0.098767
     15 HN1        -0.3800    0.1930   -0.8800 hn        1 ATX      0.469133
     16 HN2        -0.2870   -1.0400    0.2500 hn        1 ATX      0.469133
     17 HA          1.8920   -0.8400   -0.5320 hx        1 ATX      0.147700
     18 HB1         1.5810    1.3910   -1.6840 hc        1 ATX      0.093033
     19 HB2         3.0580    1.3580   -0.6410 hc        1 ATX      0.093033
     20 HB3         1.5770    2.2400   -0.0690 hc        1 ATX      0.093033
     21 H71         7.9730   -0.2200    2.5190 hc        1 ATX      0.059589
     22 H72         7.1110    1.1140    3.4050 hc        1 ATX      0.059589
     23 H73         8.1980   -0.0220    4.3090 hc        1 ATX      0.059589
     24 H81         6.3510   -0.5840    5.8950 hc        1 ATX      0.059589
     25 H82         4.7530   -1.1760    5.2670 hc        1 ATX      0.059589
     26 H83         5.2430    0.5530    5.0130 hc        1 ATX      0.059589
     27 H91         5.9400   -3.0220    4.0110 hc        1 ATX      0.059589
     28 H92         7.5210   -2.4140    4.6610 hc        1 ATX      0.059589
     29 H93         7.2970   -2.6140    2.8710 hc        1 ATX      0.059589
     30 HN3        -0.4110    0.5420    0.7600 hn        1 ATX      0.469133
@<TRIPOS>BOND
     1    1    2 1   
     2    1   15 1   
     3    1   16 1   
     4    1   30 1   
     5    2    3 1   
     6    2    5 1   
     7    2   17 1   
     8    3    4 2   
     9    3    6 1   
    10    5   18 1   
    11    5   19 1   
    12    5   20 1   
    13    6    7 2   
    14    6   10 1   
    15    7    8 1   
    16    8    9 2   
    17    9   10 1   
    18    9   11 1   
    19   11   12 1   
    20   11   13 1   
    21   11   14 1   
    22   12   21 1   
    23   12   22 1   
    24   12   23 1   
    25   13   24 1   
    26   13   25 1   
    27   13   26 1   
    28   14   27 1   
    29   14   28 1   
    30   14   29 1   
@<TRIPOS>SUBSTRUCTURE
     1 ATX         1 TEMP              0 ****  ****    0 ROOT
