@<TRIPOS>MOLECULE
ATX
   30    30     1     0     0
SMALL
bcc


@<TRIPOS>ATOM
      1 N          -0.0090   -0.0740    0.0280 n4        1 ATX     -0.840600
      2 CA          1.4910    0.0540    0.0400 c3        1 ATX      0.029500
      3 C           2.0160    0.0060    1.4860 c         1 ATX      0.513600
      4 O           1.2780    0.2710    2.4340 o         1 ATX     -0.474100
      5 CB          1.9400    1.3500   -0.6210 c3        1 ATX     -0.134100
      6 C5          3.4110   -0.3690    1.5950 cc        1 ATX      0.287900
      7 N4          4.3290   -0.7690    0.6760 nd        1 ATX     -0.267000
      8 N3          5.4620   -1.0090    1.2770 nd        1 ATX     -0.345000
      9 C2          5.3210   -0.7730    2.6160 cc        1 ATX      0.554700
     10 O1          4.0160   -0.3600    2.8660 os        1 ATX     -0.318800
     11 C6          6.2900   -0.8860    3.7530 c3        1 ATX     -0.079300
     12 C7          7.4640    0.0480    3.4770 c3        1 ATX     -0.098767
     13 C8          5.6120   -0.5000    5.0600 c3        1 ATX     -0.098767
     14 C9          6.7790   -2.3290    3.8240 c3        1 ATX     -0.098767
     15 HN1        -0.3730    0.2000   -0.8890 hn        1 ATX      0.469133
     16 HN2        -0.2800   -1.0410    0.2340 hn        1 ATX      0.469133
     17 HA          1.9010   -0.8300   -0.5410 hx        1 ATX      0.147700
     18 HB1         1.5870    1.4070   -1.6800 hc        1 ATX      0.093033
     19 HB2         3.0620    1.3720   -0.6330 hc        1 ATX      0.093033
     20 HB3         1.5770    2.2460   -0.0600 hc        1 ATX      0.093033
     21 H71         7.9760   -0.2310    2.5250 hc        1 ATX      0.059589
     22 H72         7.1170    1.1060    3.4090 hc        1 ATX      0.059589
     23 H73         8.1980   -0.0340    4.3160 hc        1 ATX      0.059589
     24 H81         6.3450   -0.5890    5.8980 hc        1 ATX      0.059589
     25 H82         4.7460   -1.1730    5.2660 hc        1 ATX      0.059589
     26 H83         5.2440    0.5530    5.0140 hc        1 ATX      0.059589
     27 H91         5.9270   -3.0240    4.0130 hc        1 ATX      0.059589
     28 H92         7.5100   -2.4240    4.6650 hc        1 ATX      0.059589
     29 H93         7.2870   -2.6220    2.8740 hc        1 ATX      0.059589
     30 HN3        -0.4100    0.5380    0.7530 hn        1 ATX      0.469133
@<TRIPOS>BOND
     1    1    2 1   
     2    1   15 1   
     3    1   16 1   
     4    1   30 1   
     5    2    3 1   
     6    2    5 1   
     7    2   17 1   
     8    3    4 2   
     9    3    6 1   
    10    5   18 1   
    11    5   19 1   
    12    5   20 1   
    13    6    7 2   
    14    6   10 1   
    15    7    8 1   
    16    8    9 2   
    17    9   10 1   
    18    9   11 1   
    19   11   12 1   
    20   11   13 1   
    21   11   14 1   
    22   12   21 1   
    23   12   22 1   
    24   12   23 1   
    25   13   24 1   
    26   13   25 1   
    27   13   26 1   
    28   14   27 1   
    29   14   28 1   
    30   14   29 1   
@<TRIPOS>SUBSTRUCTURE
     1 ATX         1 TEMP              0 ****  ****    0 ROOT
