@<TRIPOS>MOLECULE
ATX
   29    28     1     0     0
SMALL
bcc


@<TRIPOS>ATOM
      1 N           2.3990    2.7830   -2.5460 n3        1 ATX     -0.343000
      2 CA          1.5240    1.6490   -2.6930 c3        1 ATX     -0.034000
      3 C           1.7460    0.6920   -1.5540 c2        1 ATX      0.259000
      4 O           2.7310    0.0390   -1.5170 o         1 ATX     -0.239000
      5 CB          1.8190    0.9390   -4.0200 c3        1 ATX     -0.209000
      6 C5          0.7880    0.6310   -0.4430 c2        1 ATX     -0.135000
      7 N4          0.2850    1.6810    0.2260 n2        1 ATX     -0.053000
      8 N3         -0.5440    1.2090    1.1840 n2        1 ATX     -0.096000
      9 C2         -0.5540   -0.1420    1.1040 c1        1 ATX      0.001000
     10 O1          0.2650   -0.5030    0.1020 os        1 ATX     -0.089000
     11 C6         -1.4190   -1.1190    1.9970 c2        1 ATX      0.025000
     12 C7         -1.4470   -0.5980    3.4520 c3        1 ATX     -0.211000
     13 C8         -2.8440   -1.1770    1.4620 c3        1 ATX     -0.211000
     14 C9         -0.7930   -2.5360    1.9550 c3        1 ATX     -0.211000
     15 HN1         3.2540    2.5380   -2.7480 hn        1 ATX      0.166500
     16 HN2         2.3610    3.1100   -1.6150 hn        1 ATX      0.166500
     17 HA          0.6140    1.9460   -2.6890 h1        1 ATX      0.128000
     18 HB1         2.6190    0.4300   -3.9390 hc        1 ATX      0.091000
     19 HB2         1.0560    0.3270   -4.2500 hc        1 ATX      0.091000
     20 HB3         1.9280    1.6040   -4.7270 hc        1 ATX      0.091000
     21 H71        -0.4980   -0.5560    3.8190 hc        1 ATX      0.090222
     22 H72        -2.0240   -1.2470    4.0440 hc        1 ATX      0.090222
     23 H73        -1.8330    0.2740    3.4670 hc        1 ATX      0.090222
     24 H81        -3.3650   -1.7920    1.9980 hc        1 ATX      0.090222
     25 H82        -2.8330   -1.4800    0.5400 hc        1 ATX      0.090222
     26 H83        -3.2740   -0.2230    1.5130 hc        1 ATX      0.090222
     27 H91         0.1510   -2.4910    2.2520 hc        1 ATX      0.090222
     28 H92        -1.2860   -3.1270    2.5370 hc        1 ATX      0.090222
     29 H93        -0.8270   -2.8590    1.0910 hc        1 ATX      0.090222
@<TRIPOS>BOND
     1    1    2 1   
     2    1   15 1   
     3    1   16 1   
     4    2    3 1   
     5    2    5 1   
     6    2   17 1   
     7    3    4 1   
     8    3    6 1   
     9    5   18 1   
    10    5   19 1   
    11    5   20 1   
    12    6    7 1   
    13    6   10 1   
    14    7    8 1   
    15    8    9 1   
    16    9   10 1   
    17   11   12 1   
    18   11   13 1   
    19   11   14 1   
    20   12   21 1   
    21   12   22 1   
    22   12   23 1   
    23   13   24 1   
    24   13   25 1   
    25   13   26 1   
    26   14   27 1   
    27   14   28 1   
    28   14   29 1   
@<TRIPOS>SUBSTRUCTURE
     1 ATX         1 TEMP              0 ****  ****    0 ROOT
