@<TRIPOS>MOLECULE
ATZ
   30    30     1     0     0
SMALL
bcc


@<TRIPOS>ATOM
      1 N1          0.2350   -0.3440   -0.3820 nb        1 ATZ     -0.658000
      2 C2          1.5390    0.1120   -0.3940 ca        1 ATZ      0.808000
      3 CL2         2.3420    0.1710   -1.8730 cl        1 ATZ      0.108000
      4 N3          2.2240    0.5220    0.7330 nb        1 ATZ     -0.658000
      5 C4          1.5210    0.4500    1.9040 ca        1 ATZ      0.816900
      6 N5          0.2190    0.0140    2.0400 nb        1 ATZ     -0.710000
      7 C6         -0.3600   -0.3690    0.8480 ca        1 ATZ      0.807900
      8 N7          2.2200    0.8950    3.1420 n4        1 ATZ     -0.767700
      9 C8          3.3750   -0.0350    3.5410 c3        1 ATZ      0.151500
     10 C9          4.1990    0.6460    4.6240 c3        1 ATZ     -0.144100
     11 C10         2.8540   -1.3770    4.0190 c3        1 ATZ     -0.144100
     12 N11        -1.7720   -0.8500    0.9040 n4        1 ATZ     -0.758700
     13 C12        -2.7320    0.1960    0.3800 c3        1 ATZ      0.122800
     14 C13        -4.1630   -0.2800    0.4770 c3        1 ATZ     -0.150100
     15 HN7         1.5490    0.9420    3.9240 hn        1 ATZ      0.488800
     16 H8          4.0100   -0.1670    2.6120 hx        1 ATZ      0.129700
     17 H91         4.6070    1.6310    4.2870 hc        1 ATZ      0.091367
     18 H92         3.6180    0.7850    5.5690 hc        1 ATZ      0.091367
     19 H93         5.0730   -0.0210    4.8540 hc        1 ATZ      0.091367
     20 H101        3.7390   -2.0300    4.2430 hc        1 ATZ      0.091367
     21 H102        2.2400   -1.8870    3.2390 hc        1 ATZ      0.091367
     22 H103        2.2560   -1.2810    4.9590 hc        1 ATZ      0.091367
     23 H11        -2.0240   -1.0870    1.8770 hn        1 ATZ      0.491800
     24 H121       -2.4570    0.4040   -0.6960 hx        1 ATZ      0.120700
     25 H122       -2.5800    1.1300    0.9930 hx        1 ATZ      0.120700
     26 H131       -4.3470   -1.1960   -0.1370 hc        1 ATZ      0.099367
     27 H132       -4.4750   -0.4740    1.5330 hc        1 ATZ      0.099367
     28 H133       -4.8170    0.5400    0.0720 hc        1 ATZ      0.099367
     29 H72         2.6080    1.8400    2.9770 hn        1 ATZ      0.488800
     30 H112       -1.8560   -1.7040    0.3260 hn        1 ATZ      0.491800
@<TRIPOS>BOND
     1    1    2 ar  
     2    1    7 ar  
     3    2    3 1   
     4    2    4 ar  
     5    4    5 ar  
     6    5    6 ar  
     7    5    8 1   
     8    6    7 ar  
     9    7   12 1   
    10    8    9 1   
    11    8   15 1   
    12    8   29 1   
    13    9   10 1   
    14    9   11 1   
    15    9   16 1   
    16   10   17 1   
    17   10   18 1   
    18   10   19 1   
    19   11   20 1   
    20   11   21 1   
    21   11   22 1   
    22   12   13 1   
    23   12   23 1   
    24   12   30 1   
    25   13   14 1   
    26   13   24 1   
    27   13   25 1   
    28   14   26 1   
    29   14   27 1   
    30   14   28 1   
@<TRIPOS>SUBSTRUCTURE
     1 ATZ         1 TEMP              0 ****  ****    0 ROOT
