@<TRIPOS>MOLECULE
ATZ
   28    25     1     0     0
SMALL
bcc


@<TRIPOS>ATOM
      1 N1         -0.6060   -0.2990   -2.2010 n1        1 ATZ     -0.602800
      2 C2          0.7560   -0.2450   -2.2200 c1        1 ATZ      0.526700
      3 CL2         1.6220   -0.3010   -3.7620 cl        1 ATZ     -0.040900
      4 N3          1.4410   -0.3050   -1.0720 n1        1 ATZ     -0.601800
      5 C4          0.7720   -0.4200    0.1220 c1        1 ATZ      0.592600
      6 N5         -0.5590   -0.4730    0.1370 n1        1 ATZ     -0.650800
      7 C6         -1.2590   -0.4120   -1.0240 c1        1 ATZ      0.598600
      8 N7          1.5160   -0.4970    1.3720 n3        1 ATZ     -0.689800
      9 C8          2.6500    0.3090    1.5650 c3        1 ATZ      0.214500
     10 C9          2.4440    1.1960    2.7900 c3        1 ATZ     -0.114600
     11 C10         3.9150   -0.6130    1.7880 c3        1 ATZ     -0.114600
     12 N11        -2.7050   -0.4240   -0.9970 n3        1 ATZ     -0.712800
     13 C12        -3.4540    0.3140   -1.9850 c3        1 ATZ      0.216800
     14 C13        -4.9420    0.1060   -1.7490 c3        1 ATZ     -0.113100
     15 HN7         1.2840   -1.1220    2.0060 hn        1 ATZ      0.433800
     16 H8          2.7890    0.8690    0.7780 h1        1 ATZ      0.088700
     17 H91         1.6110    1.7060    2.6880 hc        1 ATZ      0.045033
     18 H92         2.3900    0.6400    3.5900 hc        1 ATZ      0.045033
     19 H93         3.1910    1.8090    2.8740 hc        1 ATZ      0.045033
     20 H101        4.0800   -1.1390    0.9820 hc        1 ATZ      0.045033
     21 H102        4.6870   -0.0630    1.9780 hc        1 ATZ      0.045033
     22 H103        3.7510   -1.2150    2.5410 hc        1 ATZ      0.045033
     23 H11        -3.1400   -0.8600   -0.3340 hn        1 ATZ      0.446800
     24 H121       -3.2150   -0.0040   -2.8840 h1        1 ATZ      0.057700
     25 H122       -3.2440    1.2730   -1.9080 h1        1 ATZ      0.057700
     26 H131       -5.1200    0.0950   -0.7750 hc        1 ATZ      0.046033
     27 H132       -5.4360    0.8250   -2.1570 hc        1 ATZ      0.046033
     28 H133       -5.2220   -0.7480   -2.1430 hc        1 ATZ      0.046033
@<TRIPOS>BOND
     1    1    7 3   
     2    2    3 1   
     3    2    4 3   
     4    5    6 3   
     5    5    8 1   
     6    7   12 1   
     7    8    9 1   
     8    8   15 1   
     9    9   10 1   
    10    9   11 1   
    11    9   16 1   
    12   10   17 1   
    13   10   18 1   
    14   10   19 1   
    15   11   20 1   
    16   11   21 1   
    17   11   22 1   
    18   12   13 1   
    19   12   23 1   
    20   13   14 1   
    21   13   24 1   
    22   13   25 1   
    23   14   26 1   
    24   14   27 1   
    25   14   28 1   
@<TRIPOS>SUBSTRUCTURE
     1 ATZ         1 TEMP              0 ****  ****    0 ROOT
