@<TRIPOS>MOLECULE
ATZ
   28    28     1     0     0
SMALL
bcc


@<TRIPOS>ATOM
      1 N1         -0.0050   -0.0240   -0.1690 nb        1 ATZ     -0.803000
      2 C2          1.3530    0.0110   -0.0900 ca        1 ATZ      0.803000
      3 CL2         2.2030   -0.0290   -1.5940 cl        1 ATZ     -0.117000
      4 N3          2.1230    0.0710    1.0300 nb        1 ATZ     -0.802000
      5 C4          1.3940    0.1210    2.2220 ca        1 ATZ      0.929900
      6 N5          0.0110    0.0650    2.2950 nb        1 ATZ     -0.851000
      7 C6         -0.6460   -0.0110    1.0740 ca        1 ATZ      0.935900
      8 N7          2.0740    0.3120    3.4250 nh        1 ATZ     -0.826900
      9 C8          3.5010    0.0620    3.5460 c3        1 ATZ      0.214500
     10 C9          4.0400    0.6610    4.8490 c3        1 ATZ     -0.114600
     11 C10         3.8810   -1.4190    3.4930 c3        1 ATZ     -0.114600
     12 N11        -2.0280   -0.1270    1.1110 nh        1 ATZ     -0.849900
     13 C12        -2.8300   -0.0220   -0.0830 c3        1 ATZ      0.216800
     14 C13        -4.3220   -0.0730    0.2030 c3        1 ATZ     -0.113100
     15 HN7         1.5420    0.1480    4.2550 hn        1 ATZ      0.433800
     16 H8          4.0150    0.5890    2.6860 h1        1 ATZ      0.088700
     17 H91         5.1470    0.5200    4.8710 hc        1 ATZ      0.045033
     18 H92         3.8190    1.7530    4.9110 hc        1 ATZ      0.045033
     19 H93         3.5990    0.1530    5.7400 hc        1 ATZ      0.045033
     20 H101        4.9910   -1.5110    3.5610 hc        1 ATZ      0.045033
     21 H102        3.5450   -1.8810    2.5340 hc        1 ATZ      0.045033
     22 H103        3.4250   -1.9810    4.3430 hc        1 ATZ      0.045033
     23 H11        -2.4790    0.0190    1.9860 hn        1 ATZ      0.446800
     24 H121       -2.5540   -0.8730   -0.7720 h1        1 ATZ      0.057700
     25 H122       -2.5920    0.9410   -0.6250 h1        1 ATZ      0.057700
     26 H131       -4.8690   -0.0020   -0.7680 hc        1 ATZ      0.046033
     27 H132       -4.6420    0.7770    0.8530 hc        1 ATZ      0.046033
     28 H133       -4.6080   -1.0300    0.7020 hc        1 ATZ      0.046033
@<TRIPOS>BOND
     1    1    2 ar  
     2    1    7 ar  
     3    2    3 1   
     4    2    4 ar  
     5    4    5 ar  
     6    5    6 ar  
     7    5    8 1   
     8    6    7 ar  
     9    7   12 1   
    10    8    9 1   
    11    8   15 1   
    12    9   10 1   
    13    9   11 1   
    14    9   16 1   
    15   10   17 1   
    16   10   18 1   
    17   10   19 1   
    18   11   20 1   
    19   11   21 1   
    20   11   22 1   
    21   12   13 1   
    22   12   23 1   
    23   13   14 1   
    24   13   24 1   
    25   13   25 1   
    26   14   26 1   
    27   14   27 1   
    28   14   28 1   
@<TRIPOS>SUBSTRUCTURE
     1 ATZ         1 TEMP              0 ****  ****    0 ROOT
