@<TRIPOS>MOLECULE
ATZ
   28    28     1     0     0
SMALL
bcc


@<TRIPOS>ATOM
      1 N1         -0.0040   -0.0270   -0.1700 nb        1 ATZ     -0.803000
      2 C2          1.3540    0.0070   -0.0900 ca        1 ATZ      0.803000
      3 Cl2         2.2040   -0.0350   -1.5930 cl        1 ATZ     -0.117000
      4 N3          2.1230    0.0690    1.0310 nb        1 ATZ     -0.802000
      5 C4          1.3940    0.1210    2.2220 ca        1 ATZ      0.929900
      6 N5          0.0100    0.0660    2.2940 nb        1 ATZ     -0.851000
      7 C6         -0.6460   -0.0110    1.0730 ca        1 ATZ      0.935900
      8 N7          2.0740    0.3120    3.4250 nu        1 ATZ     -0.826900
      9 C8          3.5010    0.0620    3.5470 c3        1 ATZ      0.214500
     10 C9          4.0400    0.6620    4.8490 c3        1 ATZ     -0.114600
     11 C10         3.8790   -1.4190    3.4960 c3        1 ATZ     -0.114600
     12 N11        -2.0280   -0.1260    1.1100 nu        1 ATZ     -0.849900
     13 C12        -2.8290   -0.0210   -0.0850 c3        1 ATZ      0.216800
     14 C13        -4.3210   -0.0710    0.2010 c3        1 ATZ     -0.113100
     15 HN7         1.5420    0.1510    4.2550 hn        1 ATZ      0.433800
     16 H8          4.0150    0.5870    2.6860 h1        1 ATZ      0.088700
     17 H91         3.8190    1.7550    4.9090 hc        1 ATZ      0.045033
     18 H92         3.5980    0.1560    5.7400 hc        1 ATZ      0.045033
     19 H93         5.1470    0.5210    4.8720 hc        1 ATZ      0.045033
     20 H101        4.9890   -1.5130    3.5640 hc        1 ATZ      0.045033
     21 H102        3.4220   -1.9800    4.3470 hc        1 ATZ      0.045033
     22 H103        3.5440   -1.8830    2.5380 hc        1 ATZ      0.045033
     23 H11        -2.4790    0.0220    1.9850 hn        1 ATZ      0.446800
     24 H121       -2.5910    0.9400   -0.6270 h1        1 ATZ      0.057700
     25 H122       -2.5530   -0.8730   -0.7720 h1        1 ATZ      0.057700
     26 H131       -4.8680    0.0000   -0.7700 hc        1 ATZ      0.046033
     27 H132       -4.6410    0.7790    0.8500 hc        1 ATZ      0.046033
     28 H133       -4.6090   -1.0270    0.7000 hc        1 ATZ      0.046033
@<TRIPOS>BOND
     1    1    2 ar  
     2    1    7 ar  
     3    2    3 1   
     4    2    4 ar  
     5    4    5 ar  
     6    5    6 ar  
     7    5    8 1   
     8    6    7 ar  
     9    7   12 1   
    10    8    9 1   
    11    8   15 1   
    12    9   10 1   
    13    9   11 1   
    14    9   16 1   
    15   10   17 1   
    16   10   18 1   
    17   10   19 1   
    18   11   20 1   
    19   11   21 1   
    20   11   22 1   
    21   12   13 1   
    22   12   23 1   
    23   13   14 1   
    24   13   24 1   
    25   13   25 1   
    26   14   26 1   
    27   14   27 1   
    28   14   28 1   
@<TRIPOS>SUBSTRUCTURE
     1 ATZ         1 TEMP              0 ****  ****    0 ROOT
