@<TRIPOS>MOLECULE
ATZ
   28    28     1     0     0
SMALL
bcc


@<TRIPOS>ATOM
      1 N1          0.8070    0.0130    1.5000 nb        1 ATZ     -0.803000
      2 C2          1.4240   -0.0550    0.2890 ca        1 ATZ      0.803000
      3 CL2         3.1510   -0.0290    0.3140 cl        1 ATZ     -0.117000
      4 N3          0.8450   -0.1400   -0.9400 nb        1 ATZ     -0.802000
      5 C4         -0.5520   -0.1780   -0.9110 ca        1 ATZ      0.929900
      6 N5         -1.3130   -0.0890    0.2440 nb        1 ATZ     -0.851000
      7 C6         -0.5900    0.0090    1.4260 ca        1 ATZ      0.935900
      8 N7         -1.2490   -0.3910   -2.1010 nh        1 ATZ     -0.826900
      9 C8         -0.6310   -0.1770   -3.4000 c3        1 ATZ      0.214500
     10 C9         -1.4870   -0.7950   -4.5080 c3        1 ATZ     -0.114600
     11 C10        -0.3820    1.2950   -3.7350 c3        1 ATZ     -0.114600
     12 N11        -1.3190    0.1580    2.5960 nh        1 ATZ     -0.849900
     13 C12        -0.6940    0.0780    3.8940 c3        1 ATZ      0.216800
     14 C13        -1.6940    0.1650    5.0360 c3        1 ATZ     -0.113100
     15 HN7        -2.2320   -0.2190   -2.0650 hn        1 ATZ      0.433800
     16 H8          0.3680   -0.7120   -3.3960 h1        1 ATZ      0.088700
     17 H91        -0.9460   -0.6810   -5.4780 hc        1 ATZ      0.045033
     18 H92        -1.6610   -1.8820   -4.3230 hc        1 ATZ      0.045033
     19 H93        -2.4750   -0.2810   -4.5900 hc        1 ATZ      0.045033
     20 H101       -1.3410    1.8630   -3.7840 hc        1 ATZ      0.045033
     21 H102        0.2810    1.7700   -2.9720 hc        1 ATZ      0.045033
     22 H103        0.1220    1.3600   -4.7290 hc        1 ATZ      0.045033
     23 H11        -2.3030    0.0190    2.5470 hn        1 ATZ      0.446800
     24 H121        0.0470    0.9250    3.9830 h1        1 ATZ      0.057700
     25 H122       -0.1150   -0.8870    3.9850 h1        1 ATZ      0.057700
     26 H131       -1.1320    0.1110    6.0000 hc        1 ATZ      0.046033
     27 H132       -2.2610    1.1260    5.0080 hc        1 ATZ      0.046033
     28 H133       -2.4240   -0.6800    5.0030 hc        1 ATZ      0.046033
@<TRIPOS>BOND
     1    1    2 ar  
     2    1    7 ar  
     3    2    3 1   
     4    2    4 ar  
     5    4    5 ar  
     6    5    6 ar  
     7    5    8 1   
     8    6    7 ar  
     9    7   12 1   
    10    8    9 1   
    11    8   15 1   
    12    9   10 1   
    13    9   11 1   
    14    9   16 1   
    15   10   17 1   
    16   10   18 1   
    17   10   19 1   
    18   11   20 1   
    19   11   21 1   
    20   11   22 1   
    21   12   13 1   
    22   12   23 1   
    23   13   14 1   
    24   13   24 1   
    25   13   25 1   
    26   14   26 1   
    27   14   27 1   
    28   14   28 1   
@<TRIPOS>SUBSTRUCTURE
     1 ATZ         1 TEMP              0 ****  ****    0 ROOT
