@<TRIPOS>MOLECULE
AU1
   41    42     1     0     0
SMALL
bcc


@<TRIPOS>ATOM
      1 O1A         1.0010   -0.9040    1.2400 o         1 AU1     -0.865500
      2 PA          2.0670   -0.7600    0.2210 p5        1 AU1      1.446700
      3 O2A         3.4070   -1.4080    0.3980 o         1 AU1     -0.865500
      4 N3A         2.1670    0.7070   -0.4040 n8        1 AU1     -1.118900
      5 PB          2.9530    3.2790   -0.4070 p4        1 AU1      1.499300
      6 O2B         3.6120    3.7350    0.8290 o         1 AU1     -0.814833
      7 O1B         3.7640    2.8140   -1.5520 o         1 AU1     -0.814833
      8 O3B         1.5080    3.5120   -0.6050 o         1 AU1     -0.863633
      9 O5'         1.5060   -1.7240   -1.0720 os        1 AU1     -0.572200
     10 C5'         2.4150   -2.0290   -2.0620 c3        1 AU1      0.212400
     11 C4'         3.0570   -3.4120   -1.8300 c3        1 AU1      0.064100
     12 C3'         4.4930   -3.3370   -1.2740 c3        1 AU1      0.121100
     13 O3'         4.5660   -3.9160    0.0100 oh        1 AU1     -0.654800
     14 C2'         5.3610   -4.1730   -2.2390 c3        1 AU1      0.107100
     15 O2'         5.8140   -5.4030   -1.7220 oh        1 AU1     -0.602800
     16 C1'         4.4210   -4.4650   -3.4580 c3        1 AU1      0.212800
     17 O4'         3.0900   -4.1480   -3.0720 os        1 AU1     -0.425600
     18 N9          4.7800   -3.7240   -4.6570 na        1 AU1     -0.261000
     19 C4          5.2110   -4.2710   -5.8720 ca        1 AU1      0.446800
     20 C5          5.3400   -3.1330   -6.7840 ca        1 AU1     -0.212200
     21 N7          4.9660   -1.9510   -6.1280 nc        1 AU1     -0.569100
     22 C8          4.6320   -2.3350   -4.8850 cd        1 AU1      0.446700
     23 N3          5.4870   -5.5590   -6.2440 nb        1 AU1     -0.714000
     24 C2          5.8780   -5.6600   -7.5320 ca        1 AU1      0.653900
     25 N1          6.0380   -4.6990   -8.4860 nb        1 AU1     -0.805000
     26 C6          5.7880   -3.4020   -8.1160 ca        1 AU1      0.717200
     27 N6          6.0200   -2.3520   -8.9930 nv        1 AU1     -0.939500
     28 H2          1.3840    1.3160   -0.4230 hn        1 AU1      0.431300
     29 H5          3.2210   -1.2430   -2.1180 h1        1 AU1      0.010700
     30 H6          1.8680   -2.0620   -3.0480 h1        1 AU1      0.010700
     31 H7          2.4000   -4.0180   -1.1480 h1        1 AU1      0.093700
     32 H8          4.8550   -2.2720   -1.2320 h1        1 AU1      0.107700
     33 H9          4.2450   -3.2300    0.6290 ho        1 AU1      0.494000
     34 H10         6.2890   -3.6190   -2.5400 h1        1 AU1      0.079700
     35 H11         5.2270   -5.6580   -0.9970 ho        1 AU1      0.429000
     36 H12         4.4310   -5.5650   -3.7170 h2        1 AU1      0.103700
     37 H13         4.2630   -1.6720   -4.0840 h5        1 AU1      0.105800
     38 H14         6.1030   -6.6910   -7.8780 h5        1 AU1      0.033100
     39 H15         6.0650   -2.5630   -9.9610 hn        1 AU1      0.420300
     40 H16         5.5950   -1.4880   -8.7470 hn        1 AU1      0.420300
     41 H3A2        2.8360    0.9220   -1.1040 hn        1 AU1      0.431300
@<TRIPOS>BOND
     1    1    2 1   
     2    2    3 1   
     3    2    4 1   
     4    2    9 1   
     5    4   28 1   
     6    4   41 1   
     7    5    6 1   
     8    5    7 1   
     9    5    8 2   
    10    9   10 1   
    11   10   11 1   
    12   10   29 1   
    13   10   30 1   
    14   11   12 1   
    15   11   17 1   
    16   11   31 1   
    17   12   13 1   
    18   12   14 1   
    19   12   32 1   
    20   13   33 1   
    21   14   15 1   
    22   14   16 1   
    23   14   34 1   
    24   15   35 1   
    25   16   17 1   
    26   16   18 1   
    27   16   36 1   
    28   18   19 1   
    29   18   22 1   
    30   19   20 ar  
    31   19   23 ar  
    32   20   21 1   
    33   20   26 ar  
    34   21   22 2   
    35   22   37 1   
    36   23   24 ar  
    37   24   25 ar  
    38   24   38 1   
    39   25   26 ar  
    40   26   27 1   
    41   27   39 1   
    42   27   40 1   
@<TRIPOS>SUBSTRUCTURE
     1 AU1         1 TEMP              0 ****  ****    0 ROOT
