@<TRIPOS>MOLECULE
AU4
   44    45     1     0     0
SMALL
bcc


@<TRIPOS>ATOM
      1 C14         0.4470    1.2810    0.3990 c3        1 AU4      0.196850
      2 N15         1.4990    0.3200    0.2140 nh        1 AU4     -0.669000
      3 C15         1.8420   -0.5570    1.3010 c3        1 AU4      0.196850
      4 C12         2.0420    0.1160   -1.0360 ca        1 AU4      0.245600
      5 C7          1.6590    0.9220   -2.1510 ca        1 AU4     -0.213000
      6 C8          2.2340    0.7290   -3.3920 ca        1 AU4     -0.050500
      7 C11         3.0220   -0.8920   -1.2670 ca        1 AU4     -0.213000
      8 C10         3.5880   -1.0640   -2.5190 ca        1 AU4     -0.050500
      9 C9          3.2190   -0.2530   -3.5980 ca        1 AU4     -0.260800
     10 C13         3.7720   -0.4240   -4.9710 c3        1 AU4      0.304100
     11 N8          4.6720    0.7810   -5.2790 nz        1 AU4     -0.859600
     12 C4          4.5370   -1.6720   -5.2500 ca        1 AU4     -0.260800
     13 C5          4.0110   -2.6030   -6.1570 ca        1 AU4     -0.050500
     14 C6          4.6830   -3.7760   -6.4490 ca        1 AU4     -0.213000
     15 C1          5.9390   -4.0710   -5.8440 ca        1 AU4      0.245600
     16 C2          6.4600   -3.1160   -4.9220 ca        1 AU4     -0.213000
     17 C3          5.7660   -1.9540   -4.6370 ca        1 AU4     -0.050500
     18 N16         6.6300   -5.2240   -6.1490 nh        1 AU4     -0.669000
     19 C17         7.8650   -5.5270   -5.4810 c3        1 AU4      0.196850
     20 C16         6.0550   -6.1990   -7.0350 c3        1 AU4      0.196850
     21 H141        0.8160    2.3080    0.1290 h1        1 AU4      0.051950
     22 H142        0.1170    1.2930    1.4700 h1        1 AU4      0.051950
     23 H143       -0.4390    1.0330   -0.2470 h1        1 AU4      0.051950
     24 H151        1.5640   -1.6200    1.0600 h1        1 AU4      0.051950
     25 H152        2.9470   -0.5070    1.4990 h1        1 AU4      0.051950
     26 H153        1.3000   -0.2480    2.2330 h1        1 AU4      0.051950
     27 H7          0.8890    1.7000   -2.0380 ha        1 AU4      0.152000
     28 H8          1.8940    1.3500   -4.2360 ha        1 AU4      0.132250
     29 H11         3.3370   -1.5600   -0.4510 ha        1 AU4      0.152000
     30 H10         4.3260   -1.8720   -2.6620 ha        1 AU4      0.132250
     31 H13         2.9180   -0.3350   -5.7170 hx        1 AU4      0.093700
     32 HN81        4.9660    0.7520   -6.2560 hn        1 AU4      0.445133
     33 HN82        4.1640    1.6460   -5.0870 hn        1 AU4      0.445133
     34 H5          3.0390   -2.4100   -6.6410 ha        1 AU4      0.132250
     35 H6          4.2250   -4.4830   -7.1590 ha        1 AU4      0.152000
     36 H2          7.4210   -3.2960   -4.4170 ha        1 AU4      0.152000
     37 H3          6.1920   -1.2540   -3.9000 ha        1 AU4      0.132250
     38 H171        8.2730   -6.5060   -5.8460 h1        1 AU4      0.051950
     39 H172        8.6240   -4.7250   -5.6900 h1        1 AU4      0.051950
     40 H173        7.7090   -5.5960   -4.3690 h1        1 AU4      0.051950
     41 H161        5.0750   -6.5740   -6.6320 h1        1 AU4      0.051950
     42 H162        6.7500   -7.0710   -7.1550 h1        1 AU4      0.051950
     43 H163        5.8790   -5.7420   -8.0480 h1        1 AU4      0.051950
     44 H83         5.5010    0.7440   -4.6820 hn        1 AU4      0.445133
@<TRIPOS>BOND
     1    1    2 1   
     2    1   21 1   
     3    1   22 1   
     4    1   23 1   
     5    2    3 1   
     6    2    4 1   
     7    3   24 1   
     8    3   25 1   
     9    3   26 1   
    10    4    5 ar  
    11    4    7 ar  
    12    5    6 ar  
    13    5   27 1   
    14    6    9 ar  
    15    6   28 1   
    16    7    8 ar  
    17    7   29 1   
    18    8    9 ar  
    19    8   30 1   
    20    9   10 1   
    21   10   11 1   
    22   10   12 1   
    23   10   31 1   
    24   11   32 1   
    25   11   33 1   
    26   11   44 1   
    27   12   13 ar  
    28   12   17 ar  
    29   13   14 ar  
    30   13   34 1   
    31   14   15 ar  
    32   14   35 1   
    33   15   16 ar  
    34   15   18 1   
    35   16   17 ar  
    36   16   36 1   
    37   17   37 1   
    38   18   19 1   
    39   18   20 1   
    40   19   38 1   
    41   19   39 1   
    42   19   40 1   
    43   20   41 1   
    44   20   42 1   
    45   20   43 1   
@<TRIPOS>SUBSTRUCTURE
     1 AU4         1 TEMP              0 ****  ****    0 ROOT
