@<TRIPOS>MOLECULE
AU4
   43    44     1     0     0
SMALL
bcc


@<TRIPOS>ATOM
      1 C14        -5.2890   -1.7380   -1.0220 c3        1 AU4      0.183100
      2 N15        -4.8760   -0.9750    0.1290 nh        1 AU4     -0.652000
      3 C15        -5.2240   -1.5330    1.4110 c3        1 AU4      0.183100
      4 C12        -3.6420   -0.2980    0.0390 ca        1 AU4      0.158100
      5 C7         -3.0490   -0.0170   -1.2160 ca        1 AU4     -0.185000
      6 C8         -1.8820    0.7320   -1.2990 ca        1 AU4     -0.087750
      7 C11        -2.9900    0.1930    1.1960 ca        1 AU4     -0.185000
      8 C10        -1.8210    0.9380    1.0920 ca        1 AU4     -0.087750
      9 C9         -1.2510    1.2210   -0.1510 ca        1 AU4     -0.134300
     10 C13         0.0170    2.0360   -0.2890 c3        1 AU4      0.268100
     11 N8          0.1390    3.1520    0.6350 n3        1 AU4     -0.896800
     12 C4          1.2170    1.1210   -0.2240 ca        1 AU4     -0.134300
     13 C5          2.0930    1.0390   -1.3090 ca        1 AU4     -0.087750
     14 C6          3.2050    0.2060   -1.2700 ca        1 AU4     -0.185000
     15 C1          3.4800   -0.5840   -0.1270 ca        1 AU4      0.158100
     16 C2          2.5940   -0.4780    0.9720 ca        1 AU4     -0.185000
     17 C3          1.4860    0.3570    0.9140 ca        1 AU4     -0.087750
     18 N16         4.5550   -1.4980   -0.1140 nh        1 AU4     -0.652000
     19 C17         4.9800   -1.9880    1.1730 c3        1 AU4      0.183100
     20 C16         5.6010   -1.2910   -1.0840 c3        1 AU4      0.183100
     21 H141       -4.5050   -2.4690   -1.3620 h1        1 AU4      0.037117
     22 H142       -6.2280   -2.3050   -0.7870 h1        1 AU4      0.037117
     23 H143       -5.5100   -1.0310   -1.8660 h1        1 AU4      0.037117
     24 H151       -4.4180   -2.1960    1.8290 h1        1 AU4      0.037117
     25 H152       -5.4100   -0.6940    2.1340 h1        1 AU4      0.037117
     26 H153       -6.1690   -2.1310    1.3230 h1        1 AU4      0.037117
     27 H7         -3.5030   -0.3830   -2.1480 ha        1 AU4      0.132000
     28 H8         -1.4470    0.9370   -2.2890 ha        1 AU4      0.127500
     29 H11        -3.3970   -0.0030    2.1980 ha        1 AU4      0.132000
     30 H10        -1.3440    1.2990    2.0170 ha        1 AU4      0.127500
     31 H13        -0.0060    2.5110   -1.3210 h1        1 AU4      0.065700
     32 HN81       -0.7430    3.6180    0.7260 hn        1 AU4      0.347300
     33 HN82        0.4330    2.8370    1.5400 hn        1 AU4      0.347300
     34 H5          1.9090    1.6450   -2.2100 ha        1 AU4      0.127500
     35 H6          3.8650    0.1750   -2.1490 ha        1 AU4      0.132000
     36 H2          2.7620   -1.0600    1.8900 ha        1 AU4      0.132000
     37 H3          0.8040    0.4090    1.7770 ha        1 AU4      0.127500
     38 H171        4.1660   -2.6310    1.6030 h1        1 AU4      0.037117
     39 H172        5.8990   -2.6210    1.0550 h1        1 AU4      0.037117
     40 H173        5.2060   -1.1600    1.8990 h1        1 AU4      0.037117
     41 H161        6.0140   -0.2460   -1.0590 h1        1 AU4      0.037117
     42 H162        6.4400   -2.0120   -0.9000 h1        1 AU4      0.037117
     43 H163        5.1880   -1.4900   -2.1090 h1        1 AU4      0.037117
@<TRIPOS>BOND
     1    1    2 1   
     2    1   21 1   
     3    1   22 1   
     4    1   23 1   
     5    2    3 1   
     6    2    4 1   
     7    3   24 1   
     8    3   25 1   
     9    3   26 1   
    10    4    5 ar  
    11    4    7 ar  
    12    5    6 ar  
    13    5   27 1   
    14    6    9 ar  
    15    6   28 1   
    16    7    8 ar  
    17    7   29 1   
    18    8    9 ar  
    19    8   30 1   
    20    9   10 1   
    21   10   11 1   
    22   10   12 1   
    23   10   31 1   
    24   11   32 1   
    25   11   33 1   
    26   12   13 ar  
    27   12   17 ar  
    28   13   14 ar  
    29   13   34 1   
    30   14   15 ar  
    31   14   35 1   
    32   15   16 ar  
    33   15   18 1   
    34   16   17 ar  
    35   16   36 1   
    36   17   37 1   
    37   18   19 1   
    38   18   20 1   
    39   19   38 1   
    40   19   39 1   
    41   19   40 1   
    42   20   41 1   
    43   20   42 1   
    44   20   43 1   
@<TRIPOS>SUBSTRUCTURE
     1 AU4         1 TEMP              0 ****  ****    0 ROOT
