@<TRIPOS>MOLECULE
AU4
   43    40     1     0     0
SMALL
bcc


@<TRIPOS>ATOM
      1 C14        -4.1580    2.1670    4.0740 c3        1 AU4     -0.092000
      2 N15        -3.0690    1.2410    3.7660 n3        1 AU4     -0.255000
      3 C15        -2.5660    0.3980    4.7660 c3        1 AU4     -0.092000
      4 C12        -2.4400    1.2510    2.4230 c2        1 AU4      0.079000
      5 C7         -3.2150    1.3800    1.3020 c2        1 AU4     -0.188000
      6 C8         -2.6130    1.3980    0.0290 c1        1 AU4     -0.080000
      7 C11        -1.0450    1.1370    2.3050 c1        1 AU4     -0.186000
      8 C10        -0.4440    1.1540    1.0380 c1        1 AU4     -0.087000
      9 C9         -1.2270    1.2840   -0.0920 c1        1 AU4     -0.109000
     10 C13        -0.5690    1.4120   -1.4850 c3        1 AU4      0.054000
     11 N8          0.0870    2.6510   -1.5730 n3        1 AU4     -0.329000
     12 C4          0.4250    0.2800   -1.6870 c2        1 AU4     -0.132000
     13 C5          1.6270    0.2530   -0.9470 c2        1 AU4     -0.110000
     14 C6          2.5780   -0.7260   -1.2000 c1        1 AU4     -0.177000
     15 C1          2.3500   -1.6780   -2.1780 c1        1 AU4      0.051000
     16 C2          1.1630   -1.6540   -2.9120 c1        1 AU4     -0.151000
     17 C3          0.1990   -0.6640   -2.6580 c1        1 AU4     -0.096000
     18 N16         3.4160   -2.6380   -2.5370 n3        1 AU4     -0.244000
     19 C17         3.7300   -3.7190   -1.6590 c3        1 AU4     -0.102500
     20 C16         4.1330   -2.4920   -3.7840 c3        1 AU4     -0.102500
     21 H141       -4.2820    2.2270    5.0880 h1        1 AU4      0.076500
     22 H142       -3.9470    3.0340    3.7290 h1        1 AU4      0.076500
     23 H143       -5.0120    1.8330    3.6510 h1        1 AU4      0.076500
     24 H151       -2.2250   -0.4600    4.3480 h1        1 AU4      0.076500
     25 H152       -1.8550    0.8340    5.2180 h1        1 AU4      0.076500
     26 H153       -3.2950    0.1840    5.4190 h1        1 AU4      0.076500
     27 H7         -4.1960    1.4580    1.3850 ha        1 AU4      0.132000
     28 H8         -3.1690    1.4900   -0.7730 ha        1 AU4      0.131000
     29 H11        -0.5140    1.0460    3.0760 ha        1 AU4      0.132000
     30 H10         0.5670    1.0720    0.9520 ha        1 AU4      0.127000
     31 H13        -1.2500    1.3630   -2.1650 h1        1 AU4      0.105000
     32 HN81       -0.0070    3.0790   -0.8260 hn        1 AU4      0.143000
     33 HN82        0.9670    2.5200   -1.7380 hn        1 AU4      0.143000
     34 H5          1.7830    0.8970   -0.2800 ha        1 AU4      0.122000
     35 H6          3.4050   -0.7440   -0.6890 ha        1 AU4      0.131000
     36 H2          1.0030   -2.3280   -3.6040 ha        1 AU4      0.137000
     37 H3         -0.6500   -0.6480   -3.1800 ha        1 AU4      0.133000
     38 H171        4.3310   -4.3680   -2.1280 h1        1 AU4      0.075667
     39 H172        4.2020   -3.3570   -0.8320 h1        1 AU4      0.075667
     40 H173        2.9370   -4.1570   -1.4030 h1        1 AU4      0.075667
     41 H161        4.3590   -1.5640   -3.9190 h1        1 AU4      0.075667
     42 H162        3.5370   -2.8210   -4.5710 h1        1 AU4      0.075667
     43 H163        4.9510   -3.0260   -3.7510 h1        1 AU4      0.075667
@<TRIPOS>BOND
     1    1    2 1   
     2    1   21 1   
     3    1   22 1   
     4    1   23 1   
     5    2    3 1   
     6    2    4 1   
     7    3   24 1   
     8    3   25 1   
     9    3   26 1   
    10    4    5 1   
    11    4    7 1   
    12    5    6 1   
    13    5   27 1   
    14    6   28 1   
    15    7   29 1   
    16    8    9 1   
    17    8   30 1   
    18    9   10 1   
    19   10   11 1   
    20   10   12 1   
    21   10   31 1   
    22   11   32 1   
    23   11   33 1   
    24   12   13 1   
    25   12   17 1   
    26   13   14 1   
    27   13   34 1   
    28   14   35 1   
    29   15   16 1   
    30   15   18 1   
    31   16   36 1   
    32   17   37 1   
    33   18   19 1   
    34   18   20 1   
    35   19   38 1   
    36   19   39 1   
    37   19   40 1   
    38   20   41 1   
    39   20   42 1   
    40   20   43 1   
@<TRIPOS>SUBSTRUCTURE
     1 AU4         1 TEMP              0 ****  ****    0 ROOT
