@<TRIPOS>MOLECULE
AU4
   44    45     1     0     0
SMALL
bcc


@<TRIPOS>ATOM
      1 C14         0.4260    1.2840    0.3780 c3        1 AU4      0.196850
      2 N15         1.4730    0.3160    0.2000 nh        1 AU4     -0.669000
      3 C15         1.7950   -0.5710    1.2830 c3        1 AU4      0.196850
      4 C12         2.0300    0.1180   -1.0460 ca        1 AU4      0.245600
      5 C7          1.6670    0.9350   -2.1590 ca        1 AU4     -0.213000
      6 C8          2.2550    0.7460   -3.3940 ca        1 AU4     -0.050500
      7 C11         3.0030   -0.8970   -1.2730 ca        1 AU4     -0.213000
      8 C10         3.5830   -1.0640   -2.5190 ca        1 AU4     -0.050500
      9 C9          3.2340   -0.2420   -3.5960 ca        1 AU4     -0.260800
     10 C13         3.8010   -0.4070   -4.9630 c3        1 AU4      0.304100
     11 N8          4.7170    0.7910   -5.2510 n4        1 AU4     -0.859600
     12 C4          4.5580   -1.6600   -5.2440 ca        1 AU4     -0.260800
     13 C5          4.0330   -2.5790   -6.1640 ca        1 AU4     -0.050500
     14 C6          4.6970   -3.7570   -6.4570 ca        1 AU4     -0.213000
     15 C1          5.9430   -4.0690   -5.8400 ca        1 AU4      0.245600
     16 C2          6.4620   -3.1260   -4.9040 ca        1 AU4     -0.213000
     17 C3          5.7770   -1.9590   -4.6190 ca        1 AU4     -0.050500
     18 N16         6.6260   -5.2260   -6.1460 nh        1 AU4     -0.669000
     19 C17         7.8500   -5.5470   -5.4650 c3        1 AU4      0.196850
     20 C16         6.0520   -6.1890   -7.0450 c3        1 AU4      0.196850
     21 H141        0.0820    1.2900    1.4460 h1        1 AU4      0.051950
     22 H142       -0.4540    1.0480   -0.2810 h1        1 AU4      0.051950
     23 H143        0.8060    2.3110    0.1210 h1        1 AU4      0.051950
     24 H151        1.2460   -0.2640    2.2120 h1        1 AU4      0.051950
     25 H152        1.5120   -1.6300    1.0320 h1        1 AU4      0.051950
     26 H153        2.8990   -0.5320    1.4940 h1        1 AU4      0.051950
     27 H7          0.9020    1.7190   -2.0490 ha        1 AU4      0.152000
     28 H8          1.9300    1.3770   -4.2380 ha        1 AU4      0.132250
     29 H11         3.3030   -1.5730   -0.4580 ha        1 AU4      0.152000
     30 H10         4.3160   -1.8770   -2.6590 ha        1 AU4      0.132250
     31 H13         2.9580   -0.3040   -5.7190 hx        1 AU4      0.093700
     32 HN81        5.0230    0.7670   -6.2250 hn        1 AU4      0.445133
     33 HN82        5.5380    0.7410   -4.6440 hn        1 AU4      0.445133
     34 H5          3.0690   -2.3730   -6.6570 ha        1 AU4      0.132250
     35 H6          4.2410   -4.4550   -7.1770 ha        1 AU4      0.152000
     36 H2          7.4170   -3.3190   -4.3910 ha        1 AU4      0.152000
     37 H3          6.2020   -1.2690   -3.8720 ha        1 AU4      0.132250
     38 H171        7.6810   -5.6220   -4.3560 h1        1 AU4      0.051950
     39 H172        8.2530   -6.5270   -5.8330 h1        1 AU4      0.051950
     40 H173        8.6200   -4.7500   -5.6600 h1        1 AU4      0.051950
     41 H161        5.8920   -5.7240   -8.0560 h1        1 AU4      0.051950
     42 H162        5.0630   -6.5560   -6.6550 h1        1 AU4      0.051950
     43 H163        6.7390   -7.0680   -7.1630 h1        1 AU4      0.051950
     44 H83         4.2150    1.6590   -5.0580 hn        1 AU4      0.445133
@<TRIPOS>BOND
     1    1    2 1   
     2    1   21 1   
     3    1   22 1   
     4    1   23 1   
     5    2    3 1   
     6    2    4 1   
     7    3   24 1   
     8    3   25 1   
     9    3   26 1   
    10    4    5 ar  
    11    4    7 ar  
    12    5    6 ar  
    13    5   27 1   
    14    6    9 ar  
    15    6   28 1   
    16    7    8 ar  
    17    7   29 1   
    18    8    9 ar  
    19    8   30 1   
    20    9   10 1   
    21   10   11 1   
    22   10   12 1   
    23   10   31 1   
    24   11   32 1   
    25   11   33 1   
    26   11   44 1   
    27   12   13 ar  
    28   12   17 ar  
    29   13   14 ar  
    30   13   34 1   
    31   14   15 ar  
    32   14   35 1   
    33   15   16 ar  
    34   15   18 1   
    35   16   17 ar  
    36   16   36 1   
    37   17   37 1   
    38   18   19 1   
    39   18   20 1   
    40   19   38 1   
    41   19   39 1   
    42   19   40 1   
    43   20   41 1   
    44   20   42 1   
    45   20   43 1   
@<TRIPOS>SUBSTRUCTURE
     1 AU4         1 TEMP              0 ****  ****    0 ROOT
