@<TRIPOS>MOLECULE
AU4
   46    47     1     0     0
SMALL
bcc


@<TRIPOS>ATOM
      1 C14        -0.0560   -0.6540   -0.0930 c3        1 AU4      0.084100
      2 N15         1.2620   -0.0120    0.1880 n4        1 AU4     -0.561800
      3 C15         1.0780    1.3890    0.6710 c3        1 AU4      0.084100
      4 C12         2.1490   -0.0620   -0.9900 ca        1 AU4      0.010600
      5 C7          1.7840    0.5760   -2.1880 ca        1 AU4     -0.084500
      6 C8          2.6440    0.5300   -3.2860 ca        1 AU4     -0.085000
      7 C11         3.3720   -0.7560   -0.9120 ca        1 AU4     -0.084500
      8 C10         4.2170   -0.7960   -2.0210 ca        1 AU4     -0.085000
      9 C9          3.8660   -0.1510   -3.2110 ca        1 AU4     -0.132800
     10 C13         4.7580   -0.1570   -4.4270 c3        1 AU4      0.243100
     11 N8          6.0390    0.5970   -4.1470 n4        1 AU4     -0.845600
     12 C4          5.0440   -1.5290   -4.9840 ca        1 AU4     -0.132800
     13 C5          4.3670   -1.9160   -6.1480 ca        1 AU4     -0.085000
     14 C6          4.6060   -3.1590   -6.7350 ca        1 AU4     -0.084500
     15 C1          5.5450   -4.0330   -6.1580 ca        1 AU4      0.010600
     16 C2          6.2180   -3.6560   -4.9820 ca        1 AU4     -0.084500
     17 C3          5.9610   -2.4130   -4.4040 ca        1 AU4     -0.085000
     18 N16         5.8150   -5.3330   -6.7990 n4        1 AU4     -0.561800
     19 C17         7.2310   -5.4300   -7.2620 c3        1 AU4      0.084100
     20 C16         5.4710   -6.4720   -5.8970 c3        1 AU4      0.084100
     21 H141        0.1070   -1.7100   -0.4370 hx        1 AU4      0.117367
     22 H142       -0.6000   -0.0750   -0.8860 hx        1 AU4      0.117367
     23 H143       -0.6660   -0.6530    0.8540 hx        1 AU4      0.117367
     24 H151        2.0800    1.8400    0.9030 hx        1 AU4      0.117367
     25 H152        0.4470    1.3690    1.6030 hx        1 AU4      0.117367
     26 H153        0.5590    1.9980   -0.1170 hx        1 AU4      0.117367
     27 H7          0.8270    1.1230   -2.2830 ha        1 AU4      0.186500
     28 H8          2.3340    1.0420   -4.2160 ha        1 AU4      0.168250
     29 H11         3.6840   -1.2740    0.0140 ha        1 AU4      0.186500
     30 H10         5.1610   -1.3600   -1.9390 ha        1 AU4      0.168250
     31 H13         4.2400    0.4470   -5.2470 hx        1 AU4      0.131700
     32 HN81        6.6310    0.6020   -4.9870 hn        1 AU4      0.472800
     33 HN82        6.5570    0.1580   -3.3780 hn        1 AU4      0.472800
     34 H5          3.6310   -1.2430   -6.6260 ha        1 AU4      0.168250
     35 H6          4.0510   -3.4250   -7.6540 ha        1 AU4      0.186500
     36 H2          6.9550   -4.3270   -4.5030 ha        1 AU4      0.186500
     37 H3          6.5000   -2.1560   -3.4770 ha        1 AU4      0.168250
     38 H171        7.4550   -4.5800   -7.9620 hx        1 AU4      0.117367
     39 H172        7.9230   -5.3880   -6.3790 hx        1 AU4      0.117367
     40 H173        7.3700   -6.4090   -7.8000 hx        1 AU4      0.117367
     41 H161        5.6260   -7.4360   -6.4590 hx        1 AU4      0.117367
     42 H162        6.1380   -6.4570   -4.9950 hx        1 AU4      0.117367
     43 H163        4.3970   -6.3880   -5.5810 hx        1 AU4      0.117367
     44 H154        1.7160   -0.5480    0.9470 hn        1 AU4      0.468300
     45 H83         5.8210    1.5670   -3.8850 hn        1 AU4      0.472800
     46 H164        5.2080   -5.4030   -7.6350 hn        1 AU4      0.468300
@<TRIPOS>BOND
     1    1    2 1   
     2    1   21 1   
     3    1   22 1   
     4    1   23 1   
     5    2    3 1   
     6    2    4 1   
     7    2   44 1   
     8    3   24 1   
     9    3   25 1   
    10    3   26 1   
    11    4    5 ar  
    12    4    7 ar  
    13    5    6 ar  
    14    5   27 1   
    15    6    9 ar  
    16    6   28 1   
    17    7    8 ar  
    18    7   29 1   
    19    8    9 ar  
    20    8   30 1   
    21    9   10 1   
    22   10   11 1   
    23   10   12 1   
    24   10   31 1   
    25   11   32 1   
    26   11   33 1   
    27   11   45 1   
    28   12   13 ar  
    29   12   17 ar  
    30   13   14 ar  
    31   13   34 1   
    32   14   15 ar  
    33   14   35 1   
    34   15   16 ar  
    35   15   18 1   
    36   16   17 ar  
    37   16   36 1   
    38   17   37 1   
    39   18   19 1   
    40   18   20 1   
    41   18   46 1   
    42   19   38 1   
    43   19   39 1   
    44   19   40 1   
    45   20   41 1   
    46   20   42 1   
    47   20   43 1   
@<TRIPOS>SUBSTRUCTURE
     1 AU4         1 TEMP              0 ****  ****    0 ROOT
