@<TRIPOS>MOLECULE
AU5
   65    69     1     0     0
SMALL
bcc


@<TRIPOS>ATOM
      1 O          -0.3220    1.0960    0.0310 o         1 AU5     -0.607500
      2 C4          0.8680    0.7550    0.1170 c         1 AU5      0.777500
      3 N2          1.6090    0.6390    1.3540 n         1 AU5     -0.298000
      4 C10         0.9430    0.2130    2.5490 c3        1 AU5      0.069300
      5 C2          2.8880    0.1480    1.0000 ca        1 AU5     -0.310000
      6 C3          4.0280   -0.1970    1.7260 ca        1 AU5      0.474200
      7 N           5.1680   -0.5710    1.1160 nb        1 AU5     -0.737000
      8 N3          1.7570    0.5250   -0.9890 n         1 AU5     -0.431300
      9 C5          1.3570    0.4140   -2.3700 c3        1 AU5      0.120700
     10 C9          0.6800    1.6850   -2.9320 c3        1 AU5     -0.096900
     11 C8         -0.1990    1.2100   -4.0790 c3        1 AU5     -0.076900
     12 C7         -0.4010   -0.2920   -3.9160 c3        1 AU5     -0.076900
     13 C6          0.3560   -0.7250   -2.6700 c3        1 AU5     -0.096900
     14 C1          2.9940    0.1010   -0.4600 ca        1 AU5      0.547200
     15 N1          4.1180   -0.2600   -1.1060 nb        1 AU5     -0.743000
     16 C           5.1830   -0.6070   -0.2680 ca        1 AU5      0.867900
     17 N4          6.3320   -1.1160   -0.9290 nu        1 AU5     -0.667300
     18 C11         7.6000   -1.0160   -0.3000 ca        1 AU5      0.047600
     19 C16         8.6330   -0.1890   -0.8370 ca        1 AU5      0.133100
     20 O1          8.2860    0.5510   -1.9520 os        1 AU5     -0.339900
     21 C17         9.3120    1.3510   -2.5300 c3        1 AU5      0.117700
     22 C15         9.9030   -0.1560   -0.2660 ca        1 AU5     -0.231000
     23 C14        10.1660   -0.9470    0.8690 ca        1 AU5      0.165100
     24 C13         9.1710   -1.7650    1.4100 ca        1 AU5     -0.235000
     25 C12         7.9060   -1.7950    0.8270 ca        1 AU5     -0.035000
     26 O2         11.4550   -0.8290    1.3420 os        1 AU5     -0.329900
     27 C18        11.7670   -1.4820    2.5840 c3        1 AU5      0.142100
     28 C22        12.9690   -0.7250    3.1440 c3        1 AU5     -0.094400
     29 C21        13.4870   -1.4190    4.4000 c3        1 AU5      0.171300
     30 N5         13.7910   -2.8290    4.1980 n3        1 AU5     -0.733600
     31 C23        14.3050   -3.4580    5.3940 c3        1 AU5      0.158100
     32 C20        12.6830   -3.5730    3.6140 c3        1 AU5      0.171300
     33 C19        12.1370   -2.9390    2.3370 c3        1 AU5     -0.094400
     34 H101       -0.0640    0.7080    2.5880 h1        1 AU5      0.054700
     35 H102        1.5590    0.5390    3.4290 h1        1 AU5      0.054700
     36 H103        0.8070   -0.9020    2.5930 h1        1 AU5      0.054700
     37 H3          4.0540   -0.1780    2.8300 h4        1 AU5      0.033100
     38 H5          2.2990    0.2250   -2.9670 h1        1 AU5      0.085700
     39 H91C        1.4500    2.4160   -3.2770 hc        1 AU5      0.058700
     40 H92C        0.0550    2.1830   -2.1460 hc        1 AU5      0.058700
     41 H61C       -0.3550   -0.8590   -1.8150 hc        1 AU5      0.058700
     42 H62C        0.8950   -1.6900   -2.8290 hc        1 AU5      0.058700
     43 H81C       -1.1800    1.7460   -4.0640 hc        1 AU5      0.044700
     44 H82C        0.2880    1.4310   -5.0620 hc        1 AU5      0.044700
     45 H71C       -1.4870   -0.5390   -3.8170 hc        1 AU5      0.044700
     46 H72C       -0.0150   -0.8360   -4.8150 hc        1 AU5      0.044700
     47 H4          6.3690   -0.8720   -1.9040 hn        1 AU5      0.438800
     48 H12         7.1340   -2.4470    1.2680 ha        1 AU5      0.156000
     49 H15        10.7070    0.4740   -0.6700 ha        1 AU5      0.156000
     50 H171        8.8030    1.8300   -3.4050 h1        1 AU5      0.048033
     51 H172       10.1650    0.7140   -2.8680 h1        1 AU5      0.048033
     52 H173        9.6620    2.1250   -1.8050 h1        1 AU5      0.048033
     53 H13         9.3660   -2.3950    2.2890 ha        1 AU5      0.142000
     54 H18        10.9000   -1.4020    3.2940 h1        1 AU5      0.052700
     55 H221       13.7710   -0.6750    2.3630 hc        1 AU5      0.062950
     56 H222       12.6720    0.3230    3.4010 hc        1 AU5      0.062950
     57 H191       11.2390   -3.5160    2.0000 hc        1 AU5      0.062950
     58 H192       12.9020   -2.9890    1.5200 hc        1 AU5      0.062950
     59 H211       12.7300   -1.2740    5.2270 h1        1 AU5      0.032700
     60 H212       14.4410   -0.9110    4.7190 h1        1 AU5      0.032700
     61 H231       15.2110   -2.8940    5.7380 h1        1 AU5      0.033033
     62 H232       13.5610   -3.4880    6.2370 h1        1 AU5      0.033033
     63 H233       14.6070   -4.5100    5.1480 h1        1 AU5      0.033033
     64 H201       13.0630   -4.6050    3.3670 h1        1 AU5      0.032700
     65 H202       11.8310   -3.6900    4.3480 h1        1 AU5      0.032700
@<TRIPOS>BOND
     1    1    2 2   
     2    2    3 1   
     3    2    8 1   
     4    3    4 1   
     5    3    5 1   
     6    4   34 1   
     7    4   35 1   
     8    4   36 1   
     9    5    6 ar  
    10    5   14 ar  
    11    6    7 ar  
    12    6   37 1   
    13    7   16 ar  
    14    8    9 1   
    15    8   14 1   
    16    9   10 1   
    17    9   13 1   
    18    9   38 1   
    19   10   11 1   
    20   10   39 1   
    21   10   40 1   
    22   11   12 1   
    23   11   43 1   
    24   11   44 1   
    25   12   13 1   
    26   12   45 1   
    27   12   46 1   
    28   13   41 1   
    29   13   42 1   
    30   14   15 ar  
    31   15   16 ar  
    32   16   17 1   
    33   17   18 1   
    34   17   47 1   
    35   18   19 ar  
    36   18   25 ar  
    37   19   20 1   
    38   19   22 ar  
    39   20   21 1   
    40   21   50 1   
    41   21   51 1   
    42   21   52 1   
    43   22   23 ar  
    44   22   49 1   
    45   23   24 ar  
    46   23   26 1   
    47   24   25 ar  
    48   24   53 1   
    49   25   48 1   
    50   26   27 1   
    51   27   28 1   
    52   27   33 1   
    53   27   54 1   
    54   28   29 1   
    55   28   55 1   
    56   28   56 1   
    57   29   30 1   
    58   29   59 1   
    59   29   60 1   
    60   30   31 1   
    61   30   32 1   
    62   31   61 1   
    63   31   62 1   
    64   31   63 1   
    65   32   33 1   
    66   32   64 1   
    67   32   65 1   
    68   33   57 1   
    69   33   58 1   
@<TRIPOS>SUBSTRUCTURE
     1 AU5         1 TEMP              0 ****  ****    0 ROOT
