@<TRIPOS>MOLECULE
AU5
   65    69     1     0     0
SMALL
bcc


@<TRIPOS>ATOM
      1 O          -0.3200    1.0990    0.0200 o         1 AU5     -0.607500
      2 C4          0.8690    0.7580    0.1080 c         1 AU5      0.777500
      3 N2          1.6100    0.6470    1.3460 n         1 AU5     -0.297000
      4 C10         0.9430    0.2270    2.5420 c3        1 AU5      0.069300
      5 C2          2.8880    0.1530    0.9950 ca        1 AU5     -0.310000
      6 C3          4.0270   -0.1900    1.7230 ca        1 AU5      0.474200
      7 N           5.1670   -0.5680    1.1150 nb        1 AU5     -0.737000
      8 N3          1.7580    0.5220   -0.9970 n         1 AU5     -0.431300
      9 C5          1.3590    0.4050   -2.3770 c3        1 AU5      0.120700
     10 C9          0.6830    1.6740   -2.9450 c3        1 AU5     -0.096900
     11 C8         -0.1960    1.1940   -4.0900 c3        1 AU5     -0.076900
     12 C7         -0.3980   -0.3070   -3.9200 c3        1 AU5     -0.076900
     13 C6          0.3580   -0.7350   -2.6710 c3        1 AU5     -0.096900
     14 C1          2.9950    0.0990   -0.4640 ca        1 AU5      0.547200
     15 N1          4.1180   -0.2650   -1.1090 nb        1 AU5     -0.743000
     16 C           5.1840   -0.6090   -0.2680 ca        1 AU5      0.867900
     17 N4          6.3320   -1.1230   -0.9270 nh        1 AU5     -0.667300
     18 C11         7.6000   -1.0200   -0.2980 ca        1 AU5      0.047600
     19 C16         8.6340   -0.1960   -0.8380 ca        1 AU5      0.133100
     20 O1          8.2870    0.5400   -1.9560 os        1 AU5     -0.339900
     21 C17         9.3140    1.3360   -2.5370 c3        1 AU5      0.117700
     22 C15         9.9030   -0.1610   -0.2660 ca        1 AU5     -0.231000
     23 C14        10.1650   -0.9470    0.8720 ca        1 AU5      0.165100
     24 C13         9.1700   -1.7620    1.4160 ca        1 AU5     -0.235000
     25 C12         7.9050   -1.7950    0.8330 ca        1 AU5     -0.035000
     26 O2         11.4540   -0.8280    1.3450 os        1 AU5     -0.329900
     27 C18        11.7660   -1.4760    2.5900 c3        1 AU5      0.142100
     28 C22        12.9670   -0.7180    3.1470 c3        1 AU5     -0.094400
     29 C21        13.4850   -1.4070    4.4060 c3        1 AU5      0.171300
     30 N5         13.7890   -2.8180    4.2100 n3        1 AU5     -0.733600
     31 C23        14.3020   -3.4420    5.4080 c3        1 AU5      0.158100
     32 C20        12.6800   -3.5630    3.6280 c3        1 AU5      0.171300
     33 C19        12.1350   -2.9340    2.3490 c3        1 AU5     -0.094400
     34 H101        1.5580    0.5560    3.4210 h1        1 AU5      0.054700
     35 H102       -0.0640    0.7230    2.5790 h1        1 AU5      0.054700
     36 H103        0.8060   -0.8880    2.5920 h1        1 AU5      0.054700
     37 H3          4.0530   -0.1660    2.8270 h4        1 AU5      0.033100
     38 H5          2.3010    0.2130   -2.9720 h1        1 AU5      0.085700
     39 H91C        0.0580    2.1750   -2.1610 hc        1 AU5      0.058700
     40 H92C        1.4540    2.4030   -3.2930 hc        1 AU5      0.058700
     41 H61C        0.8960   -1.7010   -2.8260 hc        1 AU5      0.058700
     42 H62C       -0.3540   -0.8650   -1.8160 hc        1 AU5      0.058700
     43 H81C        0.2910    1.4110   -5.0740 hc        1 AU5      0.044700
     44 H82C       -1.1770    1.7310   -4.0780 hc        1 AU5      0.044700
     45 H71C       -0.0130   -0.8550   -4.8160 hc        1 AU5      0.044700
     46 H72C       -1.4850   -0.5530   -3.8210 hc        1 AU5      0.044700
     47 H4          6.3690   -0.8830   -1.9030 hn        1 AU5      0.438800
     48 H12         7.1320   -2.4440    1.2760 ha        1 AU5      0.156000
     49 H15        10.7070    0.4660   -0.6740 ha        1 AU5      0.156000
     50 H171       10.1670    0.6970   -2.8730 h1        1 AU5      0.048033
     51 H172        8.8050    1.8110   -3.4140 h1        1 AU5      0.048033
     52 H173        9.6640    2.1130   -1.8150 h1        1 AU5      0.048033
     53 H13         9.3640   -2.3890    2.2980 ha        1 AU5      0.142000
     54 H18        10.8980   -1.3920    3.3000 h1        1 AU5      0.052700
     55 H221       12.6710    0.3320    3.3990 hc        1 AU5      0.062950
     56 H222       13.7700   -0.6710    2.3660 hc        1 AU5      0.062950
     57 H191       11.2370   -3.5130    2.0140 hc        1 AU5      0.062950
     58 H192       12.9000   -2.9880    1.5320 hc        1 AU5      0.062950
     59 H211       14.4390   -0.8980    4.7230 h1        1 AU5      0.032700
     60 H212       12.7280   -1.2580    5.2320 h1        1 AU5      0.032700
     61 H231       14.6040   -4.4950    5.1660 h1        1 AU5      0.033033
     62 H232       15.2080   -2.8770    5.7500 h1        1 AU5      0.033033
     63 H233       13.5580   -3.4680    6.2510 h1        1 AU5      0.033033
     64 H201       11.8280   -3.6770    4.3630 h1        1 AU5      0.032700
     65 H202       13.0600   -4.5960    3.3860 h1        1 AU5      0.032700
@<TRIPOS>BOND
     1    1    2 2   
     2    2    3 1   
     3    2    8 1   
     4    3    4 1   
     5    3    5 1   
     6    4   34 1   
     7    4   35 1   
     8    4   36 1   
     9    5    6 ar  
    10    5   14 ar  
    11    6    7 ar  
    12    6   37 1   
    13    7   16 ar  
    14    8    9 1   
    15    8   14 1   
    16    9   10 1   
    17    9   13 1   
    18    9   38 1   
    19   10   11 1   
    20   10   39 1   
    21   10   40 1   
    22   11   12 1   
    23   11   43 1   
    24   11   44 1   
    25   12   13 1   
    26   12   45 1   
    27   12   46 1   
    28   13   41 1   
    29   13   42 1   
    30   14   15 ar  
    31   15   16 ar  
    32   16   17 1   
    33   17   18 1   
    34   17   47 1   
    35   18   19 ar  
    36   18   25 ar  
    37   19   20 1   
    38   19   22 ar  
    39   20   21 1   
    40   21   50 1   
    41   21   51 1   
    42   21   52 1   
    43   22   23 ar  
    44   22   49 1   
    45   23   24 ar  
    46   23   26 1   
    47   24   25 ar  
    48   24   53 1   
    49   25   48 1   
    50   26   27 1   
    51   27   28 1   
    52   27   33 1   
    53   27   54 1   
    54   28   29 1   
    55   28   55 1   
    56   28   56 1   
    57   29   30 1   
    58   29   59 1   
    59   29   60 1   
    60   30   31 1   
    61   30   32 1   
    62   31   61 1   
    63   31   62 1   
    64   31   63 1   
    65   32   33 1   
    66   32   64 1   
    67   32   65 1   
    68   33   57 1   
    69   33   58 1   
@<TRIPOS>SUBSTRUCTURE
     1 AU5         1 TEMP              0 ****  ****    0 ROOT
