@<TRIPOS>MOLECULE
AUB
   61    65     1     0     0
SMALL
bcc


@<TRIPOS>ATOM
      1 C22        -0.5090   -0.4460    0.4670 ca        1 AUB     -0.092500
      2 C24         0.2690   -0.9520    2.6960 ca        1 AUB     -0.092500
      3 C21         0.7010    0.1800    0.1760 ca        1 AUB     -0.185500
      4 C25         1.4900   -0.3400    2.4240 ca        1 AUB     -0.185500
      5 C23        -0.7340   -1.0190    1.7230 ca        1 AUB     -0.135600
      6 C20         1.6970    0.2260    1.1590 ca        1 AUB      0.063100
      7 C28        -2.0540   -1.7120    2.0240 c         1 AUB      0.908200
      8 C26         7.4420    1.9110   -3.7190 c         1 AUB      0.737100
      9 C14         5.8190   -0.1940   -1.1000 c3        1 AUB     -0.089400
     10 C12         4.4890    1.5100   -2.3740 c3        1 AUB     -0.089400
     11 C15         4.9880    0.0850    0.1320 c3        1 AUB     -0.091900
     12 C17         3.6520    1.7790   -1.1440 c3        1 AUB     -0.091900
     13 C6          9.8960    4.4810   -7.6890 c3        1 AUB     -0.071400
     14 C9         11.6900    3.1370   -6.6040 c3        1 AUB     -0.071400
     15 C4         10.6720    5.0620   -5.3940 c3        1 AUB     -0.071400
     16 C2          9.4280    2.1490   -6.9460 c3        1 AUB     -0.084067
     17 C10         8.4030    4.0890   -5.7310 c3        1 AUB     -0.084067
     18 C8         10.2130    2.7350   -4.6380 c3        1 AUB     -0.084067
     19 C1         10.4800    3.0820   -7.5290 c3        1 AUB     -0.058700
     20 C5          9.4660    5.0040   -6.3240 c3        1 AUB     -0.058700
     21 C3         11.2580    3.6630   -5.2400 c3        1 AUB     -0.058700
     22 C13         5.9090    1.0630   -1.9840 c3        1 AUB      0.081700
     23 C16         3.5830    0.5420   -0.2540 c3        1 AUB      0.143100
     24 C7          8.9660    2.6580   -5.5540 c3        1 AUB      0.121400
     25 N18         6.7710    0.8170   -3.1310 n         1 AUB     -0.535900
     26 N11         7.9390    1.7510   -5.0340 n         1 AUB     -0.539900
     27 O29        -2.9200   -1.7600    1.1050 o         1 AUB     -0.831300
     28 O27         7.5960    2.9830   -3.0840 o         1 AUB     -0.636100
     29 O30        -2.2140   -2.2070    3.1760 o         1 AUB     -0.831300
     30 O19         2.9020    0.8990    0.9570 os        1 AUB     -0.348900
     31 H1         -1.3150   -0.5040   -0.2830 ha        1 AUB      0.153500
     32 H2          0.0680   -1.4030    3.6820 ha        1 AUB      0.153500
     33 H3          0.8760    0.6360   -0.8070 ha        1 AUB      0.116500
     34 H4          2.2810   -0.2820    3.1830 ha        1 AUB      0.116500
     35 H5          6.8470   -0.5140   -0.7900 hc        1 AUB      0.042200
     36 H6          5.3600   -1.0360   -1.6810 hc        1 AUB      0.042200
     37 H7          4.5500    2.4440   -2.9930 hc        1 AUB      0.042200
     38 H8          3.9980    0.7170   -2.9970 hc        1 AUB      0.042200
     39 H9          5.4730    0.8780    0.7590 hc        1 AUB      0.055950
     40 H10         4.9150   -0.8410    0.7580 hc        1 AUB      0.055950
     41 H11         4.0850    2.6310   -0.5570 hc        1 AUB      0.055950
     42 H12         2.6140    2.0730   -1.4460 hc        1 AUB      0.055950
     43 H15        12.4730    3.8080   -7.0410 hc        1 AUB      0.040200
     44 H16        12.1340    2.1140   -6.4950 hc        1 AUB      0.040200
     45 H17        10.3610    5.4550   -4.3930 hc        1 AUB      0.040200
     46 H18        11.4450    5.7540   -5.8150 hc        1 AUB      0.040200
     47 H19         9.8600    1.1190   -6.8520 hc        1 AUB      0.054867
     48 H20         8.5500    2.0990   -7.6400 hc        1 AUB      0.054867
     49 H21         8.0750    4.4850   -4.7340 hc        1 AUB      0.054867
     50 H22         7.5110    4.0610   -6.4070 hc        1 AUB      0.054867
     51 H23         9.9050    3.1160   -3.6290 hc        1 AUB      0.054867
     52 H24        10.6510    1.7120   -4.5090 hc        1 AUB      0.054867
     53 H25        10.7960    2.6920   -8.5340 hc        1 AUB      0.047367
     54 H26         9.0340    6.0350   -6.4390 hc        1 AUB      0.047367
     55 H27        12.1480    3.7040   -4.5560 hc        1 AUB      0.047367
     56 H28         6.3840    1.8930   -1.3770 h1        1 AUB      0.093700
     57 H29         3.0470   -0.2880   -0.7910 h1        1 AUB      0.057700
     58 H30         6.4210    0.1180   -3.7490 hn        1 AUB      0.282500
     59 H31         8.0630    0.8110   -5.3410 hn        1 AUB      0.284500
     60 H13         9.0150    4.4490   -8.3800 hc        1 AUB      0.040200
     61 H14        10.6630    5.1630   -8.1360 hc        1 AUB      0.040200
@<TRIPOS>BOND
     1    1    3 ar  
     2    1    5 ar  
     3    1   31 1   
     4    2    4 ar  
     5    2    5 ar  
     6    2   32 1   
     7    3    6 ar  
     8    3   33 1   
     9    4    6 ar  
    10    4   34 1   
    11    5    7 1   
    12    6   30 1   
    13    7   27 1   
    14    7   29 1   
    15    8   25 1   
    16    8   26 1   
    17    8   28 2   
    18    9   11 1   
    19    9   22 1   
    20    9   35 1   
    21    9   36 1   
    22   10   12 1   
    23   10   22 1   
    24   10   37 1   
    25   10   38 1   
    26   11   23 1   
    27   11   39 1   
    28   11   40 1   
    29   12   23 1   
    30   12   41 1   
    31   12   42 1   
    32   13   19 1   
    33   13   20 1   
    34   13   60 1   
    35   13   61 1   
    36   14   19 1   
    37   14   21 1   
    38   14   43 1   
    39   14   44 1   
    40   15   20 1   
    41   15   21 1   
    42   15   45 1   
    43   15   46 1   
    44   16   19 1   
    45   16   24 1   
    46   16   47 1   
    47   16   48 1   
    48   17   20 1   
    49   17   24 1   
    50   17   49 1   
    51   17   50 1   
    52   18   21 1   
    53   18   24 1   
    54   18   51 1   
    55   18   52 1   
    56   19   53 1   
    57   20   54 1   
    58   21   55 1   
    59   22   25 1   
    60   22   56 1   
    61   23   30 1   
    62   23   57 1   
    63   24   26 1   
    64   25   58 1   
    65   26   59 1   
@<TRIPOS>SUBSTRUCTURE
     1 AUB         1 TEMP              0 ****  ****    0 ROOT
