@<TRIPOS>MOLECULE
AUI
   61    62     1     0     0
SMALL
bcc


@<TRIPOS>ATOM
      1 O13         0.0840    0.1380    0.4140 o         1 AUI     -0.580100
      2 C1          1.2720    0.1240    0.0460 c         1 AUI      0.593900
      3 C4          2.3750    0.0250    1.0160 ca        1 AUI     -0.205600
      4 C5          2.1030   -0.1060    2.3860 ca        1 AUI     -0.040000
      5 C6          3.1340   -0.1980    3.3090 ca        1 AUI     -0.180000
      6 C7          4.4650   -0.1590    2.8740 ca        1 AUI     -0.070000
      7 C8          4.7690   -0.0290    1.5290 ca        1 AUI     -0.201000
      8 C9          3.7210    0.0650    0.5760 ca        1 AUI      0.188600
      9 N10         4.0050    0.1980   -0.7780 na        1 AUI     -0.615400
     10 C3          2.9910    0.2590   -1.7250 cc        1 AUI      0.160800
     11 C11         3.4000    0.3990   -3.1590 c3        1 AUI     -0.073900
     12 C2          1.6670    0.2160   -1.3640 cd        1 AUI     -0.258400
     13 C12         0.5730    0.2790   -2.3730 c3        1 AUI      0.014000
     14 C14         0.2500   -1.0560   -2.9400 c2        1 AUI     -0.183200
     15 C15        -0.9010   -1.7190   -2.7470 c2        1 AUI     -0.096400
     16 C26        -2.0070   -1.2020   -1.9050 c3        1 AUI     -0.073900
     17 C16        -1.1380   -3.0420   -3.3980 c3        1 AUI     -0.042200
     18 C17        -0.9870   -4.1850   -2.4100 c3        1 AUI     -0.043200
     19 C18        -1.2650   -5.4980   -3.0370 c2        1 AUI     -0.180200
     20 C19        -1.3580   -6.6470   -2.3490 c2        1 AUI     -0.119400
     21 C27        -1.1980   -6.7220   -0.8780 c3        1 AUI     -0.066900
     22 C20        -1.6630   -7.9350   -3.0360 c3        1 AUI     -0.038200
     23 C21        -0.4420   -8.8650   -3.0790 c3        1 AUI      0.180300
     24 O28        -0.5300   -9.6960   -1.9230 oh        1 AUI     -0.602800
     25 C22        -0.4380   -9.6960   -4.3220 c2        1 AUI     -0.226200
     26 C23         0.0690   -9.2930   -5.4960 c2        1 AUI     -0.100400
     27 C24         0.0420  -10.1670   -6.6940 c3        1 AUI     -0.064900
     28 C25         0.6910   -7.9600   -5.6880 c3        1 AUI     -0.064900
     29 H1          1.0480   -0.1330    2.7070 ha        1 AUI      0.160000
     30 H2          2.9110   -0.3010    4.3810 ha        1 AUI      0.139000
     31 H3          5.2800   -0.2320    3.6100 ha        1 AUI      0.134000
     32 H4          5.8180    0.0000    1.2030 ha        1 AUI      0.133000
     33 H5          4.4960    0.2520   -3.3180 hc        1 AUI      0.060033
     34 H6          2.8520   -0.3550   -3.7760 hc        1 AUI      0.060033
     35 H7          3.1240    1.4220   -3.5200 hc        1 AUI      0.060033
     36 H9          0.8670    0.9650   -3.2150 hc        1 AUI      0.058200
     37 H10        -0.3360    0.7290   -1.8830 hc        1 AUI      0.058200
     38 H11         1.0430   -1.4990   -3.5650 ha        1 AUI      0.108000
     39 H12        -1.6160   -0.8360   -0.9200 hc        1 AUI      0.051700
     40 H13        -2.7700   -1.9940   -1.7100 hc        1 AUI      0.051700
     41 H14        -2.5140   -0.3460   -2.4200 hc        1 AUI      0.051700
     42 H15        -2.1740   -3.0570   -3.8310 hc        1 AUI      0.042700
     43 H16        -0.4210   -3.1920   -4.2500 hc        1 AUI      0.042700
     44 H17        -1.6820   -4.0230   -1.5410 hc        1 AUI      0.054200
     45 H18         0.0580   -4.1810   -1.9940 hc        1 AUI      0.054200
     46 H19        -1.3960   -5.4920   -4.1320 ha        1 AUI      0.117000
     47 H20        -2.1680   -6.4730   -0.3770 hc        1 AUI      0.048033
     48 H21        -0.8940   -7.7540   -0.5680 hc        1 AUI      0.048033
     49 H22        -0.4260   -5.9970   -0.5200 hc        1 AUI      0.048033
     50 H23        -2.4920   -8.4590   -2.4880 hc        1 AUI      0.061700
     51 H24        -2.0070   -7.7480   -4.0870 hc        1 AUI      0.061700
     52 H25         0.5080   -8.2580   -3.0180 h1        1 AUI      0.043700
     53 H26         0.2190  -10.3010   -1.9570 ho        1 AUI      0.399000
     54 H27        -0.8960  -10.6920   -4.2100 ha        1 AUI      0.133000
     55 H28        -0.3740  -11.1780   -6.4600 hc        1 AUI      0.044200
     56 H29         1.0770  -10.2950   -7.0980 hc        1 AUI      0.044200
     57 H30        -0.5890   -9.7020   -7.4930 hc        1 AUI      0.044200
     58 H31         0.8060   -7.7200   -6.7730 hc        1 AUI      0.044200
     59 H32         0.0690   -7.1600   -5.2120 hc        1 AUI      0.044200
     60 H33         1.7050   -7.9390   -5.2140 hc        1 AUI      0.044200
     61 H34         4.9530    0.2260   -1.0730 hn        1 AUI      0.447800
@<TRIPOS>BOND
     1    1    2 2   
     2    2    3 1   
     3    2   12 1   
     4    3    4 ar  
     5    3    8 ar  
     6    4    5 ar  
     7    4   29 1   
     8    5    6 ar  
     9    5   30 1   
    10    6    7 ar  
    11    6   31 1   
    12    7    8 ar  
    13    7   32 1   
    14    8    9 1   
    15    9   10 1   
    16    9   61 1   
    17   10   11 1   
    18   10   12 2   
    19   11   33 1   
    20   11   34 1   
    21   11   35 1   
    22   12   13 1   
    23   13   14 1   
    24   13   36 1   
    25   13   37 1   
    26   14   15 2   
    27   14   38 1   
    28   15   16 1   
    29   15   17 1   
    30   16   39 1   
    31   16   40 1   
    32   16   41 1   
    33   17   18 1   
    34   17   42 1   
    35   17   43 1   
    36   18   19 1   
    37   18   44 1   
    38   18   45 1   
    39   19   20 2   
    40   19   46 1   
    41   20   21 1   
    42   20   22 1   
    43   21   47 1   
    44   21   48 1   
    45   21   49 1   
    46   22   23 1   
    47   22   50 1   
    48   22   51 1   
    49   23   24 1   
    50   23   25 1   
    51   23   52 1   
    52   24   53 1   
    53   25   26 2   
    54   25   54 1   
    55   26   27 1   
    56   26   28 1   
    57   27   55 1   
    58   27   56 1   
    59   27   57 1   
    60   28   58 1   
    61   28   59 1   
    62   28   60 1   
@<TRIPOS>SUBSTRUCTURE
     1 AUI         1 TEMP              0 ****  ****    0 ROOT
