@<TRIPOS>MOLECULE
AUI
   61    62     1     0     0
SMALL
bcc


@<TRIPOS>ATOM
      1 O13         0.0900    0.1410    0.4170 o         1 AUI     -0.580100
      2 C1          1.2790    0.1240    0.0500 c         1 AUI      0.593900
      3 C4          2.3810    0.0240    1.0220 ca        1 AUI     -0.205600
      4 C5          2.1070   -0.1050    2.3920 ca        1 AUI     -0.040000
      5 C6          3.1360   -0.1980    3.3160 ca        1 AUI     -0.180000
      6 C7          4.4670   -0.1620    2.8820 ca        1 AUI     -0.070000
      7 C8          4.7730   -0.0350    1.5380 ca        1 AUI     -0.201000
      8 C9          3.7270    0.0600    0.5830 ca        1 AUI      0.188600
      9 N10         4.0130    0.1910   -0.7710 na        1 AUI     -0.615400
     10 C3          3.0010    0.2530   -1.7180 cc        1 AUI      0.160800
     11 C11         3.4110    0.3900   -3.1520 c3        1 AUI     -0.073900
     12 C2          1.6760    0.2130   -1.3590 cd        1 AUI     -0.258400
     13 C12         0.5830    0.2770   -2.3690 c3        1 AUI      0.014000
     14 C14         0.2580   -1.0570   -2.9360 c2        1 AUI     -0.183200
     15 C15        -0.8940   -1.7180   -2.7430 c2        1 AUI     -0.096400
     16 C26        -2.0000   -1.1980   -1.9020 c3        1 AUI     -0.073900
     17 C16        -1.1330   -3.0400   -3.3940 c3        1 AUI     -0.042200
     18 C17        -0.9820   -4.1830   -2.4060 c3        1 AUI     -0.043200
     19 C18        -1.2640   -5.4960   -3.0320 c2        1 AUI     -0.180200
     20 C19        -1.3510   -6.6460   -2.3450 c2        1 AUI     -0.119400
     21 C27        -1.1790   -6.7230   -0.8750 c3        1 AUI     -0.066900
     22 C20        -1.6610   -7.9340   -3.0300 c3        1 AUI     -0.038200
     23 C21        -0.4390   -8.8600   -3.0890 c3        1 AUI      0.180300
     24 O28        -0.5080   -9.6900   -1.9310 oh        1 AUI     -0.602800
     25 C22        -0.4490   -9.6920   -4.3310 c2        1 AUI     -0.226200
     26 C23         0.0400   -9.2900   -5.5130 c2        1 AUI     -0.100400
     27 C24        -0.0020  -10.1660   -6.7100 c3        1 AUI     -0.064900
     28 C25         0.6570   -7.9560   -5.7150 c3        1 AUI     -0.064900
     29 H1          1.0510   -0.1300    2.7110 ha        1 AUI      0.160000
     30 H2          2.9120   -0.2990    4.3880 ha        1 AUI      0.139000
     31 H3          5.2820   -0.2360    3.6200 ha        1 AUI      0.134000
     32 H4          5.8230   -0.0090    1.2140 ha        1 AUI      0.133000
     33 H5          4.5070    0.2410   -3.3100 hc        1 AUI      0.060033
     34 H6          2.8620   -0.3640   -3.7690 hc        1 AUI      0.060033
     35 H7          3.1380    1.4130   -3.5150 hc        1 AUI      0.060033
     36 H9         -0.3260    0.7300   -1.8810 hc        1 AUI      0.058200
     37 H10         0.8800    0.9630   -3.2120 hc        1 AUI      0.058200
     38 H11         1.0500   -1.5020   -3.5610 ha        1 AUI      0.108000
     39 H12        -2.7640   -1.9890   -1.7060 hc        1 AUI      0.051700
     40 H13        -1.6080   -0.8310   -0.9170 hc        1 AUI      0.051700
     41 H14        -2.5060   -0.3430   -2.4180 hc        1 AUI      0.051700
     42 H15        -2.1710   -3.0540   -3.8250 hc        1 AUI      0.042700
     43 H16        -0.4180   -3.1920   -4.2460 hc        1 AUI      0.042700
     44 H17         0.0640   -4.1820   -1.9920 hc        1 AUI      0.054200
     45 H18        -1.6750   -4.0200   -1.5350 hc        1 AUI      0.054200
     46 H19        -1.4040   -5.4890   -4.1260 ha        1 AUI      0.117000
     47 H20        -2.1470   -6.4800   -0.3660 hc        1 AUI      0.048033
     48 H21        -0.8670   -7.7540   -0.5690 hc        1 AUI      0.048033
     49 H22        -0.4080   -5.9940   -0.5210 hc        1 AUI      0.048033
     50 H23        -2.0170   -7.7460   -4.0770 hc        1 AUI      0.061700
     51 H24        -2.4820   -8.4610   -2.4740 hc        1 AUI      0.061700
     52 H25         0.5110   -8.2510   -3.0420 h1        1 AUI      0.043700
     53 H26         0.2430  -10.2940   -1.9750 ho        1 AUI      0.399000
     54 H27        -0.9040  -10.6900   -4.2120 ha        1 AUI      0.133000
     55 H28        -0.6450   -9.7030   -7.4990 hc        1 AUI      0.044200
     56 H29         1.0280  -10.2910   -7.1280 hc        1 AUI      0.044200
     57 H30        -0.4120  -11.1770   -6.4680 hc        1 AUI      0.044200
     58 H31         0.0400   -7.1560   -5.2310 hc        1 AUI      0.044200
     59 H32         1.6770   -7.9320   -5.2550 hc        1 AUI      0.044200
     60 H33         0.7560   -7.7170   -6.8020 hc        1 AUI      0.044200
     61 H34         4.9610    0.2160   -1.0640 hn        1 AUI      0.447800
@<TRIPOS>BOND
     1    1    2 2   
     2    2    3 1   
     3    2   12 1   
     4    3    4 ar  
     5    3    8 ar  
     6    4    5 ar  
     7    4   29 1   
     8    5    6 ar  
     9    5   30 1   
    10    6    7 ar  
    11    6   31 1   
    12    7    8 ar  
    13    7   32 1   
    14    8    9 1   
    15    9   10 1   
    16    9   61 1   
    17   10   11 1   
    18   10   12 2   
    19   11   33 1   
    20   11   34 1   
    21   11   35 1   
    22   12   13 1   
    23   13   14 1   
    24   13   36 1   
    25   13   37 1   
    26   14   15 2   
    27   14   38 1   
    28   15   16 1   
    29   15   17 1   
    30   16   39 1   
    31   16   40 1   
    32   16   41 1   
    33   17   18 1   
    34   17   42 1   
    35   17   43 1   
    36   18   19 1   
    37   18   44 1   
    38   18   45 1   
    39   19   20 2   
    40   19   46 1   
    41   20   21 1   
    42   20   22 1   
    43   21   47 1   
    44   21   48 1   
    45   21   49 1   
    46   22   23 1   
    47   22   50 1   
    48   22   51 1   
    49   23   24 1   
    50   23   25 1   
    51   23   52 1   
    52   24   53 1   
    53   25   26 2   
    54   25   54 1   
    55   26   27 1   
    56   26   28 1   
    57   27   55 1   
    58   27   56 1   
    59   27   57 1   
    60   28   58 1   
    61   28   59 1   
    62   28   60 1   
@<TRIPOS>SUBSTRUCTURE
     1 AUI         1 TEMP              0 ****  ****    0 ROOT
