@<TRIPOS>MOLECULE
AUI
   61    62     1     0     0
SMALL
bcc


@<TRIPOS>ATOM
      1 O13         3.7400   -0.7990   -1.8130 o         1 AUI     -0.581100
      2 C1          3.9050   -0.6160   -0.5930 c         1 AUI      0.593900
      3 C4          4.6680    0.5370   -0.0860 ca        1 AUI     -0.205600
      4 C5          5.1850    1.4900   -0.9770 ca        1 AUI     -0.041000
      5 C6          5.9050    2.5800   -0.5110 ca        1 AUI     -0.180000
      6 C7          6.1220    2.7350    0.8640 ca        1 AUI     -0.070000
      7 C8          5.6270    1.8130    1.7700 ca        1 AUI     -0.201000
      8 C9          4.8870    0.6940    1.3040 ca        1 AUI      0.188600
      9 N10         4.3840   -0.2450    2.1970 na        1 AUI     -0.615400
     10 C3          3.6320   -1.3250    1.7590 cc        1 AUI      0.160800
     11 C11         3.1310   -2.2790    2.7990 c3        1 AUI     -0.073900
     12 C2          3.3740   -1.5280    0.4260 cd        1 AUI     -0.259400
     13 C12         2.5650   -2.6840   -0.0540 c3        1 AUI      0.014000
     14 C14         1.1060   -2.4060   -0.0190 c2        1 AUI     -0.182200
     15 C15         0.3170   -2.2820   -1.0980 c2        1 AUI     -0.097400
     16 C26         0.8190   -2.3860   -2.4900 c3        1 AUI     -0.073900
     17 C16        -1.1480   -2.0400   -0.9470 c3        1 AUI     -0.043200
     18 C17        -1.5020   -0.5880   -1.2140 c3        1 AUI     -0.043200
     19 C18        -2.9600   -0.3460   -1.1120 c2        1 AUI     -0.174200
     20 C19        -3.5510    0.8270   -1.3870 c2        1 AUI     -0.119400
     21 C27        -2.8110    2.0310   -1.8350 c3        1 AUI     -0.067900
     22 C20        -5.0300    0.9860   -1.2760 c3        1 AUI     -0.070200
     23 C21        -5.4330    1.7950   -0.0340 c3        1 AUI      0.176300
     24 O28        -5.3480    3.1920   -0.2800 oh        1 AUI     -0.593800
     25 C22        -6.8090    1.4160    0.4110 c2        1 AUI     -0.216200
     26 C23        -7.0820    0.3760    1.2130 c2        1 AUI     -0.100400
     27 C24        -8.4710    0.0580    1.6260 c3        1 AUI     -0.063900
     28 C25        -6.0310   -0.5210    1.7520 c3        1 AUI     -0.063900
     29 H1          5.0030    1.3470   -2.0560 ha        1 AUI      0.160000
     30 H2          6.3060    3.3220   -1.2160 ha        1 AUI      0.139000
     31 H3          6.6940    3.6020    1.2290 ha        1 AUI      0.134000
     32 H4          5.8050    1.9500    2.8460 ha        1 AUI      0.133000
     33 H5          3.2740   -1.9040    3.8420 hc        1 AUI      0.060033
     34 H6          2.0390   -2.4630    2.6400 hc        1 AUI      0.060033
     35 H7          3.6750   -3.2520    2.6960 hc        1 AUI      0.060033
     36 H9          2.8930   -2.9380   -1.1010 hc        1 AUI      0.058200
     37 H10         2.7740   -3.5880    0.5850 hc        1 AUI      0.058200
     38 H11         0.6760   -2.3040    0.9910 ha        1 AUI      0.109000
     39 H12         1.0670   -3.4500   -2.7310 hc        1 AUI      0.051367
     40 H13         0.0520   -2.0320   -3.2220 hc        1 AUI      0.051367
     41 H14         1.7470   -1.7710   -2.6230 hc        1 AUI      0.051367
     42 H15        -1.7050   -2.6990   -1.6660 hc        1 AUI      0.042700
     43 H16        -1.4860   -2.3180    0.0870 hc        1 AUI      0.042700
     44 H17        -0.9580    0.0680   -0.4790 hc        1 AUI      0.055200
     45 H18        -1.1390   -0.2970   -2.2380 hc        1 AUI      0.055200
     46 H19        -3.5660   -1.2080   -0.7850 ha        1 AUI      0.117000
     47 H20        -2.8370    2.0990   -2.9510 hc        1 AUI      0.048033
     48 H21        -3.2850    2.9540   -1.4120 hc        1 AUI      0.048033
     49 H22        -1.7420    1.9990   -1.5100 hc        1 AUI      0.048033
     50 H23        -5.4140    1.5070   -2.1930 hc        1 AUI      0.051700
     51 H24        -5.5250   -0.0200   -1.2260 hc        1 AUI      0.051700
     52 H25        -4.6880    1.6290    0.7970 h1        1 AUI      0.086700
     53 H26        -5.9640    3.4020   -0.9910 ho        1 AUI      0.394000
     54 H27        -7.6150    2.0740    0.0470 ha        1 AUI      0.124000
     55 H28        -8.7630   -0.9510    1.2400 hc        1 AUI      0.043867
     56 H29        -8.5430    0.0390    2.7420 hc        1 AUI      0.043867
     57 H30        -9.2010    0.8090    1.2380 hc        1 AUI      0.043867
     58 H31        -5.4650    0.0010    2.5650 hc        1 AUI      0.043867
     59 H32        -6.4760   -1.4540    2.1770 hc        1 AUI      0.043867
     60 H33        -5.3030   -0.8080    0.9520 hc        1 AUI      0.043867
     61 H34         4.5440   -0.1210    3.1690 hn        1 AUI      0.447800
@<TRIPOS>BOND
     1    1    2 2   
     2    2    3 1   
     3    2   12 1   
     4    3    4 ar  
     5    3    8 ar  
     6    4    5 ar  
     7    4   29 1   
     8    5    6 ar  
     9    5   30 1   
    10    6    7 ar  
    11    6   31 1   
    12    7    8 ar  
    13    7   32 1   
    14    8    9 1   
    15    9   10 1   
    16    9   61 1   
    17   10   11 1   
    18   10   12 2   
    19   11   33 1   
    20   11   34 1   
    21   11   35 1   
    22   12   13 1   
    23   13   14 1   
    24   13   36 1   
    25   13   37 1   
    26   14   15 2   
    27   14   38 1   
    28   15   16 1   
    29   15   17 1   
    30   16   39 1   
    31   16   40 1   
    32   16   41 1   
    33   17   18 1   
    34   17   42 1   
    35   17   43 1   
    36   18   19 1   
    37   18   44 1   
    38   18   45 1   
    39   19   20 2   
    40   19   46 1   
    41   20   21 1   
    42   20   22 1   
    43   21   47 1   
    44   21   48 1   
    45   21   49 1   
    46   22   23 1   
    47   22   50 1   
    48   22   51 1   
    49   23   24 1   
    50   23   25 1   
    51   23   52 1   
    52   24   53 1   
    53   25   26 2   
    54   25   54 1   
    55   26   27 1   
    56   26   28 1   
    57   27   55 1   
    58   27   56 1   
    59   27   57 1   
    60   28   58 1   
    61   28   59 1   
    62   28   60 1   
@<TRIPOS>SUBSTRUCTURE
     1 AUI         1 TEMP              0 ****  ****    0 ROOT
