@<TRIPOS>MOLECULE
AUI
   61    53     1     0     0
SMALL
bcc


@<TRIPOS>ATOM
      1 O13         0.0970    4.3990   -3.0980 o         1 AUI     -0.335000
      2 C1         -0.4450    4.4160   -2.0120 c1        1 AUI      0.312000
      3 C4         -1.8240    5.0120   -1.8670 c2        1 AUI     -0.184000
      4 C5         -2.5350    5.4160   -3.0000 c2        1 AUI     -0.041000
      5 C6         -3.8120    5.9630   -2.8660 c1        1 AUI     -0.179000
      6 C7         -4.3850    6.1070   -1.5910 c1        1 AUI     -0.135000
      7 C8         -3.6770    5.7040   -0.4570 c1        1 AUI     -0.135000
      8 C9         -2.3980    5.1570   -0.5900 c1        1 AUI      0.105000
      9 N10        -1.6390    4.7180    0.6320 n2        1 AUI     -0.247000
     10 C3         -0.3200    4.1470    0.5000 c1        1 AUI      0.088000
     11 C11         0.4930    3.8310    1.7350 c2        1 AUI     -0.190667
     12 C2          0.2710    3.9620   -0.8380 c1        1 AUI     -0.247000
     13 C12         1.6470    3.3470   -0.9810 c2        1 AUI     -0.079000
     14 C14         1.5110    1.8790   -1.3190 c2        1 AUI     -0.161000
     15 C15         2.6100    1.1100   -1.4370 c1        1 AUI     -0.124000
     16 C26         3.9820    1.7230   -1.2690 c3        1 AUI     -0.181000
     17 C16         2.4730   -0.3580   -1.7760 c2        1 AUI     -0.122000
     18 C17         2.7130   -1.1870   -0.5330 c3        1 AUI     -0.128000
     19 C18         1.9060   -2.4630   -0.6140 c2        1 AUI     -0.169000
     20 C19         1.9070   -3.3290    0.4200 c1        1 AUI     -0.125000
     21 C27         2.7160   -3.0230    1.6610 c2        1 AUI     -0.190667
     22 C20         1.1000   -4.6030    0.3380 c3        1 AUI     -0.164000
     23 C21        -0.1920   -4.4310    1.1040 c3        1 AUI      0.069000
     24 O28        -1.1480   -3.8080    0.2780 oh        1 AUI     -0.326000
     25 C22        -0.7060   -5.7850    1.5350 c2        1 AUI     -0.182000
     26 C23        -1.9600   -5.9110    2.0060 c1        1 AUI     -0.076000
     27 C24        -2.8570   -4.6940    2.1040 c2        1 AUI     -0.190667
     28 C25        -2.4740   -7.2660    2.4370 c3        1 AUI     -0.186000
     29 H1         -2.1380    5.3160   -3.8870 ha        1 AUI      0.161000
     30 H2         -4.3080    6.2450   -3.6580 ha        1 AUI      0.139000
     31 H3         -5.2780    6.4900   -1.4980 ha        1 AUI      0.133500
     32 H4         -4.0760    5.8050    0.4290 ha        1 AUI      0.133500
     33 H5         -0.0440    4.0120    2.5350 ha        1 AUI      0.089778
     34 H6          1.2980    4.3900    1.7480 ha        1 AUI      0.089778
     35 H7          0.7520    2.8860    1.7220 ha        1 AUI      0.089778
     36 H9          2.1360    3.4430   -0.1390 ha        1 AUI      0.105500
     37 H10         2.1360    3.8020   -1.6960 ha        1 AUI      0.105500
     38 H11         0.6260    1.4830   -1.4280 ha        1 AUI      0.127000
     39 H12         4.1370    2.3770   -1.9810 hc        1 AUI      0.080667
     40 H13         4.0360    2.1690   -0.3980 hc        1 AUI      0.080667
     41 H14         4.6620    1.0190   -1.3180 hc        1 AUI      0.080667
     42 H15         1.5720   -0.5330   -2.1150 ha        1 AUI      0.088000
     43 H16         3.1310   -0.5980   -2.4590 ha        1 AUI      0.088000
     44 H17         3.6630   -1.4070   -0.4660 hc        1 AUI      0.089000
     45 H18         2.4390   -0.6780    0.2560 hc        1 AUI      0.089000
     46 H19         1.3840   -2.6600   -1.4150 ha        1 AUI      0.127000
     47 H20         2.4650   -2.1410    2.0060 ha        1 AUI      0.089778
     48 H21         3.6700   -3.0280    1.4390 ha        1 AUI      0.089778
     49 H22         2.5360   -3.7040    2.3440 ha        1 AUI      0.089778
     50 H23         1.6140   -5.3390    0.7270 hc        1 AUI      0.099000
     51 H24         0.9000   -4.8030   -0.5970 hc        1 AUI      0.099000
     52 H25        -0.0320   -3.8770    1.8930 h1        1 AUI      0.075000
     53 H26        -1.2860   -2.9760    0.5600 ho        1 AUI      0.201000
     54 H27        -0.1270   -6.5690    1.4710 ha        1 AUI      0.125000
     55 H28        -2.3630   -3.9560    2.5170 ha        1 AUI      0.089778
     56 H29        -3.1490   -4.4300    1.2060 ha        1 AUI      0.089778
     57 H30        -3.6410   -4.9100    2.6520 ha        1 AUI      0.089778
     58 H31        -2.0070   -7.5490    3.2510 hc        1 AUI      0.082000
     59 H32        -3.4350   -7.2090    2.6150 hc        1 AUI      0.082000
     60 H33        -2.3120   -7.9190    1.7240 hc        1 AUI      0.082000
     61 H34        -2.0140    4.8120    1.4580 hn        1 AUI      0.243000
@<TRIPOS>BOND
     1    1    2 1   
     2    2    3 1   
     3    3    4 1   
     4    3    8 1   
     5    4    5 1   
     6    4   29 1   
     7    5   30 1   
     8    6    7 1   
     9    6   31 1   
    10    7   32 1   
    11    9   10 1   
    12    9   61 1   
    13   10   12 1   
    14   11   33 1   
    15   11   34 1   
    16   11   35 1   
    17   13   14 1   
    18   13   36 1   
    19   13   37 1   
    20   14   15 1   
    21   14   38 1   
    22   15   16 1   
    23   16   39 1   
    24   16   40 1   
    25   16   41 1   
    26   17   18 1   
    27   17   42 1   
    28   17   43 1   
    29   18   19 1   
    30   18   44 1   
    31   18   45 1   
    32   19   20 1   
    33   19   46 1   
    34   20   22 1   
    35   21   47 1   
    36   21   48 1   
    37   21   49 1   
    38   22   23 1   
    39   22   50 1   
    40   22   51 1   
    41   23   24 1   
    42   23   25 1   
    43   23   52 1   
    44   24   53 1   
    45   25   26 1   
    46   25   54 1   
    47   26   28 1   
    48   27   55 1   
    49   27   56 1   
    50   27   57 1   
    51   28   58 1   
    52   28   59 1   
    53   28   60 1   
@<TRIPOS>SUBSTRUCTURE
     1 AUI         1 TEMP              0 ****  ****    0 ROOT
