@<TRIPOS>MOLECULE
AUI
   61    62     1     0     0
SMALL
bcc


@<TRIPOS>ATOM
      1 O13         0.1090    0.1400    0.4130 o         1 AUI     -0.580100
      2 C1          1.2960    0.1210    0.0400 c         1 AUI      0.593900
      3 C4          2.4020    0.0190    1.0050 ca        1 AUI     -0.205600
      4 C5          2.1360   -0.1110    2.3770 ca        1 AUI     -0.040000
      5 C6          3.1700   -0.2060    3.2950 ca        1 AUI     -0.180000
      6 C7          4.4990   -0.1720    2.8540 ca        1 AUI     -0.070000
      7 C8          4.7980   -0.0440    1.5080 ca        1 AUI     -0.201000
      8 C9          3.7470    0.0530    0.5590 ca        1 AUI      0.188600
      9 N10         4.0250    0.1850   -0.7960 na        1 AUI     -0.615400
     10 C3          3.0080    0.2500   -1.7380 cc        1 AUI      0.160800
     11 C11         3.4110    0.3890   -3.1740 c3        1 AUI     -0.073900
     12 C2          1.6850    0.2120   -1.3720 cd        1 AUI     -0.258400
     13 C12         0.5870    0.2790   -2.3760 c3        1 AUI      0.014000
     14 C14         0.2560   -1.0550   -2.9420 c2        1 AUI     -0.183200
     15 C15        -0.8960   -1.7140   -2.7440 c2        1 AUI     -0.096400
     16 C26        -1.9970   -1.1910   -1.8980 c3        1 AUI     -0.073900
     17 C16        -1.1410   -3.0350   -3.3940 c3        1 AUI     -0.042200
     18 C17        -0.9920   -4.1780   -2.4050 c3        1 AUI     -0.043200
     19 C18        -1.2760   -5.4910   -3.0310 c2        1 AUI     -0.180200
     20 C19        -1.3740   -6.6390   -2.3420 c2        1 AUI     -0.119400
     21 C27        -1.2120   -6.7130   -0.8710 c3        1 AUI     -0.066900
     22 C20        -1.6850   -7.9270   -3.0260 c3        1 AUI     -0.038200
     23 C21        -0.4690   -8.8620   -3.0690 c3        1 AUI      0.180300
     24 O28        -0.5610   -9.6930   -1.9130 oh        1 AUI     -0.602800
     25 C22        -0.4670   -9.6930   -4.3120 c2        1 AUI     -0.226200
     26 C23         0.0420   -9.2920   -5.4860 c2        1 AUI     -0.100400
     27 C24         0.0120  -10.1660   -6.6840 c3        1 AUI     -0.064900
     28 C25         0.6700   -7.9620   -5.6770 c3        1 AUI     -0.064900
     29 H1          1.0810   -0.1340    2.7010 ha        1 AUI      0.160000
     30 H2          2.9510   -0.3090    4.3680 ha        1 AUI      0.139000
     31 H3          5.3170   -0.2480    3.5870 ha        1 AUI      0.134000
     32 H4          5.8460   -0.0190    1.1780 ha        1 AUI      0.133000
     33 H5          3.1380    1.4130   -3.5340 hc        1 AUI      0.060033
     34 H6          4.5060    0.2370   -3.3380 hc        1 AUI      0.060033
     35 H7          2.8570   -0.3640   -3.7890 hc        1 AUI      0.060033
     36 H9         -0.3190    0.7330   -1.8830 hc        1 AUI      0.058200
     37 H10         0.8800    0.9640   -3.2200 hc        1 AUI      0.058200
     38 H11         1.0450   -1.5020   -3.5700 ha        1 AUI      0.108000
     39 H12        -2.7630   -1.9800   -1.7010 hc        1 AUI      0.051700
     40 H13        -1.6010   -0.8270   -0.9140 hc        1 AUI      0.051700
     41 H14        -2.5020   -0.3340   -2.4110 hc        1 AUI      0.051700
     42 H15        -0.4270   -3.1900   -4.2470 hc        1 AUI      0.042700
     43 H16        -2.1790   -3.0460   -3.8230 hc        1 AUI      0.042700
     44 H17         0.0540   -4.1790   -1.9920 hc        1 AUI      0.054200
     45 H18        -1.6840   -4.0140   -1.5340 hc        1 AUI      0.054200
     46 H19        -1.4090   -5.4850   -4.1250 ha        1 AUI      0.117000
     47 H20        -0.9130   -7.7460   -0.5600 hc        1 AUI      0.048033
     48 H21        -0.4340   -5.9920   -0.5150 hc        1 AUI      0.048033
     49 H22        -2.1790   -6.4580   -0.3690 hc        1 AUI      0.048033
     50 H23        -2.0280   -7.7390   -4.0780 hc        1 AUI      0.061700
     51 H24        -2.5160   -8.4460   -2.4780 hc        1 AUI      0.061700
     52 H25         0.4840   -8.2600   -3.0070 h1        1 AUI      0.043700
     53 H26         0.1850  -10.3020   -1.9470 ho        1 AUI      0.399000
     54 H27        -0.9290  -10.6870   -4.2010 ha        1 AUI      0.133000
     55 H28        -0.4080  -11.1750   -6.4500 hc        1 AUI      0.044200
     56 H29         1.0470  -10.2980   -7.0880 hc        1 AUI      0.044200
     57 H30        -0.6170   -9.6980   -7.4830 hc        1 AUI      0.044200
     58 H31         0.0510   -7.1590   -5.2010 hc        1 AUI      0.044200
     59 H32         1.6840   -7.9450   -5.2030 hc        1 AUI      0.044200
     60 H33         0.7860   -7.7220   -6.7630 hc        1 AUI      0.044200
     61 H34         4.9720    0.2090   -1.0950 hn        1 AUI      0.447800
@<TRIPOS>BOND
     1    1    2 2   
     2    2    3 1   
     3    2   12 1   
     4    3    4 ar  
     5    3    8 ar  
     6    4    5 ar  
     7    4   29 1   
     8    5    6 ar  
     9    5   30 1   
    10    6    7 ar  
    11    6   31 1   
    12    7    8 ar  
    13    7   32 1   
    14    8    9 1   
    15    9   10 1   
    16    9   61 1   
    17   10   11 1   
    18   10   12 2   
    19   11   33 1   
    20   11   34 1   
    21   11   35 1   
    22   12   13 1   
    23   13   14 1   
    24   13   36 1   
    25   13   37 1   
    26   14   15 2   
    27   14   38 1   
    28   15   16 1   
    29   15   17 1   
    30   16   39 1   
    31   16   40 1   
    32   16   41 1   
    33   17   18 1   
    34   17   42 1   
    35   17   43 1   
    36   18   19 1   
    37   18   44 1   
    38   18   45 1   
    39   19   20 2   
    40   19   46 1   
    41   20   21 1   
    42   20   22 1   
    43   21   47 1   
    44   21   48 1   
    45   21   49 1   
    46   22   23 1   
    47   22   50 1   
    48   22   51 1   
    49   23   24 1   
    50   23   25 1   
    51   23   52 1   
    52   24   53 1   
    53   25   26 2   
    54   25   54 1   
    55   26   27 1   
    56   26   28 1   
    57   27   55 1   
    58   27   56 1   
    59   27   57 1   
    60   28   58 1   
    61   28   59 1   
    62   28   60 1   
@<TRIPOS>SUBSTRUCTURE
     1 AUI         1 TEMP              0 ****  ****    0 ROOT
