@<TRIPOS>MOLECULE
AUK
   61    55     1     0     0
SMALL
bcc


@<TRIPOS>ATOM
      1 O27         2.4030   -1.7650   -4.2330 o         1 AUK     -0.313000
      2 C7          2.7830   -0.6160   -4.3260 c1        1 AUK      0.310000
      3 C8          2.2490    0.3980   -3.4390 c1        1 AUK     -0.215000
      4 C9          2.6520    1.8070   -3.6080 c1        1 AUK      0.055000
      5 C28         2.0400    2.8780   -2.7330 c2        1 AUK     -0.183750
      6 N10         3.5760    2.1720   -4.6560 n3        1 AUK     -0.060000
      7 O26         3.9640    3.4760   -4.8010 oh        1 AUK     -0.227000
      8 C3          4.1300    1.1180   -5.5760 c2        1 AUK      0.057000
      9 C4          5.0190    1.4770   -6.5940 c2        1 AUK     -0.157000
     10 C5          5.5280    0.5030   -7.4530 c1        1 AUK     -0.086000
     11 C6          5.1480   -0.8400   -7.2960 c1        1 AUK     -0.108000
     12 C1          4.2600   -1.2020   -6.2810 c1        1 AUK     -0.108000
     13 C2          3.7490   -0.2270   -5.4200 c1        1 AUK     -0.165000
     14 C11         1.3720   -0.0030   -2.2700 c3        1 AUK     -0.086000
     15 C12         2.1500   -0.9140   -1.3440 c2        1 AUK     -0.159000
     16 C13         1.5390   -1.4740   -0.2790 c1        1 AUK     -0.121000
     17 C23         2.3170   -2.3850    0.6460 c2        1 AUK     -0.183750
     18 C14         0.0640   -1.2330   -0.0390 c3        1 AUK     -0.126000
     19 C15        -0.1410   -0.7080    1.3710 c3        1 AUK     -0.125000
     20 C16        -1.4560   -1.2290    1.9190 c2        1 AUK     -0.171000
     21 C17        -1.8660   -0.8620    3.1530 c1        1 AUK     -0.115000
     22 C24        -1.0150    0.0690    3.9860 c2        1 AUK     -0.183750
     23 C18        -3.1810   -1.3830    3.7010 c3        1 AUK     -0.122000
     24 C19        -4.1080   -0.2190    3.9840 c3        1 AUK     -0.125000
     25 C20        -4.6810   -0.3560    5.3810 c2        1 AUK     -0.174000
     26 C21        -5.7990    0.3200    5.7220 c1        1 AUK     -0.115000
     27 C22        -6.4810    1.2150    4.7100 c2        1 AUK     -0.183750
     28 C25        -6.3710    0.1820    7.1180 c3        1 AUK     -0.179000
     29 H28         1.9290    3.7010   -3.2540 ha        1 AUK      0.086167
     30 H28A        2.6300    3.0520   -1.9690 ha        1 AUK      0.086167
     31 H28B        1.1670    2.5760   -2.4100 ha        1 AUK      0.086167
     32 HO26        4.7010    3.6210   -4.3240 ho        1 AUK      0.225000
     33 H4          5.2840    2.4120   -6.7030 ha        1 AUK      0.145000
     34 H5          6.1490    0.7550   -8.1630 ha        1 AUK      0.137000
     35 H6          5.5040   -1.5210   -7.8970 ha        1 AUK      0.150500
     36 H1          3.9970   -2.1350   -6.1730 ha        1 AUK      0.150500
     37 H11         0.5820   -0.4740   -2.6020 hc        1 AUK      0.108000
     38 H11A        1.0930    0.7970   -1.7820 hc        1 AUK      0.108000
     39 H12         3.0860   -1.1160   -1.5320 ha        1 AUK      0.129000
     40 H23         1.7270   -3.0940    0.9790 ha        1 AUK      0.086167
     41 H23A        2.6620   -1.8660    1.4020 ha        1 AUK      0.086167
     42 H23B        3.0660   -2.7860    0.1570 ha        1 AUK      0.086167
     43 H14        -0.4260   -2.0730   -0.1480 hc        1 AUK      0.088500
     44 H14A       -0.2680   -0.5760   -0.6830 hc        1 AUK      0.088500
     45 H15         0.5940   -1.0110    1.9410 hc        1 AUK      0.086000
     46 H15A       -0.1590    0.2700    1.3550 hc        1 AUK      0.086000
     47 H16        -2.0050   -1.8300    1.3810 ha        1 AUK      0.125000
     48 H24        -0.9270    0.9290    3.5270 ha        1 AUK      0.086167
     49 H24A       -1.4400    0.2060    4.8590 ha        1 AUK      0.086167
     50 H24B       -0.1260   -0.3270    4.1130 ha        1 AUK      0.086167
     51 H18        -3.5960   -1.9780    3.0440 hc        1 AUK      0.086000
     52 H18A       -3.0160   -1.8770    4.5290 hc        1 AUK      0.086000
     53 H19        -3.6080    0.6190    3.9180 hc        1 AUK      0.089000
     54 H19A       -4.8370   -0.2160    3.3310 hc        1 AUK      0.089000
     55 H20        -4.2410   -0.9330    6.0340 ha        1 AUK      0.122000
     56 H22        -5.8810    1.9520    4.4700 ha        1 AUK      0.086167
     57 H22A       -7.3050    1.5760    5.0970 ha        1 AUK      0.086167
     58 H22B       -6.6970    0.6950    3.9080 ha        1 AUK      0.086167
     59 H25        -5.9350   -0.5650    7.5780 hc        1 AUK      0.079667
     60 H25A       -7.3360    0.0120    7.0600 hc        1 AUK      0.079667
     61 H25B       -6.2150    1.0110    7.6180 hc        1 AUK      0.079667
@<TRIPOS>BOND
     1    1    2 1   
     2    2   13 1   
     3    3    4 1   
     4    3   14 1   
     5    4    6 1   
     6    5   29 1   
     7    5   30 1   
     8    5   31 1   
     9    6    7 1   
    10    6    8 1   
    11    7   32 1   
    12    8    9 1   
    13    8   13 1   
    14    9   10 1   
    15    9   33 1   
    16   10   34 1   
    17   11   12 1   
    18   11   35 1   
    19   12   36 1   
    20   14   15 1   
    21   14   37 1   
    22   14   38 1   
    23   15   16 1   
    24   15   39 1   
    25   16   18 1   
    26   17   40 1   
    27   17   41 1   
    28   17   42 1   
    29   18   19 1   
    30   18   43 1   
    31   18   44 1   
    32   19   20 1   
    33   19   45 1   
    34   19   46 1   
    35   20   21 1   
    36   20   47 1   
    37   21   23 1   
    38   22   48 1   
    39   22   49 1   
    40   22   50 1   
    41   23   24 1   
    42   23   51 1   
    43   23   52 1   
    44   24   25 1   
    45   24   53 1   
    46   24   54 1   
    47   25   26 1   
    48   25   55 1   
    49   26   28 1   
    50   27   56 1   
    51   27   57 1   
    52   27   58 1   
    53   28   59 1   
    54   28   60 1   
    55   28   61 1   
@<TRIPOS>SUBSTRUCTURE
     1 AUK         1 TEMP              0 ****  ****    0 ROOT
