@<TRIPOS>MOLECULE
AUK
   61    62     1     0     0
SMALL
bcc


@<TRIPOS>ATOM
      1 O27         0.2450   -0.2480   -0.6250 o         1 AUK     -0.555100
      2 C7          1.4020   -0.1000   -0.2020 c         1 AUK      0.592900
      3 C8          1.7850   -0.3780    1.1930 cc        1 AUK     -0.225400
      4 C9          3.0940   -0.3980    1.5770 cd        1 AUK      0.122800
      5 C28         3.4790   -0.6560    2.9980 c3        1 AUK     -0.070900
      6 N10         4.1440   -0.3200    0.6060 na        1 AUK     -0.273300
      7 O26         5.3230    0.0530    1.1190 oh        1 AUK     -0.379300
      8 C3          3.8300    0.3520   -0.6200 ca        1 AUK      0.136600
      9 C4          4.8500    0.8730   -1.4460 ca        1 AUK     -0.156000
     10 C5          4.5340    1.3910   -2.6950 ca        1 AUK     -0.087000
     11 C6          3.2120    1.4040   -3.1480 ca        1 AUK     -0.160000
     12 C1          2.1990    0.9060   -2.3370 ca        1 AUK     -0.056000
     13 C2          2.4910    0.3880   -1.0680 ca        1 AUK     -0.184600
     14 C11         0.6690   -0.6480    2.1460 c3        1 AUK      0.007000
     15 C12         0.2110    0.5840    2.8370 c2        1 AUK     -0.185200
     16 C13        -0.9980    1.1470    2.6890 c2        1 AUK     -0.095400
     17 C23        -2.0390    0.6120    1.7790 c3        1 AUK     -0.072900
     18 C14        -1.3710    2.3660    3.4670 c3        1 AUK     -0.043200
     19 C15        -1.3270    3.6130    2.6030 c3        1 AUK     -0.044200
     20 C16        -1.7270    4.8240    3.3560 c2        1 AUK     -0.173200
     21 C17        -1.6210    6.0700    2.8640 c2        1 AUK     -0.124400
     22 C24        -1.0790    6.3380    1.5100 c3        1 AUK     -0.058900
     23 C18        -2.0550    7.2560    3.6540 c3        1 AUK     -0.038200
     24 C19        -0.8750    8.1150    4.0700 c3        1 AUK     -0.043200
     25 C20        -1.3010    9.3250    4.8100 c2        1 AUK     -0.176200
     26 C21        -0.4410   10.1760    5.3930 c2        1 AUK     -0.125400
     27 C22         1.0270    9.9680    5.3510 c3        1 AUK     -0.057400
     28 C25        -0.9050   11.3810    6.1210 c3        1 AUK     -0.057400
     29 H28         2.7680   -0.1280    3.6810 hc        1 AUK      0.063033
     30 H28A        3.4230   -1.7550    3.2030 hc        1 AUK      0.063033
     31 H28B        4.5130   -0.3010    3.2320 hc        1 AUK      0.063033
     32 HO26        5.8950   -0.7350    1.0240 ho        1 AUK      0.426000
     33 H4          5.8940    0.8760   -1.0950 ha        1 AUK      0.146000
     34 H5          5.3350    1.7970   -3.3320 ha        1 AUK      0.137000
     35 H6          2.9740    1.8100   -4.1420 ha        1 AUK      0.140000
     36 H1          1.1490    0.9090   -2.6740 ha        1 AUK      0.159000
     37 H11        -0.1780   -1.1210    1.5740 hc        1 AUK      0.062200
     38 H11A        1.0000   -1.3960    2.9200 hc        1 AUK      0.062200
     39 H12         0.9510    1.0370    3.5190 ha        1 AUK      0.114000
     40 H23        -2.8770    1.3410    1.6510 hc        1 AUK      0.050700
     41 H23A       -2.4630   -0.3370    2.1950 hc        1 AUK      0.050700
     42 H23B       -1.6070    0.3900    0.7690 hc        1 AUK      0.050700
     43 H14        -2.4070    2.2340    3.8800 hc        1 AUK      0.045200
     44 H14A       -0.6800    2.5000    4.3410 hc        1 AUK      0.045200
     45 H15        -2.0100    3.4820    1.7180 hc        1 AUK      0.053200
     46 H15A       -0.2890    3.7470    2.1910 hc        1 AUK      0.053200
     47 H16        -2.1320    4.6540    4.3670 ha        1 AUK      0.122000
     48 H24         0.0210    6.1330    1.4890 hc        1 AUK      0.041700
     49 H24A       -1.2460    7.4010    1.2070 hc        1 AUK      0.041700
     50 H24B       -1.5670    5.6730    0.7540 hc        1 AUK      0.041700
     51 H18        -2.7630    7.8700    3.0330 hc        1 AUK      0.045700
     52 H18A       -2.6160    6.9320    4.5720 hc        1 AUK      0.045700
     53 H19        -0.2940    8.4200    3.1550 hc        1 AUK      0.050200
     54 H19A       -0.1750    7.5080    4.7080 hc        1 AUK      0.050200
     55 H20        -2.3870    9.5050    4.8610 ha        1 AUK      0.122000
     56 H22         1.3040    9.0610    5.9470 hc        1 AUK      0.040033
     57 H22A        1.3700    9.8040    4.2990 hc        1 AUK      0.040033
     58 H22B        1.5750   10.8470    5.7700 hc        1 AUK      0.040033
     59 H25        -0.5370   11.3560    7.1780 hc        1 AUK      0.040033
     60 H25A       -0.5010   12.3030    5.6340 hc        1 AUK      0.040033
     61 H25B       -2.0200   11.4500    6.1370 hc        1 AUK      0.040033
@<TRIPOS>BOND
     1    1    2 2   
     2    2    3 1   
     3    2   13 1   
     4    3    4 2   
     5    3   14 1   
     6    4    5 1   
     7    4    6 1   
     8    5   29 1   
     9    5   30 1   
    10    5   31 1   
    11    6    7 1   
    12    6    8 1   
    13    7   32 1   
    14    8    9 ar  
    15    8   13 ar  
    16    9   10 ar  
    17    9   33 1   
    18   10   11 ar  
    19   10   34 1   
    20   11   12 ar  
    21   11   35 1   
    22   12   13 ar  
    23   12   36 1   
    24   14   15 1   
    25   14   37 1   
    26   14   38 1   
    27   15   16 2   
    28   15   39 1   
    29   16   17 1   
    30   16   18 1   
    31   17   40 1   
    32   17   41 1   
    33   17   42 1   
    34   18   19 1   
    35   18   43 1   
    36   18   44 1   
    37   19   20 1   
    38   19   45 1   
    39   19   46 1   
    40   20   21 2   
    41   20   47 1   
    42   21   22 1   
    43   21   23 1   
    44   22   48 1   
    45   22   49 1   
    46   22   50 1   
    47   23   24 1   
    48   23   51 1   
    49   23   52 1   
    50   24   25 1   
    51   24   53 1   
    52   24   54 1   
    53   25   26 2   
    54   25   55 1   
    55   26   27 1   
    56   26   28 1   
    57   27   56 1   
    58   27   57 1   
    59   27   58 1   
    60   28   59 1   
    61   28   60 1   
    62   28   61 1   
@<TRIPOS>SUBSTRUCTURE
     1 AUK         1 TEMP              0 ****  ****    0 ROOT
