@<TRIPOS>MOLECULE
AUK
   61    62     1     0     0
SMALL
bcc


@<TRIPOS>ATOM
      1 O27         0.2370   -0.2640   -0.5970 o         1 AUK     -0.555100
      2 C7          1.3980   -0.1080   -0.1870 c         1 AUK      0.592900
      3 C8          1.7970   -0.3780    1.2040 cc        1 AUK     -0.225400
      4 C9          3.1110   -0.3900    1.5740 cd        1 AUK      0.122800
      5 C28         3.5120   -0.6400    2.9920 c3        1 AUK     -0.070900
      6 N10         4.1490   -0.3120    0.5910 na        1 AUK     -0.273300
      7 O26         5.3320    0.0700    1.0900 oh        1 AUK     -0.379300
      8 C3          3.8180    0.3530   -0.6340 ca        1 AUK      0.136600
      9 C4          4.8270    0.8750   -1.4740 ca        1 AUK     -0.156000
     10 C5          4.4940    1.3860   -2.7220 ca        1 AUK     -0.087000
     11 C6          3.1670    1.3910   -3.1600 ca        1 AUK     -0.160000
     12 C1          2.1660    0.8920   -2.3360 ca        1 AUK     -0.056000
     13 C2          2.4740    0.3810   -1.0680 ca        1 AUK     -0.184600
     14 C11         0.6940   -0.6490    2.1710 c3        1 AUK      0.007000
     15 C12         0.2370    0.5840    2.8620 c2        1 AUK     -0.185200
     16 C13        -0.9770    1.1390    2.7250 c2        1 AUK     -0.095400
     17 C23        -2.0260    0.5940    1.8290 c3        1 AUK     -0.072900
     18 C14        -1.3480    2.3600    3.5000 c3        1 AUK     -0.043200
     19 C15        -1.3220    3.6030    2.6290 c3        1 AUK     -0.044200
     20 C16        -1.7190    4.8160    3.3810 c2        1 AUK     -0.173200
     21 C17        -1.6310    6.0590    2.8800 c2        1 AUK     -0.124400
     22 C24        -1.1120    6.3220    1.5160 c3        1 AUK     -0.058900
     23 C18        -2.0610    7.2470    3.6690 c3        1 AUK     -0.038200
     24 C19        -0.8800    8.1170    4.0610 c3        1 AUK     -0.043200
     25 C20        -1.3030    9.3290    4.7990 c2        1 AUK     -0.176200
     26 C21        -0.4400   10.1930    5.3570 c2        1 AUK     -0.125400
     27 C22         1.0280    9.9980    5.2900 c3        1 AUK     -0.057400
     28 C25        -0.9010   11.4000    6.0850 c3        1 AUK     -0.057400
     29 H28         3.4640   -1.7380    3.2030 hc        1 AUK      0.063033
     30 H28A        2.8070   -0.1120    3.6810 hc        1 AUK      0.063033
     31 H28B        4.5470   -0.2780    3.2120 hc        1 AUK      0.063033
     32 HO26        5.9070   -0.7160    0.9920 ho        1 AUK      0.426000
     33 H4          5.8740    0.8850   -1.1350 ha        1 AUK      0.146000
     34 H5          5.2860    1.7930   -3.3690 ha        1 AUK      0.137000
     35 H6          2.9170    1.7910   -4.1530 ha        1 AUK      0.140000
     36 H1          1.1120    0.8880   -2.6610 ha        1 AUK      0.159000
     37 H11         1.0360   -1.3920    2.9440 hc        1 AUK      0.062200
     38 H11A       -0.1580   -1.1290    1.6110 hc        1 AUK      0.062200
     39 H12         0.9820    1.0430    3.5330 ha        1 AUK      0.114000
     40 H23        -2.8690    1.3170    1.7080 hc        1 AUK      0.050700
     41 H23A       -1.6040    0.3700    0.8150 hc        1 AUK      0.050700
     42 H23B       -2.4380   -0.3560    2.2530 hc        1 AUK      0.050700
     43 H14        -2.3780    2.2240    3.9270 hc        1 AUK      0.045200
     44 H14A       -0.6470    2.5020    4.3660 hc        1 AUK      0.045200
     45 H15        -0.2900    3.7400    2.2040 hc        1 AUK      0.053200
     46 H15A       -2.0150    3.4630    1.7540 hc        1 AUK      0.053200
     47 H16        -2.1070    4.6490    4.3990 ha        1 AUK      0.122000
     48 H24        -0.0110    6.1230    1.4780 hc        1 AUK      0.041700
     49 H24A       -1.6090    5.6500    0.7710 hc        1 AUK      0.041700
     50 H24B       -1.2890    7.3820    1.2100 hc        1 AUK      0.041700
     51 H18        -2.7830    7.8510    3.0550 hc        1 AUK      0.045700
     52 H18A       -2.6050    6.9250    4.5970 hc        1 AUK      0.045700
     53 H19        -0.1670    7.5190    4.6920 hc        1 AUK      0.050200
     54 H19A       -0.3150    8.4190    3.1350 hc        1 AUK      0.050200
     55 H20        -2.3900    9.5000    4.8690 ha        1 AUK      0.122000
     56 H22         1.3530    9.8340    4.2310 hc        1 AUK      0.040033
     57 H22A        1.3250    9.0960    5.8830 hc        1 AUK      0.040033
     58 H22B        1.5760   10.8830    5.6950 hc        1 AUK      0.040033
     59 H25        -0.5140   12.3220    5.5830 hc        1 AUK      0.040033
     60 H25A       -0.5140   11.3860    7.1350 hc        1 AUK      0.040033
     61 H25B       -2.0170   11.4600    6.1210 hc        1 AUK      0.040033
@<TRIPOS>BOND
     1    1    2 2   
     2    2    3 1   
     3    2   13 1   
     4    3    4 2   
     5    3   14 1   
     6    4    5 1   
     7    4    6 1   
     8    5   29 1   
     9    5   30 1   
    10    5   31 1   
    11    6    7 1   
    12    6    8 1   
    13    7   32 1   
    14    8    9 ar  
    15    8   13 ar  
    16    9   10 ar  
    17    9   33 1   
    18   10   11 ar  
    19   10   34 1   
    20   11   12 ar  
    21   11   35 1   
    22   12   13 ar  
    23   12   36 1   
    24   14   15 1   
    25   14   37 1   
    26   14   38 1   
    27   15   16 2   
    28   15   39 1   
    29   16   17 1   
    30   16   18 1   
    31   17   40 1   
    32   17   41 1   
    33   17   42 1   
    34   18   19 1   
    35   18   43 1   
    36   18   44 1   
    37   19   20 1   
    38   19   45 1   
    39   19   46 1   
    40   20   21 2   
    41   20   47 1   
    42   21   22 1   
    43   21   23 1   
    44   22   48 1   
    45   22   49 1   
    46   22   50 1   
    47   23   24 1   
    48   23   51 1   
    49   23   52 1   
    50   24   25 1   
    51   24   53 1   
    52   24   54 1   
    53   25   26 2   
    54   25   55 1   
    55   26   27 1   
    56   26   28 1   
    57   27   56 1   
    58   27   57 1   
    59   27   58 1   
    60   28   59 1   
    61   28   60 1   
    62   28   61 1   
@<TRIPOS>SUBSTRUCTURE
     1 AUK         1 TEMP              0 ****  ****    0 ROOT
