@<TRIPOS>MOLECULE
AUK
   61    62     1     0     0
SMALL
bcc


@<TRIPOS>ATOM
      1 O27         0.2640   -0.2370   -0.6340 o         1 AUK     -0.555100
      2 C7          1.4170   -0.0970   -0.1970 c         1 AUK      0.592900
      3 C8          1.7810   -0.3830    1.2010 cc        1 AUK     -0.225400
      4 C9          3.0860   -0.4110    1.6010 cd        1 AUK      0.122800
      5 C28         3.4530   -0.6770    3.0250 c3        1 AUK     -0.070900
      6 N10         4.1470   -0.3360    0.6420 na        1 AUK     -0.273300
      7 O26         5.3230    0.0300    1.1710 oh        1 AUK     -0.379300
      8 C3          3.8520    0.3430   -0.5850 ca        1 AUK      0.136600
      9 C4          4.8840    0.8620   -1.3970 ca        1 AUK     -0.156000
     10 C5          4.5850    1.3860   -2.6470 ca        1 AUK     -0.087000
     11 C6          3.2680    1.4080   -3.1150 ca        1 AUK     -0.160000
     12 C1          2.2440    0.9130   -2.3180 ca        1 AUK     -0.056000
     13 C2          2.5180    0.3880   -1.0480 ca        1 AUK     -0.184600
     14 C11         0.6540   -0.6510    2.1400 c3        1 AUK      0.007000
     15 C12         0.1940    0.5810    2.8310 c2        1 AUK     -0.185200
     16 C13        -1.0120    1.1500    2.6720 c2        1 AUK     -0.095400
     17 C23        -2.0450    0.6220    1.7480 c3        1 AUK     -0.072900
     18 C14        -1.3880    2.3680    3.4490 c3        1 AUK     -0.043200
     19 C15        -1.3310    3.6170    2.5880 c3        1 AUK     -0.044200
     20 C16        -1.7330    4.8280    3.3410 c2        1 AUK     -0.173200
     21 C17        -1.6260    6.0730    2.8500 c2        1 AUK     -0.124400
     22 C24        -1.0800    6.3420    1.4980 c3        1 AUK     -0.058900
     23 C18        -2.0610    7.2600    3.6400 c3        1 AUK     -0.038200
     24 C19        -0.8810    8.1170    4.0600 c3        1 AUK     -0.043200
     25 C20        -1.3080    9.3280    4.7980 c2        1 AUK     -0.176200
     26 C21        -0.4490   10.1830    5.3750 c2        1 AUK     -0.125400
     27 C22         1.0190    9.9790    5.3290 c3        1 AUK     -0.057400
     28 C25        -0.9140   11.3880    6.1030 c3        1 AUK     -0.057400
     29 H28         3.3890   -1.7770    3.2250 hc        1 AUK      0.063033
     30 H28A        2.7370   -0.1480    3.7020 hc        1 AUK      0.063033
     31 H28B        4.4860   -0.3280    3.2720 hc        1 AUK      0.063033
     32 HO26        5.8910   -0.7620    1.0790 ho        1 AUK      0.426000
     33 H4          5.9230    0.8580   -1.0330 ha        1 AUK      0.146000
     34 H5          5.3950    1.7900   -3.2730 ha        1 AUK      0.137000
     35 H6          3.0450    1.8200   -4.1100 ha        1 AUK      0.140000
     36 H1          1.1980    0.9220   -2.6670 ha        1 AUK      0.159000
     37 H11         0.9710   -1.4030    2.9150 hc        1 AUK      0.062200
     38 H11A       -0.1900   -1.1170    1.5570 hc        1 AUK      0.062200
     39 H12         0.9280    1.0280    3.5220 ha        1 AUK      0.114000
     40 H23        -2.8790    1.3540    1.6150 hc        1 AUK      0.050700
     41 H23A       -1.6030    0.4030    0.7420 hc        1 AUK      0.050700
     42 H23B       -2.4760   -0.3280    2.1550 hc        1 AUK      0.050700
     43 H14        -2.4290    2.2380    3.8520 hc        1 AUK      0.045200
     44 H14A       -0.7050    2.4970    4.3300 hc        1 AUK      0.045200
     45 H15        -0.2890    3.7480    2.1870 hc        1 AUK      0.053200
     46 H15A       -2.0070    3.4900    1.6970 hc        1 AUK      0.053200
     47 H16        -2.1410    4.6570    4.3510 ha        1 AUK      0.122000
     48 H24         0.0200    6.1330    1.4780 hc        1 AUK      0.041700
     49 H24A       -1.5700    5.6800    0.7400 hc        1 AUK      0.041700
     50 H24B       -1.2420    7.4060    1.1970 hc        1 AUK      0.041700
     51 H18        -2.7670    7.8740    3.0170 hc        1 AUK      0.045700
     52 H18A       -2.6250    6.9350    4.5560 hc        1 AUK      0.045700
     53 H19        -0.1840    7.5100    4.7000 hc        1 AUK      0.050200
     54 H19A       -0.2970    8.4220    3.1470 hc        1 AUK      0.050200
     55 H20        -2.3950    9.5050    4.8530 ha        1 AUK      0.122000
     56 H22         1.3590    9.8230    4.2740 hc        1 AUK      0.040033
     57 H22A        1.3010    9.0700    5.9180 hc        1 AUK      0.040033
     58 H22B        1.5650   10.8570    5.7510 hc        1 AUK      0.040033
     59 H25        -0.5130   12.3110    5.6120 hc        1 AUK      0.040033
     60 H25A       -0.5440   11.3660    7.1580 hc        1 AUK      0.040033
     61 H25B       -2.0300   11.4550    6.1210 hc        1 AUK      0.040033
@<TRIPOS>BOND
     1    1    2 2   
     2    2    3 1   
     3    2   13 1   
     4    3    4 2   
     5    3   14 1   
     6    4    5 1   
     7    4    6 1   
     8    5   29 1   
     9    5   30 1   
    10    5   31 1   
    11    6    7 1   
    12    6    8 1   
    13    7   32 1   
    14    8    9 ar  
    15    8   13 ar  
    16    9   10 ar  
    17    9   33 1   
    18   10   11 ar  
    19   10   34 1   
    20   11   12 ar  
    21   11   35 1   
    22   12   13 ar  
    23   12   36 1   
    24   14   15 1   
    25   14   37 1   
    26   14   38 1   
    27   15   16 2   
    28   15   39 1   
    29   16   17 1   
    30   16   18 1   
    31   17   40 1   
    32   17   41 1   
    33   17   42 1   
    34   18   19 1   
    35   18   43 1   
    36   18   44 1   
    37   19   20 1   
    38   19   45 1   
    39   19   46 1   
    40   20   21 2   
    41   20   47 1   
    42   21   22 1   
    43   21   23 1   
    44   22   48 1   
    45   22   49 1   
    46   22   50 1   
    47   23   24 1   
    48   23   51 1   
    49   23   52 1   
    50   24   25 1   
    51   24   53 1   
    52   24   54 1   
    53   25   26 2   
    54   25   55 1   
    55   26   27 1   
    56   26   28 1   
    57   27   56 1   
    58   27   57 1   
    59   27   58 1   
    60   28   59 1   
    61   28   60 1   
    62   28   61 1   
@<TRIPOS>SUBSTRUCTURE
     1 AUK         1 TEMP              0 ****  ****    0 ROOT
