@<TRIPOS>MOLECULE
AUK
   61    62     1     0     0
SMALL
bcc


@<TRIPOS>ATOM
      1 O27        -3.5010    0.6490   -1.9990 o         1 AUK     -0.555100
      2 C7         -3.5940    0.4430   -0.7790 c         1 AUK      0.592900
      3 C8         -3.2480    1.4570    0.2310 cc        1 AUK     -0.225400
      4 C9         -3.5480    1.2740    1.5500 cd        1 AUK      0.122800
      5 C28        -3.1740    2.2930    2.5770 c3        1 AUK     -0.070900
      6 N10        -4.3610    0.1710    1.9690 na        1 AUK     -0.273300
      7 O26        -4.2410   -0.1190    3.2720 oh        1 AUK     -0.379300
      8 C3         -4.3390   -0.9920    1.1340 ca        1 AUK      0.136600
      9 C4         -4.7210   -2.2560    1.6350 ca        1 AUK     -0.156000
     10 C5         -4.8290   -3.3390    0.7730 ca        1 AUK     -0.087000
     11 C6         -4.5640   -3.1950   -0.5920 ca        1 AUK     -0.160000
     12 C1         -4.1750   -1.9590   -1.0920 ca        1 AUK     -0.056000
     13 C2         -4.0470   -0.8530   -0.2420 ca        1 AUK     -0.184600
     14 C11        -2.5720    2.6890   -0.2690 c3        1 AUK      0.007000
     15 C12        -1.0920    2.5750   -0.2200 c2        1 AUK     -0.185200
     16 C13        -0.2850    2.5550   -1.2920 c2        1 AUK     -0.095400
     17 C23        -0.7830    2.6200   -2.6880 c3        1 AUK     -0.072900
     18 C14         1.1970    2.4790   -1.1290 c3        1 AUK     -0.043200
     19 C15         1.7220    1.0880   -1.4350 c3        1 AUK     -0.044200
     20 C16         3.1950    1.0090   -1.3060 c2        1 AUK     -0.173200
     21 C17         3.8830   -0.1420   -1.3800 c2        1 AUK     -0.124400
     22 C24         3.2130   -1.4480   -1.5910 c3        1 AUK     -0.058900
     23 C18         5.3690   -0.1680   -1.2630 c3        1 AUK     -0.038200
     24 C19         5.8180   -0.8410    0.0220 c3        1 AUK     -0.043200
     25 C20         7.2930   -0.9200    0.1210 c2        1 AUK     -0.176200
     26 C21         7.9370   -1.3650    1.2120 c2        1 AUK     -0.125400
     27 C22         7.2160   -1.8120    2.4280 c3        1 AUK     -0.057400
     28 C25         9.4170   -1.4350    1.2730 c3        1 AUK     -0.057400
     29 H28        -3.9110    3.1350    2.5480 hc        1 AUK      0.063033
     30 H28A       -3.1560    1.8700    3.6120 hc        1 AUK      0.063033
     31 H28B       -2.1570    2.6980    2.3500 hc        1 AUK      0.063033
     32 HO26       -5.1140    0.0990    3.6550 ho        1 AUK      0.426000
     33 H4         -4.9220   -2.3820    2.7100 ha        1 AUK      0.146000
     34 H5         -5.1250   -4.3220    1.1730 ha        1 AUK      0.137000
     35 H6         -4.6610   -4.0590   -1.2650 ha        1 AUK      0.140000
     36 H1         -3.9590   -1.8240   -2.1650 ha        1 AUK      0.159000
     37 H11        -2.9210    2.8820   -1.3230 hc        1 AUK      0.062200
     38 H11A       -2.8870    3.5760    0.3480 hc        1 AUK      0.062200
     39 H12        -0.6640    2.5090    0.7940 ha        1 AUK      0.114000
     40 H23        -1.1630    3.6470   -2.9130 hc        1 AUK      0.050700
     41 H23A        0.0290    2.3800   -3.4180 hc        1 AUK      0.050700
     42 H23B       -1.6230    1.8930   -2.8430 hc        1 AUK      0.050700
     43 H14         1.6810    3.2220   -1.8200 hc        1 AUK      0.045200
     44 H14A        1.4910    2.7610   -0.0830 hc        1 AUK      0.045200
     45 H15         1.2390    0.3450   -0.7420 hc        1 AUK      0.053200
     46 H15A        1.4220    0.7950   -2.4800 hc        1 AUK      0.053200
     47 H16         3.7190    1.9660   -1.1480 ha        1 AUK      0.122000
     48 H24         2.4930   -1.3850   -2.4460 hc        1 AUK      0.041700
     49 H24A        3.9530   -2.2560   -1.8090 hc        1 AUK      0.041700
     50 H24B        2.6350   -1.7360   -0.6760 hc        1 AUK      0.041700
     51 H18         5.7950   -0.7210   -2.1430 hc        1 AUK      0.045700
     52 H18A        5.7820    0.8760   -1.2960 hc        1 AUK      0.045700
     53 H19         5.4090   -0.2760    0.9040 hc        1 AUK      0.050200
     54 H19A        5.3820   -1.8770    0.0730 hc        1 AUK      0.050200
     55 H20         7.8580   -0.5910   -0.7660 ha        1 AUK      0.122000
     56 H22         6.4390   -2.5740    2.1640 hc        1 AUK      0.040033
     57 H22A        7.9150   -2.2620    3.1740 hc        1 AUK      0.040033
     58 H22B        6.6960   -0.9450    2.9090 hc        1 AUK      0.040033
     59 H25         9.8880   -1.0530    0.3350 hc        1 AUK      0.040033
     60 H25A        9.7940   -0.8250    2.1320 hc        1 AUK      0.040033
     61 H25B        9.7450   -2.4930    1.4270 hc        1 AUK      0.040033
@<TRIPOS>BOND
     1    1    2 2   
     2    2    3 1   
     3    2   13 1   
     4    3    4 2   
     5    3   14 1   
     6    4    5 1   
     7    4    6 1   
     8    5   29 1   
     9    5   30 1   
    10    5   31 1   
    11    6    7 1   
    12    6    8 1   
    13    7   32 1   
    14    8    9 ar  
    15    8   13 ar  
    16    9   10 ar  
    17    9   33 1   
    18   10   11 ar  
    19   10   34 1   
    20   11   12 ar  
    21   11   35 1   
    22   12   13 ar  
    23   12   36 1   
    24   14   15 1   
    25   14   37 1   
    26   14   38 1   
    27   15   16 2   
    28   15   39 1   
    29   16   17 1   
    30   16   18 1   
    31   17   40 1   
    32   17   41 1   
    33   17   42 1   
    34   18   19 1   
    35   18   43 1   
    36   18   44 1   
    37   19   20 1   
    38   19   45 1   
    39   19   46 1   
    40   20   21 2   
    41   20   47 1   
    42   21   22 1   
    43   21   23 1   
    44   22   48 1   
    45   22   49 1   
    46   22   50 1   
    47   23   24 1   
    48   23   51 1   
    49   23   52 1   
    50   24   25 1   
    51   24   53 1   
    52   24   54 1   
    53   25   26 2   
    54   25   55 1   
    55   26   27 1   
    56   26   28 1   
    57   27   56 1   
    58   27   57 1   
    59   27   58 1   
    60   28   59 1   
    61   28   60 1   
    62   28   61 1   
@<TRIPOS>SUBSTRUCTURE
     1 AUK         1 TEMP              0 ****  ****    0 ROOT
