@<TRIPOS>MOLECULE
AUP
   48    52     1     0     0
SMALL
bcc


@<TRIPOS>ATOM
      1 C1         -0.0590   -0.1750    0.1620 cc        1 AUP     -0.043800
      2 C2          1.4090   -0.1540    0.1860 cc        1 AUP     -0.043800
      3 C3          2.1640   -0.6310    1.3650 c3        1 AUP     -0.032600
      4 C4          1.3060   -0.7230    2.6120 c3        1 AUP     -0.075400
      5 C5         -0.0090   -1.4150    2.3240 c3        1 AUP     -0.075400
      6 C6         -0.8400   -0.6210    1.3350 c3        1 AUP     -0.032600
      7 C7         -0.5570    0.2730   -1.0220 cd        1 AUP     -0.245000
      8 P           0.7020    0.5440   -2.1160 p3        1 AUP      0.108000
      9 C9          1.9340    0.3090   -0.9800 cd        1 AUP     -0.245000
     10 N14         3.9380    1.6720   -1.0160 nb        1 AUP     -0.655500
     11 C15         5.2330    1.8160   -1.3410 ca        1 AUP      0.395700
     12 C16         6.0060    0.8180   -1.9620 ca        1 AUP     -0.249800
     13 C17         5.3920   -0.3990   -2.2530 ca        1 AUP     -0.094500
     14 C18         4.0480   -0.5770   -1.9260 ca        1 AUP     -0.236300
     15 C19         3.3360    0.4870   -1.3170 ca        1 AUP      0.481800
     16 C24         0.7470    4.7000   -3.6610 ca        1 AUP     -0.108000
     17 C25         1.2350    3.6380   -4.4250 ca        1 AUP     -0.141500
     18 C26         1.2140    2.3450   -3.9050 ca        1 AUP     -0.077500
     19 C27         0.7090    2.1220   -2.6260 ca        1 AUP     -0.025000
     20 C28         0.2220    3.1740   -1.8630 ca        1 AUP     -0.077500
     21 C29         0.2390    4.4710   -2.3820 ca        1 AUP     -0.141500
     22 N35        -2.6140    1.5490   -1.2030 nb        1 AUP     -0.655500
     23 C36        -1.9530    0.3770   -1.4150 ca        1 AUP      0.481800
     24 C37        -2.5980   -0.7490   -1.9860 ca        1 AUP     -0.236300
     25 C38        -3.9350   -0.6490   -2.3680 ca        1 AUP     -0.094500
     26 C39        -4.6100    0.5540   -2.1670 ca        1 AUP     -0.249800
     27 C40        -3.9020    1.6180   -1.5790 ca        1 AUP      0.395700
     28 H31         2.5880   -1.6460    1.1300 hc        1 AUP      0.057950
     29 H32         3.0330    0.0550    1.5580 hc        1 AUP      0.057950
     30 H41         1.8660   -1.2870    3.4020 hc        1 AUP      0.043200
     31 H42         1.1070    0.3070    3.0090 hc        1 AUP      0.043200
     32 H51        -0.5890   -1.5380    3.2760 hc        1 AUP      0.043200
     33 H52         0.1880   -2.4400    1.9150 hc        1 AUP      0.043200
     34 H61        -1.2580    0.2900    1.8460 hc        1 AUP      0.057950
     35 H62        -1.7150   -1.2390    0.9960 hc        1 AUP      0.057950
     36 H16         7.0610    1.0000   -2.2040 ha        1 AUP      0.142000
     37 H17         5.9580   -1.2120   -2.7320 ha        1 AUP      0.137000
     38 H18         3.5450   -1.5300   -2.1360 ha        1 AUP      0.145500
     39 H24         0.7630    5.7210   -4.0700 ha        1 AUP      0.128000
     40 H25         1.6340    3.8220   -5.4330 ha        1 AUP      0.131500
     41 H26         1.5900    1.4930   -4.4900 ha        1 AUP      0.143500
     42 H28        -0.1830    2.9750   -0.8580 ha        1 AUP      0.143500
     43 H29        -0.1470    5.3070   -1.7820 ha        1 AUP      0.131500
     44 H37        -2.0450   -1.6880   -2.1260 ha        1 AUP      0.145500
     45 H38        -4.4490   -1.5110   -2.8180 ha        1 AUP      0.137000
     46 H39        -5.6620    0.6750   -2.4530 ha        1 AUP      0.142000
     47 H40        -4.3960    2.5890   -1.3930 h4        1 AUP      0.021100
     48 H15         5.6760    2.7950   -1.0840 h4        1 AUP      0.021100
@<TRIPOS>BOND
     1    1    2 1   
     2    1    6 1   
     3    1    7 2   
     4    2    3 1   
     5    2    9 2   
     6    3    4 1   
     7    3   28 1   
     8    3   29 1   
     9    4    5 1   
    10    4   30 1   
    11    4   31 1   
    12    5    6 1   
    13    5   32 1   
    14    5   33 1   
    15    6   34 1   
    16    6   35 1   
    17    7    8 1   
    18    7   23 1   
    19    8    9 1   
    20    8   19 1   
    21    9   15 1   
    22   10   11 ar  
    23   10   15 ar  
    24   11   12 ar  
    25   11   48 1   
    26   12   13 ar  
    27   12   36 1   
    28   13   14 ar  
    29   13   37 1   
    30   14   15 ar  
    31   14   38 1   
    32   16   17 ar  
    33   16   21 ar  
    34   16   39 1   
    35   17   18 ar  
    36   17   40 1   
    37   18   19 ar  
    38   18   41 1   
    39   19   20 ar  
    40   20   21 ar  
    41   20   42 1   
    42   21   43 1   
    43   22   23 ar  
    44   22   27 ar  
    45   23   24 ar  
    46   24   25 ar  
    47   24   44 1   
    48   25   26 ar  
    49   25   45 1   
    50   26   27 ar  
    51   26   46 1   
    52   27   47 1   
@<TRIPOS>SUBSTRUCTURE
     1 AUP         1 TEMP              0 ****  ****    0 ROOT
