@<TRIPOS>MOLECULE
AUP
   48    52     1     0     0
SMALL
bcc


@<TRIPOS>ATOM
      1 C1          0.7970   -1.6850   -0.0410 cc        1 AUP     -0.043800
      2 C2         -0.6710   -1.7320   -0.0690 cc        1 AUP     -0.043800
      3 C3         -1.3950   -3.0060   -0.2630 c3        1 AUP     -0.032600
      4 C4         -0.5110   -4.1020   -0.8260 c3        1 AUP     -0.075400
      5 C5          0.8080   -4.1780   -0.0870 c3        1 AUP     -0.075400
      6 C6          1.6070   -2.9010   -0.2620 c3        1 AUP     -0.032600
      7 C7          1.2650   -0.4270    0.1810 cd        1 AUP     -0.245000
      8 P          -0.0200    0.6190    0.5130 p3        1 AUP      0.108000
      9 C9         -1.2250   -0.5060    0.1330 cd        1 AUP     -0.245000
     10 N14        -3.2490    0.1740   -1.0130 nb        1 AUP     -0.655500
     11 C15        -4.5530    0.4950   -0.9660 ca        1 AUP      0.395700
     12 C16        -5.3240    0.4980    0.2100 ca        1 AUP     -0.249800
     13 C17        -4.6980    0.1380    1.4030 ca        1 AUP     -0.094500
     14 C18        -3.3450   -0.2010    1.3840 ca        1 AUP     -0.236300
     15 C19        -2.6370   -0.1610    0.1570 ca        1 AUP      0.481800
     16 C24        -0.1560    4.0760   -2.2610 ca        1 AUP     -0.108000
     17 C25        -0.6440    4.1750   -0.9560 ca        1 AUP     -0.141500
     18 C26        -0.5940    3.0660   -0.1130 ca        1 AUP     -0.077500
     19 C27        -0.0600    1.8660   -0.5800 ca        1 AUP     -0.025000
     20 C28         0.4260    1.7630   -1.8750 ca        1 AUP     -0.077500
     21 C29         0.3810    2.8740   -2.7210 ca        1 AUP     -0.141500
     22 N35         3.2990    0.4330   -0.8260 nb        1 AUP     -0.655500
     23 C36         2.6510   -0.0030    0.2900 ca        1 AUP      0.481800
     24 C37         3.3000   -0.0750    1.5480 ca        1 AUP     -0.236300
     25 C38         4.6280    0.3370    1.6550 ca        1 AUP     -0.094500
     26 C39         5.2890    0.7980    0.5180 ca        1 AUP     -0.249800
     27 C40         4.5780    0.8220   -0.6950 ca        1 AUP      0.395700
     28 H31        -2.2700   -2.8410   -0.9480 hc        1 AUP      0.057950
     29 H32        -1.8090   -3.3360    0.7300 hc        1 AUP      0.057950
     30 H41        -0.3200   -3.9090   -1.9140 hc        1 AUP      0.043200
     31 H42        -1.0470   -5.0830   -0.7460 hc        1 AUP      0.043200
     32 H51         0.6170   -4.3580    1.0030 hc        1 AUP      0.043200
     33 H52         1.4080   -5.0430   -0.4720 hc        1 AUP      0.043200
     34 H61         2.4850   -2.9060    0.4400 hc        1 AUP      0.057950
     35 H62         2.0220   -2.8620   -1.3080 hc        1 AUP      0.057950
     36 H16        -6.3850    0.7720    0.1810 ha        1 AUP      0.142000
     37 H17        -5.2610    0.1170    2.3470 ha        1 AUP      0.137000
     38 H18        -2.8320   -0.4980    2.3090 ha        1 AUP      0.145500
     39 H24        -0.1960    4.9510   -2.9270 ha        1 AUP      0.128000
     40 H25        -1.0660    5.1240   -0.5960 ha        1 AUP      0.131500
     41 H26        -0.9690    3.1210    0.9190 ha        1 AUP      0.143500
     42 H28         0.8540    0.8090   -2.2220 ha        1 AUP      0.143500
     43 H29         0.7660    2.7980   -3.7480 ha        1 AUP      0.131500
     44 H37         2.7580   -0.4510    2.4270 ha        1 AUP      0.145500
     45 H38         5.1450    0.2940    2.6250 ha        1 AUP      0.137000
     46 H39         6.3330    1.1320    0.5590 ha        1 AUP      0.142000
     47 H40         5.0610    1.1730   -1.6250 h4        1 AUP      0.021100
     48 H15        -5.0050    0.7660   -1.9380 h4        1 AUP      0.021100
@<TRIPOS>BOND
     1    1    2 1   
     2    1    6 1   
     3    1    7 2   
     4    2    3 1   
     5    2    9 2   
     6    3    4 1   
     7    3   28 1   
     8    3   29 1   
     9    4    5 1   
    10    4   30 1   
    11    4   31 1   
    12    5    6 1   
    13    5   32 1   
    14    5   33 1   
    15    6   34 1   
    16    6   35 1   
    17    7    8 1   
    18    7   23 1   
    19    8    9 1   
    20    8   19 1   
    21    9   15 1   
    22   10   11 ar  
    23   10   15 ar  
    24   11   12 ar  
    25   11   48 1   
    26   12   13 ar  
    27   12   36 1   
    28   13   14 ar  
    29   13   37 1   
    30   14   15 ar  
    31   14   38 1   
    32   16   17 ar  
    33   16   21 ar  
    34   16   39 1   
    35   17   18 ar  
    36   17   40 1   
    37   18   19 ar  
    38   18   41 1   
    39   19   20 ar  
    40   20   21 ar  
    41   20   42 1   
    42   21   43 1   
    43   22   23 ar  
    44   22   27 ar  
    45   23   24 ar  
    46   24   25 ar  
    47   24   44 1   
    48   25   26 ar  
    49   25   45 1   
    50   26   27 ar  
    51   26   46 1   
    52   27   47 1   
@<TRIPOS>SUBSTRUCTURE
     1 AUP         1 TEMP              0 ****  ****    0 ROOT
