@<TRIPOS>MOLECULE
AUP
   48    41     1     0     0
SMALL
bcc


@<TRIPOS>ATOM
      1 C1         -0.7840   -0.3210    1.7030 c1        1 AUP     -0.082000
      2 C2          0.8540   -0.2660    1.7230 c1        1 AUP     -0.086000
      3 C3          1.5560   -0.3370    3.0950 c2        1 AUP     -0.085000
      4 C4          0.6920   -0.3030    4.2800 c3        1 AUP     -0.152000
      5 C5         -0.6520   -1.0090    4.1790 c3        1 AUP     -0.152000
      6 C6         -1.5120   -0.6360    3.0410 c2        1 AUP     -0.085000
      7 C7         -1.2400    0.0920    0.3860 c2        1 AUP     -1.282000
      8 P           0.0390    0.4260   -0.4900 p3        1 AUP      3.214000
      9 C9          1.3130    0.1800    0.4120 c2        1 AUP     -1.271000
     10 N14         3.5380    0.4330   -0.0200 n1        1 AUP     -0.202000
     11 C15         4.8080   -0.0150   -0.2590 c1        1 AUP     -0.121300
     12 C16         5.0250   -1.3500   -0.5900 c1        1 AUP     -0.121300
     13 C17         3.9680   -2.2150   -0.6760 c1        1 AUP     -0.121300
     14 C18         2.6970   -1.7660   -0.4350 c1        1 AUP     -0.121300
     15 C19         2.4820   -0.4280   -0.1040 c1        1 AUP      0.152000
     16 C24         0.1630    2.2840   -4.6140 c1        1 AUP     -0.121300
     17 C25         0.1480    0.8990   -4.4730 c1        1 AUP     -0.121300
     18 C26         0.0840    0.3280   -3.2030 c1        1 AUP     -0.121300
     19 C27         0.0360    1.1400   -2.0800 c1        1 AUP     -0.974000
     20 C28         0.0510    2.5290   -2.2220 c1        1 AUP     -0.009000
     21 C29         0.1150    3.0970   -3.4890 c1        1 AUP     -0.121300
     22 N35        -3.3460    1.1800    0.2500 n1        1 AUP     -0.202000
     23 C36        -2.5440    0.1120   -0.0480 c1        1 AUP      0.156000
     24 C37        -3.0650   -0.9770   -0.7230 c1        1 AUP     -0.185000
     25 C38        -4.3830   -0.9870   -1.0910 c1        1 AUP     -0.121300
     26 C39        -5.1870    0.0850   -0.7910 c1        1 AUP     -0.121300
     27 C40        -4.6670    1.1710   -0.1190 c1        1 AUP     -0.063000
     28 H31         2.1830    0.4180    3.1550 ha        1 AUP      0.082500
     29 H32         2.0720   -1.1610    3.1250 ha        1 AUP      0.082500
     30 H41         0.5190    0.6470    4.5010 hc        1 AUP      0.074500
     31 H42         1.1970   -0.7100    5.0390 hc        1 AUP      0.074500
     32 H51        -1.1460   -0.7940    4.9870 hc        1 AUP      0.074500
     33 H52        -0.4590   -1.9790    4.0840 hc        1 AUP      0.074500
     34 H61        -1.9980    0.1900    3.3060 ha        1 AUP      0.082500
     35 H62        -2.1110   -1.4050    2.8680 ha        1 AUP      0.082500
     36 H15         5.5660    0.6050   -0.1980 ha        1 AUP      0.143000
     37 H16         5.9420   -1.6730   -0.7630 ha        1 AUP      0.143000
     38 H17         4.1200   -3.1560   -0.9090 ha        1 AUP      0.143000
     39 H18         1.9310   -2.3910   -0.4970 ha        1 AUP      0.143000
     40 H24         0.2080    2.6840   -5.5060 ha        1 AUP      0.143000
     41 H25         0.1820    0.3340   -5.2540 ha        1 AUP      0.143000
     42 H26         0.0740   -0.6520   -3.1030 ha        1 AUP      0.143000
     43 H28         0.0170    3.1020   -1.4290 ha        1 AUP      0.175000
     44 H29         0.1250    4.0750   -3.5890 ha        1 AUP      0.143000
     45 H37        -2.4880   -1.7470   -0.9380 ha        1 AUP      0.145000
     46 H38        -4.7430   -1.7380   -1.5560 ha        1 AUP      0.143000
     47 H39        -6.1510    0.0780   -1.0600 ha        1 AUP      0.143000
     48 H40        -5.2310    1.9230    0.0920 ha        1 AUP      0.146000
@<TRIPOS>BOND
     1    1    2 1   
     2    1    7 1   
     3    2    9 1   
     4    3    4 1   
     5    3   28 1   
     6    3   29 1   
     7    4    5 1   
     8    4   30 1   
     9    4   31 1   
    10    5    6 1   
    11    5   32 1   
    12    5   33 1   
    13    6   34 1   
    14    6   35 1   
    15    7    8 1   
    16    7   23 1   
    17    8    9 1   
    18    8   19 1   
    19    9   15 1   
    20   10   15 1   
    21   11   12 1   
    22   11   36 1   
    23   12   37 1   
    24   13   14 1   
    25   13   38 1   
    26   14   39 1   
    27   16   21 1   
    28   16   40 1   
    29   17   18 1   
    30   17   41 1   
    31   18   42 1   
    32   19   20 1   
    33   20   43 1   
    34   21   44 1   
    35   22   27 1   
    36   23   24 1   
    37   24   45 1   
    38   25   26 1   
    39   25   46 1   
    40   26   47 1   
    41   27   48 1   
@<TRIPOS>SUBSTRUCTURE
     1 AUP         1 TEMP              0 ****  ****    0 ROOT
