@<TRIPOS>MOLECULE
AUP
   48    52     1     0     0
SMALL
bcc


@<TRIPOS>ATOM
      1 C1         -0.0790   -0.1930    0.1360 cc        1 AUP     -0.043800
      2 C2          1.3900   -0.1830    0.1750 cc        1 AUP     -0.043800
      3 C3          2.1290   -0.6890    1.3510 c3        1 AUP     -0.032600
      4 C4          1.2590   -0.7980    2.5880 c3        1 AUP     -0.075400
      5 C5         -0.0590   -1.4740    2.2750 c3        1 AUP     -0.075400
      6 C6         -0.8740   -0.6550    1.2930 c3        1 AUP     -0.032600
      7 C7         -0.5620    0.2820   -1.0440 cd        1 AUP     -0.245000
      8 P           0.7100    0.5640   -2.1200 p3        1 AUP      0.108000
      9 C9          1.9290    0.2980   -0.9770 cd        1 AUP     -0.245000
     10 N14         3.9440    1.6440   -0.9680 nb        1 AUP     -0.655500
     11 C15         5.2430    1.7840   -1.2780 ca        1 AUP      0.395700
     12 C16         6.0140    0.7920   -1.9120 ca        1 AUP     -0.249800
     13 C17         5.3940   -0.4140   -2.2320 ca        1 AUP     -0.094500
     14 C18         4.0450   -0.5870   -1.9210 ca        1 AUP     -0.236300
     15 C19         3.3360    0.4700   -1.2980 ca        1 AUP      0.481800
     16 C24         0.8020    4.7480   -3.5840 ca        1 AUP     -0.108000
     17 C25         1.2900    3.6970   -4.3650 ca        1 AUP     -0.141500
     18 C26         1.2530    2.3950   -3.8700 ca        1 AUP     -0.077500
     19 C27         0.7340    2.1510   -2.6000 ca        1 AUP     -0.025000
     20 C28         0.2480    3.1920   -1.8210 ca        1 AUP     -0.077500
     21 C29         0.2800    4.4980   -2.3160 ca        1 AUP     -0.141500
     22 N35        -2.6070    1.5770   -1.2200 nb        1 AUP     -0.655500
     23 C36        -1.9530    0.4040   -1.4480 ca        1 AUP      0.481800
     24 C37        -2.6010   -0.7050   -2.0460 ca        1 AUP     -0.236300
     25 C38        -3.9340   -0.5880   -2.4380 ca        1 AUP     -0.094500
     26 C39        -4.6010    0.6160   -2.2200 ca        1 AUP     -0.249800
     27 C40        -3.8910    1.6630   -1.6050 ca        1 AUP      0.395700
     28 H31         3.0020   -0.0140    1.5650 hc        1 AUP      0.057950
     29 H32         2.5480   -1.7030    1.1010 hc        1 AUP      0.057950
     30 H41         1.8070   -1.3820    3.3720 hc        1 AUP      0.043200
     31 H42         1.0650    0.2250    3.0030 hc        1 AUP      0.043200
     32 H51         0.1350   -2.4930    1.8480 hc        1 AUP      0.043200
     33 H52        -0.6480   -1.6100    3.2180 hc        1 AUP      0.043200
     34 H61        -1.7510   -1.2590    0.9340 hc        1 AUP      0.057950
     35 H62        -1.2900    0.2500    1.8180 hc        1 AUP      0.057950
     36 H16         7.0730    0.9700   -2.1400 ha        1 AUP      0.142000
     37 H17         5.9580   -1.2220   -2.7200 ha        1 AUP      0.137000
     38 H18         3.5360   -1.5320   -2.1540 ha        1 AUP      0.145500
     39 H24         0.8300    5.7770   -3.9740 ha        1 AUP      0.128000
     40 H25         1.7000    3.8970   -5.3650 ha        1 AUP      0.131500
     41 H26         1.6290    1.5510   -4.4670 ha        1 AUP      0.143500
     42 H28        -0.1680    2.9780   -0.8240 ha        1 AUP      0.143500
     43 H29        -0.1060    5.3260   -1.7040 ha        1 AUP      0.131500
     44 H37        -2.0540   -1.6460   -2.1980 ha        1 AUP      0.145500
     45 H38        -4.4500   -1.4370   -2.9100 ha        1 AUP      0.137000
     46 H39        -5.6490    0.7510   -2.5140 ha        1 AUP      0.142000
     47 H40        -4.3790    2.6350   -1.4060 h4        1 AUP      0.021100
     48 H15         5.6920    2.7550   -0.9980 h4        1 AUP      0.021100
@<TRIPOS>BOND
     1    1    2 1   
     2    1    6 1   
     3    1    7 2   
     4    2    3 1   
     5    2    9 2   
     6    3    4 1   
     7    3   28 1   
     8    3   29 1   
     9    4    5 1   
    10    4   30 1   
    11    4   31 1   
    12    5    6 1   
    13    5   32 1   
    14    5   33 1   
    15    6   34 1   
    16    6   35 1   
    17    7    8 1   
    18    7   23 1   
    19    8    9 1   
    20    8   19 1   
    21    9   15 1   
    22   10   11 ar  
    23   10   15 ar  
    24   11   12 ar  
    25   11   48 1   
    26   12   13 ar  
    27   12   36 1   
    28   13   14 ar  
    29   13   37 1   
    30   14   15 ar  
    31   14   38 1   
    32   16   17 ar  
    33   16   21 ar  
    34   16   39 1   
    35   17   18 ar  
    36   17   40 1   
    37   18   19 ar  
    38   18   41 1   
    39   19   20 ar  
    40   20   21 ar  
    41   20   42 1   
    42   21   43 1   
    43   22   23 ar  
    44   22   27 ar  
    45   23   24 ar  
    46   24   25 ar  
    47   24   44 1   
    48   25   26 ar  
    49   25   45 1   
    50   26   27 ar  
    51   26   46 1   
    52   27   47 1   
@<TRIPOS>SUBSTRUCTURE
     1 AUP         1 TEMP              0 ****  ****    0 ROOT
