@<TRIPOS>MOLECULE
AUR
   65    67     1     0     0
SMALL
bcc


@<TRIPOS>ATOM
      1 C1          3.9950    1.3690   -5.5200 c3        1 AUR     -0.092100
      2 C2          3.0090    0.7660   -4.5520 c3        1 AUR     -0.089400
      3 C3          1.7220    0.3540   -5.2450 c3        1 AUR      0.110100
      4 C4          0.4450    1.1310   -4.8310 c3        1 AUR      0.132800
      5 C5         -0.6590    0.0880   -5.1890 c3        1 AUR      0.085100
      6 C6          0.0450   -1.1860   -4.6390 c3        1 AUR      0.144800
      7 C7         -0.1320   -1.0730   -3.1060 c3        1 AUR      0.105100
      8 C8          0.5670    0.2090   -2.5910 c3        1 AUR      0.126300
      9 C20         0.3090    2.4770   -5.4990 c3        1 AUR     -0.078100
     10 C21        -0.4450   -2.4980   -5.1950 c3        1 AUR     -0.084100
     11 C24        -2.0360   -0.2720   -8.6130 c3        1 AUR     -0.150100
     12 O3          1.4430   -1.0360   -4.9640 os        1 AUR     -0.400600
     13 O4          0.3510    1.3600   -3.4220 os        1 AUR     -0.402600
     14 O5         -0.8000    0.0440   -6.6060 os        1 AUR     -0.425900
     15 O7          0.4510   -2.2190   -2.5120 oh        1 AUR     -0.575800
     16 O25        -2.9590   -0.5130   -6.3510 o         1 AUR     -0.538000
     17 C9          0.0480    0.5860   -1.2410 c2        1 AUR     -0.142200
     18 C10         0.5400    0.0580   -0.1100 ce        1 AUR     -0.152000
     19 C11         0.0300    0.4010    1.1990 ce        1 AUR     -0.096000
     20 C12         0.5230   -0.1300    2.3350 cf        1 AUR     -0.148000
     21 C13         0.0110    0.2190    3.6400 cf        1 AUR     -0.058000
     22 C14         0.5040   -0.3090    4.7770 ce        1 AUR     -0.163000
     23 C15         0.0050    0.0260    6.1020 cc        1 AUR      0.191100
     24 C16         0.5040   -0.5030    7.2670 cd        1 AUR     -0.198200
     25 C17        -0.0950   -0.0740    8.5130 cd        1 AUR      0.235100
     26 C18        -1.1210    0.8260    8.5180 cc        1 AUR     -0.386200
     27 C19        -1.6140    1.3550    7.2730 c         1 AUR      0.739800
     28 C22         1.6160   -1.4780    7.2690 c3        1 AUR     -0.036900
     29 C23        -0.1190   -0.2390   10.8840 c3        1 AUR      0.108700
     30 O15        -1.0260    0.9330    6.0720 os        1 AUR     -0.337200
     31 O17         0.4500   -0.6400    9.6370 os        1 AUR     -0.312900
     32 O19        -2.5150    2.1630    7.0480 o         1 AUR     -0.585500
     33 H11A        3.5640    2.2760   -6.0100 hc        1 AUR      0.035700
     34 H12A        4.9260    1.6680   -4.9810 hc        1 AUR      0.035700
     35 H13A        4.2680    0.6350   -6.3170 hc        1 AUR      0.035700
     36 H21         3.4640   -0.1370   -4.0640 hc        1 AUR      0.062200
     37 H22         2.7750    1.5110   -3.7450 hc        1 AUR      0.062200
     38 H3          1.8260    0.4320   -6.3650 h1        1 AUR      0.068700
     39 H5         -1.6370    0.2990   -4.6900 h1        1 AUR      0.106700
     40 H7         -1.2310   -1.0400   -2.8660 h1        1 AUR      0.052700
     41 H8          1.6770    0.0030   -2.5570 h1        1 AUR      0.077700
     42 H201        1.2420    3.0710   -5.3430 hc        1 AUR      0.055367
     43 H202        0.1410    2.3280   -6.5930 hc        1 AUR      0.055367
     44 H203       -0.5520    3.0380   -5.0650 hc        1 AUR      0.055367
     45 H211        0.0400   -3.3430   -4.6490 hc        1 AUR      0.057700
     46 H212       -1.5530   -2.5590   -5.0750 hc        1 AUR      0.057700
     47 H213       -0.1860   -2.5690   -6.2790 hc        1 AUR      0.057700
     48 H241       -2.7850    0.4770   -8.9700 hc        1 AUR      0.079033
     49 H242       -1.0280   -0.0150   -9.0180 hc        1 AUR      0.079033
     50 H243       -2.3350   -1.2870   -8.9730 hc        1 AUR      0.079033
     51 HO7         0.3250   -2.1240   -1.5580 ho        1 AUR      0.403000
     52 H9         -0.7620    1.3330   -1.2400 ha        1 AUR      0.148000
     53 H10         1.3730   -0.6670   -0.1400 ha        1 AUR      0.129000
     54 H11        -0.7960    1.1330    1.2310 ha        1 AUR      0.134000
     55 H12         1.3510   -0.8600    2.3050 ha        1 AUR      0.128000
     56 H13        -0.8180    0.9510    3.6750 ha        1 AUR      0.152000
     57 H14         1.3300   -1.0390    4.7650 ha        1 AUR      0.144000
     58 H18        -1.6160    1.1890    9.4270 ha        1 AUR      0.171000
     59 H221        1.8800   -1.7880    8.3110 hc        1 AUR      0.050700
     60 H222        1.3330   -2.3960    6.6950 hc        1 AUR      0.050700
     61 H223        2.5280   -1.0340    6.7960 hc        1 AUR      0.050700
     62 H231        0.4760   -0.8190   11.6340 h1        1 AUR      0.054033
     63 H232        0.0110    0.8600   11.0360 h1        1 AUR      0.054033
     64 H233       -1.1990   -0.5190   10.9290 h1        1 AUR      0.054033
     65 C25        -2.0310   -0.2730   -7.1240 c         1 AUR      0.638100
@<TRIPOS>BOND
     1    1    2 1   
     2    1   33 1   
     3    1   34 1   
     4    1   35 1   
     5    2    3 1   
     6    2   36 1   
     7    2   37 1   
     8    3    4 1   
     9    3   12 1   
    10    3   38 1   
    11    4    5 1   
    12    4    9 1   
    13    4   13 1   
    14    5    6 1   
    15    5   14 1   
    16    5   39 1   
    17    6    7 1   
    18    6   10 1   
    19    6   12 1   
    20    7    8 1   
    21    7   15 1   
    22    7   40 1   
    23    8   13 1   
    24    8   17 1   
    25    8   41 1   
    26    9   42 1   
    27    9   43 1   
    28    9   44 1   
    29   10   45 1   
    30   10   46 1   
    31   10   47 1   
    32   11   48 1   
    33   11   49 1   
    34   11   50 1   
    35   11   65 1   
    36   14   65 1   
    37   15   51 1   
    38   16   65 2   
    39   17   18 2   
    40   17   52 1   
    41   18   19 1   
    42   18   53 1   
    43   19   20 2   
    44   19   54 1   
    45   20   21 1   
    46   20   55 1   
    47   21   22 2   
    48   21   56 1   
    49   22   23 1   
    50   22   57 1   
    51   23   24 2   
    52   23   30 1   
    53   24   25 1   
    54   24   28 1   
    55   25   26 2   
    56   25   31 1   
    57   26   27 1   
    58   26   58 1   
    59   27   30 1   
    60   27   32 2   
    61   28   59 1   
    62   28   60 1   
    63   28   61 1   
    64   29   31 1   
    65   29   62 1   
    66   29   63 1   
    67   29   64 1   
@<TRIPOS>SUBSTRUCTURE
     1 AUR         1 TEMP              0 ****  ****    0 ROOT
