@<TRIPOS>MOLECULE
AUR
   65    83     1     0     0
SMALL
bcc


@<TRIPOS>ATOM
      1 C1          0.0000    0.0000    0.0000 DU        1 AUR     -0.165000
      2 C2          1.5310    0.0000    0.0000 DU        1 AUR     -0.315000
      3 C3          2.0370    0.0000    1.4340 c3        1 AUR     -0.563000
      4 C4          3.5820   -0.0060    1.4970 DU        1 AUR      0.341000
      5 C5          3.7700   -0.4810    2.9700 c3        1 AUR     -0.303000
      6 C6          2.7180   -1.6250    2.9820 DU        1 AUR     -0.176000
      7 C7          3.4020   -2.7620    2.1880 DU        1 AUR     -0.013000
      8 C8          3.5850   -2.2810    0.7490 c3        1 AUR     -0.367000
      9 C20         4.1750    1.3910    1.2630 c3        1 AUR     -0.161000
     10 C21         2.2860   -2.0410    4.3880 c3        1 AUR     -0.258000
     11 C24         3.6930    1.7170    6.0820 c3        1 AUR     -0.108000
     12 O3          1.6270   -1.1690    2.1550 os        1 AUR     -0.239000
     13 O4          4.1260   -0.9870    0.6370 os        1 AUR     -0.255000
     14 O5          3.4300    0.5690    3.9120 os        1 AUR     -0.221000
     15 O7          2.5760   -3.9290    2.2080 oh        1 AUR     -0.340000
     16 O25         4.8860   -0.1940    5.3900 o         1 AUR     -0.412000
     17 C9          4.5090   -3.2540    0.0430 c3        1 AUR     -0.412000
     18 C10         4.0850   -3.9160   -1.0350 c3        1 AUR     -0.172000
     19 C11         4.9740   -4.8530   -1.7150 c3        1 AUR     -0.183000
     20 C12         4.5440   -5.5250   -2.8110 c3        1 AUR     -0.364000
     21 C13         5.4020   -6.4300   -3.4670 c3        1 AUR     -0.078000
     22 C14         4.9720   -7.1030   -4.5640 c2        1 AUR     -0.207000
     23 C15         5.8350   -8.0120   -5.2230 c2        1 AUR      0.123000
     24 C16         5.3870   -8.6920   -6.3380 c3        1 AUR     -0.239000
     25 C17         6.2460   -9.5920   -6.9880 c2        1 AUR     -0.081000
     26 C18         7.5270   -9.7750   -6.4880 c2        1 AUR     -0.288000
     27 C19         7.9280   -9.0600   -5.3560 c3        1 AUR      0.448000
     28 C22         3.9890   -8.4700   -6.8530 c3        1 AUR     -0.288000
     29 C23         6.9240  -11.0930   -8.5000 c3        1 AUR     -0.648000
     30 O15         7.0840   -8.2000   -4.7580 os        1 AUR     -0.183000
     31 O17         5.8310  -10.2720   -8.0830 os        1 AUR      0.113000
     32 O19         9.0540   -9.2130   -4.9100 o         1 AUR     -0.266000
     33 H11A        0.6520    0.0790    0.8620 DU        1 AUR      0.277500
     34 H12A       -0.3610    0.3410   -0.9630 ha        1 AUR      0.155500
     35 H13A       -0.3610    0.6640    0.7760 ha        1 AUR      0.155500
     36 H21         0.5780   -0.5080    0.0940 DU        1 AUR      0.277500
     37 H22         1.8920    0.8850   -0.5100 ha        1 AUR      0.134000
     38 H3          1.9640   -0.4490    0.4510 DU        1 AUR      0.158000
     39 H5          3.1770   -0.6470    2.0790 DU        1 AUR      0.385000
     40 H7          3.9910   -1.9490    2.5950 ha        1 AUR      0.255000
     41 H8          3.9810   -2.6360    1.6930 DU        1 AUR      0.141000
     42 H201        4.2830    0.3130    1.2680 DU        1 AUR      0.035000
     43 H202        5.1340    1.4640    1.7610 hc        1 AUR      0.077500
     44 H203        4.3070    1.5530    0.2000 hc        1 AUR      0.077500
     45 H211        2.5410   -1.1590    3.8140 DU        1 AUR      0.197000
     46 H212        1.5910   -2.8690    4.3210 hc        1 AUR      0.117000
     47 H213        3.1550   -2.3440    4.9580 hc        1 AUR      0.117000
     48 H241        3.1360    0.8580    5.7290 DU        1 AUR      0.028000
     49 H242        3.8290    1.4440    7.1210 hc        1 AUR      0.088000
     50 H243        2.6840    2.0850    5.9350 hc        1 AUR      0.088000
     51 HO7         2.8040   -3.1310    2.6560 DU        1 AUR      0.320000
     52 H9          4.0240   -3.7140    0.8970 hc        1 AUR      0.240000
     53 H10         4.2080   -2.9290   -0.6040 DU        1 AUR      0.289000
     54 H11         4.8980   -3.7730   -1.7110 DU        1 AUR      0.151000
     55 H12         4.3250   -5.3030   -1.7740 DU        1 AUR      0.344000
     56 H13         5.3550   -5.3480   -3.4810 DU        1 AUR      0.261000
     57 H14         4.7530   -6.8810   -3.5270 DU        1 AUR      0.214000
     58 H18         7.0090   -8.8980   -6.1190 DU        1 AUR      0.146000
     59 H221        4.9680   -8.9330   -6.8810 DU        1 AUR      0.214000
     60 H222        3.9030   -7.4620   -7.2390 hc        1 AUR      0.103500
     61 H223        3.2810   -8.6100   -6.0460 hc        1 AUR      0.103500
     62 H231        5.9910  -10.5840   -8.2930 h1        1 AUR      0.224000
     63 H232        7.7150  -10.6750   -9.1110 h1        1 AUR      0.224000
     64 H233        7.0770  -12.0660   -8.0490 h1        1 AUR      0.224000
     65 C25         4.0470    0.6270    5.1040 c3        1 AUR      0.457000
@<TRIPOS>BOND
     1    1    2 1   
     2    1   33 1   
     3    1   34 1   
     4    1   35 1   
     5    1   36 1   
     6    2    3 1   
     7    2   33 1   
     8    2   36 1   
     9    2   37 1   
    10    2   38 1   
    11    3    4 1   
    12    3   12 1   
    13    3   38 1   
    14    4    5 1   
    15    4    9 1   
    16    4   13 1   
    17    4   39 1   
    18    4   42 1   
    19    5    6 1   
    20    5   14 1   
    21    5   39 1   
    22    6    7 1   
    23    6   10 1   
    24    6   12 1   
    25    6   45 1   
    26    7    8 1   
    27    7   15 1   
    28    7   40 1   
    29    7   41 1   
    30    7   51 1   
    31    8   13 1   
    32    8   17 1   
    33    8   41 1   
    34    9   42 1   
    35    9   43 1   
    36    9   44 1   
    37   10   45 1   
    38   10   46 1   
    39   10   47 1   
    40   11   48 1   
    41   11   49 1   
    42   11   50 1   
    43   11   65 1   
    44   14   65 1   
    45   15   51 1   
    46   16   65 1   
    47   17   18 1   
    48   17   52 1   
    49   17   53 1   
    50   18   19 1   
    51   18   53 1   
    52   18   54 1   
    53   19   20 1   
    54   19   54 1   
    55   19   55 1   
    56   20   21 1   
    57   20   55 1   
    58   20   56 1   
    59   21   22 1   
    60   21   56 1   
    61   21   57 1   
    62   22   23 1   
    63   22   57 1   
    64   23   24 1   
    65   23   30 1   
    66   24   25 1   
    67   24   28 1   
    68   24   59 1   
    69   25   26 1   
    70   25   31 1   
    71   26   27 1   
    72   26   58 1   
    73   27   30 1   
    74   27   32 1   
    75   27   58 1   
    76   28   59 1   
    77   28   60 1   
    78   28   61 1   
    79   29   31 1   
    80   29   62 1   
    81   29   63 1   
    82   29   64 1   
    83   48   65 1   
@<TRIPOS>SUBSTRUCTURE
     1 AUR         1 TEMP              0 ****  ****    0 ROOT
