@<TRIPOS>MOLECULE
AV1
   56    54     1     0     0
SMALL
bcc


@<TRIPOS>ATOM
      1 BR1        -1.5560   -4.7510    3.2440 br        1 AV1      0.253000
      2 O3         -2.4840    3.0170    0.4750 os        1 AV1     -1.287000
      3 PA         -2.9930    1.8150    1.3670 p5        1 AV1      2.072000
      4 PN         -3.2050    3.4920   -0.8490 p5        1 AV1      2.079000
      5 C1'         1.4140   -2.2690    2.5980 c3        1 AV1      0.126000
      6 N1A         4.1310   -5.7400    5.2380 n1        1 AV1     -0.278000
      7 O1A        -3.6330    0.7700    0.4860 o         1 AV1     -0.879000
      8 C1D         0.5400    3.4280   -5.2120 c3        1 AV1     -0.048000
      9 O1N        -4.3040    4.4670   -0.5020 o         1 AV1     -0.878500
     10 C2'         1.2960   -2.3990    1.2860 c3        1 AV1     -0.001000
     11 O2'         2.6260   -2.4110    0.6530 oh        1 AV1     -0.335000
     12 C2A         4.6060   -4.6180    4.6200 c1        1 AV1     -0.007000
     13 O2A        -4.0070    2.3220    2.3650 o         1 AV1     -0.879000
     14 C2D        -0.3260    3.8000   -6.1650 c3        1 AV1     -0.004000
     15 O2D         0.3660    4.5760   -7.2100 oh        1 AV1     -0.346000
     16 O2N        -3.7980    2.2960   -1.5560 o         1 AV1     -0.878500
     17 C3'         0.4970   -1.1570    0.8310 c3        1 AV1     -0.026000
     18 O3'         1.2930   -0.3050    0.1960 oh        1 AV1     -0.369000
     19 N3A         3.7580   -3.8140    3.9170 n1        1 AV1     -0.179000
     20 C3D        -1.3490    4.6740   -5.4480 c3        1 AV1      0.007000
     21 O3D        -1.1760    5.9670   -5.7840 oh        1 AV1     -0.387000
     22 C4'        -0.0640   -0.5000    2.1570 c3        1 AV1     -0.019000
     23 O4'         0.1350   -1.3840    3.0850 os        1 AV1     -0.286000
     24 C4A         2.4350   -4.1290    3.8300 c1        1 AV1      0.062000
     25 C4D        -1.0780    4.4700   -3.9170 c3        1 AV1     -0.032000
     26 O4D        -0.2660    3.4490   -3.8450 os        1 AV1     -0.289000
     27 C5'        -1.5470   -0.2100    2.0150 c3        1 AV1      0.047000
     28 O5'        -1.7690    1.1760    2.1380 os        1 AV1     -0.742000
     29 C5A         1.9640   -5.2370    4.4390 c1        1 AV1     -0.220000
     30 C5D        -2.3770    4.1620   -3.1890 c3        1 AV1      0.045000
     31 O5D        -2.1550    4.1970   -1.7980 os        1 AV1     -0.761000
     32 C6A         2.8280   -6.0530    5.1530 c1        1 AV1      0.195000
     33 N6A         2.6900   -7.3130    5.7900 n3        1 AV1     -0.336000
     34 N7A         0.6280   -5.3140    4.1960 n1        1 AV1     -0.133000
     35 C8A         0.2790   -4.2520    3.4360 c2        1 AV1     -0.097000
     36 N9A         1.3910   -3.5170    3.2070 n2        1 AV1     -0.139000
     37 H1'         2.2480   -1.8030    2.8160 h2        1 AV1      0.136000
     38 H1D         0.8720    2.5250   -5.3940 h1        1 AV1      0.068500
     39 H1DA        1.2870    4.0610   -5.1720 h1        1 AV1      0.068500
     40 H2'         0.8070   -3.2170    1.0680 h1        1 AV1      0.137000
     41 HO2'        2.6270   -2.9870   -0.0240 ho        1 AV1      0.228000
     42 H2A         5.5530   -4.3900    4.6860 ha        1 AV1      0.172000
     43 H2D        -0.7620    3.0160   -6.5540 h1        1 AV1      0.101000
     44 HO2D        0.3830    4.1070   -7.9650 ho        1 AV1      0.222000
     45 H3'        -0.2420   -1.4250    0.2490 h1        1 AV1      0.190000
     46 HO3'        1.0240   -0.2190   -0.6470 ho        1 AV1      0.267000
     47 H3D        -2.2550    4.3850   -5.6720 h1        1 AV1      0.137000
     48 HO3D       -1.7430    6.1820   -6.4340 ho        1 AV1      0.284000
     49 H4'         0.4250    0.3220    2.3620 h1        1 AV1      0.116000
     50 H4D        -0.6560    5.2660   -3.5380 h1        1 AV1      0.107000
     51 H5'        -1.8560   -0.5130    1.1360 h1        1 AV1      0.066500
     52 H5'A       -2.0410   -0.6830    2.7160 h1        1 AV1      0.066500
     53 H5D        -3.0520    4.8310   -3.4280 h1        1 AV1      0.077500
     54 H5DA       -2.6930    3.2720   -3.4470 h1        1 AV1      0.077500
     55 HN6A        2.4640   -8.0500    5.2990 hn        1 AV1      0.212500
     56 HN6B        2.8180   -7.3860    6.6920 hn        1 AV1      0.212500
@<TRIPOS>BOND
     1    1   35 1   
     2    2    3 1   
     3    2    4 1   
     4    3    7 1   
     5    3   13 1   
     6    3   28 1   
     7    4    9 1   
     8    4   16 1   
     9    4   31 1   
    10    5   10 1   
    11    5   23 1   
    12    5   36 1   
    13    5   37 1   
    14    6   12 1   
    15    8   14 1   
    16    8   26 1   
    17    8   38 1   
    18    8   39 1   
    19   10   11 1   
    20   10   17 1   
    21   10   40 1   
    22   11   41 1   
    23   12   42 1   
    24   14   15 1   
    25   14   20 1   
    26   14   43 1   
    27   15   44 1   
    28   17   18 1   
    29   17   22 1   
    30   17   45 1   
    31   18   46 1   
    32   19   24 1   
    33   20   21 1   
    34   20   25 1   
    35   20   47 1   
    36   21   48 1   
    37   22   23 1   
    38   22   27 1   
    39   22   49 1   
    40   25   26 1   
    41   25   30 1   
    42   25   50 1   
    43   27   28 1   
    44   27   51 1   
    45   27   52 1   
    46   29   32 1   
    47   30   31 1   
    48   30   53 1   
    49   30   54 1   
    50   32   33 1   
    51   33   55 1   
    52   33   56 1   
    53   34   35 1   
    54   35   36 1   
@<TRIPOS>SUBSTRUCTURE
     1 AV1         1 TEMP              0 ****  ****    0 ROOT
