@<TRIPOS>MOLECULE
AV1
   56    60     1     0     0
SMALL
bcc


@<TRIPOS>ATOM
      1 Br1         0.4020    2.4960   -0.3960 br        1 AV1      0.348000
      2 O3         -1.7040    4.1060   -3.3810 os        1 AV1     -1.297000
      3 PA         -1.5820    3.4290   -4.8900 p5        1 AV1      2.069000
      4 PN         -1.8640    4.6080   -1.8760 p5        1 AV1      2.806000
      5 C1'         1.9070   -0.1210   -2.1220 c3        1 AV1      0.132000
      6 N1A         5.7480   -0.6410    1.4040 n2        1 AV1     -0.272000
      7 O1A        -1.9180    4.4460   -5.8940 o         1 AV1     -0.864000
      8 C1D        -2.6940   10.2520   -2.4980 c3        1 AV1     -0.049000
      9 O1N        -1.2010    3.6110   -0.9570 os        1 AV1     -1.155000
     10 C2'         0.4000   -0.5390   -2.1180 c3        1 AV1      0.001000
     11 O2'         0.3090   -1.9190   -2.3960 oh        1 AV1     -0.331000
     12 C2A         5.4760   -1.2780    0.2310 c2        1 AV1     -0.033000
     13 O2A        -2.1620    2.0750   -4.7780 o         1 AV1     -0.864000
     14 C2D        -4.0010    9.4510   -2.3920 c3        1 AV1     -0.001000
     15 O2D        -4.9020   10.0740   -1.4990 oh        1 AV1     -0.342000
     16 O2N        -3.2120    5.1260   -1.5840 o         1 AV1     -1.210000
     17 C3'        -0.2680    0.3720   -3.1670 c3        1 AV1      0.000000
     18 O3'        -0.9300   -0.4410   -4.1150 oh        1 AV1     -0.384000
     19 N3A         4.4550   -1.1120   -0.6370 n2        1 AV1     -0.188000
     20 C3D        -3.5650    8.0240   -1.9880 c3        1 AV1      0.003000
     21 O3D        -4.1710    7.6980   -0.7550 oh        1 AV1     -0.380000
     22 C4'         0.8750    1.1620   -3.8350 c3        1 AV1     -0.030000
     23 O4'         2.1070    0.8410   -3.1630 os        1 AV1     -0.281000
     24 C4A         3.5770   -0.1370   -0.2510 c2        1 AV1      0.035000
     25 C4D        -2.0290    8.0860   -1.8480 c3        1 AV1     -0.035000
     26 O4D        -1.5870    9.3780   -2.3060 os        1 AV1     -0.288000
     27 C5'         0.6890    2.6890   -3.8090 c3        1 AV1      0.036000
     28 O5'         0.0460    3.1560   -4.9500 os        1 AV1     -0.754000
     29 C5A         3.7340    0.6250    0.9890 c2        1 AV1     -0.192000
     30 C5D        -1.2940    7.0150   -2.6750 c3        1 AV1      0.047000
     31 O5D        -0.9030    5.9420   -1.8760 os        1 AV1     -0.756000
     32 C6A         4.8560    0.3170    1.8130 c2        1 AV1      0.153000
     33 N6A         5.0010    0.9460    3.0560 nv        1 AV1     -0.320000
     34 N7A         2.6980    1.5570    1.1010 n2        1 AV1     -0.174000
     35 C8A         1.9310    1.4000    0.0020 c2        1 AV1     -0.168000
     36 N9A         2.4080    0.3620   -0.8500 na        1 AV1     -0.168000
     37 H1'         2.5410   -1.0160   -2.4120 h2        1 AV1      0.130000
     38 H2'        -0.0750   -0.4120   -1.1090 h1        1 AV1      0.137000
     39 HO2'        0.2580   -2.0290   -3.3540 ho        1 AV1      0.218000
     40 H2A         6.2160   -2.0530   -0.0530 h5        1 AV1      0.161000
     41 H2D        -4.5410    9.4350   -3.3770 h1        1 AV1      0.106000
     42 HO2D       -4.7330    9.7250   -0.6140 ho        1 AV1      0.222000
     43 H3'        -1.0010    1.0580   -2.6610 h1        1 AV1      0.144000
     44 HO3'       -1.5930    0.1300   -4.5480 ho        1 AV1      0.283000
     45 H3D        -3.8710    7.2820   -2.7740 h1        1 AV1      0.131000
     46 HO3D       -4.1350    6.7260   -0.6830 ho        1 AV1      0.282000
     47 H4'         1.0080    0.8200   -4.8990 h1        1 AV1      0.109000
     48 H4D        -1.7350    8.0030   -0.7660 h1        1 AV1      0.112000
     49 H5'         1.7120    3.1590   -3.7810 h1        1 AV1      0.083500
     50 H5'A        0.1150    2.9980   -2.8890 h1        1 AV1      0.083500
     51 H5D        -1.9460    6.6520   -3.5160 h1        1 AV1      0.085000
     52 H5DA       -0.3590    7.4770   -3.1000 h1        1 AV1      0.085000
     53 HN6A        5.9300    0.9920    3.4080 hn        1 AV1      0.195500
     54 HN6B        4.4940    1.8010    3.1270 hn        1 AV1      0.195500
     55 H1D        -2.5670   10.7110   -3.5100 h1        1 AV1      0.072000
     56 H1DA       -2.6480   11.0500   -1.7120 h1        1 AV1      0.072000
@<TRIPOS>BOND
     1    1    9 1   
     2    1   35 1   
     3    2    3 1   
     4    2    4 1   
     5    3    7 1   
     6    3   13 1   
     7    3   28 1   
     8    4    9 1   
     9    4   16 1   
    10    4   31 1   
    11    5   10 1   
    12    5   23 1   
    13    5   36 1   
    14    5   37 1   
    15    6   12 1   
    16    6   32 1   
    17    8   14 1   
    18    8   26 1   
    19    8   55 1   
    20    8   56 1   
    21   10   11 1   
    22   10   17 1   
    23   10   38 1   
    24   11   39 1   
    25   12   19 1   
    26   12   40 1   
    27   14   15 1   
    28   14   20 1   
    29   14   41 1   
    30   15   42 1   
    31   17   18 1   
    32   17   22 1   
    33   17   43 1   
    34   18   44 1   
    35   19   24 1   
    36   20   21 1   
    37   20   25 1   
    38   20   45 1   
    39   21   46 1   
    40   22   23 1   
    41   22   27 1   
    42   22   47 1   
    43   24   29 1   
    44   24   36 1   
    45   25   26 1   
    46   25   30 1   
    47   25   48 1   
    48   27   28 1   
    49   27   49 1   
    50   27   50 1   
    51   29   32 1   
    52   29   34 1   
    53   30   31 1   
    54   30   51 1   
    55   30   52 1   
    56   32   33 1   
    57   33   53 1   
    58   33   54 1   
    59   34   35 1   
    60   35   36 1   
@<TRIPOS>SUBSTRUCTURE
     1 AV1         1 TEMP              0 ****  ****    0 ROOT
