@<TRIPOS>MOLECULE
AV1
   57    61     1     0     0
SMALL
bcc


@<TRIPOS>ATOM
      1 BR1        -1.4200    1.6210   -1.1040 br        1 AV1      0.363000
      2 O3         -2.4070    3.6420   -3.8890 os        1 AV1     -1.268000
      3 PA         -2.9850    2.1660   -3.8570 p5        1 AV1      2.798000
      4 PN         -1.8290    5.1820   -3.8920 p5        1 AV1      2.090000
      5 C1'         1.4310    0.1700   -2.2550 c3        1 AV1      0.126000
      6 N1A         4.3890    4.0770   -0.4810 n2        1 AV1     -0.178000
      7 O1A        -4.2160    1.9230   -4.5970 o         1 AV1     -1.144000
      8 C1D         0.0640    8.3370    0.4920 c3        1 AV1     -0.045000
      9 O1N        -1.2590    5.5190   -5.1970 o         1 AV1     -0.863000
     10 C2'         0.7750   -1.1860   -1.8440 c3        1 AV1      0.015000
     11 O2'         1.7300   -2.0950   -1.3640 oh        1 AV1     -0.306000
     12 C2A         4.7220    2.9290   -1.1030 c2        1 AV1     -0.045000
     13 O2A        -2.9290    1.6880   -2.3840 os        1 AV1     -1.088000
     14 C2D        -1.3810    8.6620    0.0820 c3        1 AV1      0.005000
     15 O2D        -2.1960    8.7820    1.2260 oh        1 AV1     -0.337000
     16 O2N        -2.7560    6.0330   -3.1170 o         1 AV1     -0.863000
     17 C3'         0.0640   -1.6400   -3.1370 c3        1 AV1     -0.038000
     18 O3'         0.8980   -2.6040   -3.7640 oh        1 AV1     -0.343000
     19 N3A         3.9280    1.8600   -1.4430 n2        1 AV1     -0.134000
     20 C3D        -1.7820    7.5440   -0.9070 c3        1 AV1      0.017000
     21 O3D        -2.9530    6.9190   -0.4340 oh        1 AV1     -0.371000
     22 C4'        -0.0840   -0.3630   -3.9910 c3        1 AV1     -0.015000
     23 O4'         0.7000    0.6750   -3.3890 os        1 AV1     -0.232000
     24 C4A         2.6540    1.9730   -1.0380 c2        1 AV1      0.057000
     25 C4D        -0.6010    6.5520   -0.9190 c3        1 AV1     -0.045000
     26 O4D         0.4700    7.1200   -0.1320 os        1 AV1     -0.378000
     27 C5'        -1.5700    0.0020   -4.1460 c3        1 AV1      0.047000
     28 O5'        -1.7530    1.3120   -4.5530 os        1 AV1     -0.730000
     29 C5A         2.1680    3.1350   -0.2290 c2        1 AV1     -0.052000
     30 C5D        -0.0610    6.2580   -2.3330 c3        1 AV1      0.071000
     31 O5D        -0.5460    5.0560   -2.8160 os        1 AV1     -0.737000
     32 C6A         3.0810    4.1850   -0.0770 c2        1 AV1     -0.105000
     33 N6A         2.5720    5.4680    0.4180 n4        1 AV1      0.011000
     34 N7A         0.8380    2.9700    0.0960 n2        1 AV1     -0.221000
     35 C8A         0.4310    1.8460   -0.5570 c2        1 AV1     -0.082000
     36 N9A         1.5070    1.1640   -1.2050 na        1 AV1     -0.175000
     37 H1'         2.4890   -0.0280   -2.6110 h2        1 AV1      0.123000
     38 H2'         0.0360   -1.0630   -1.0070 h1        1 AV1      0.152000
     39 HO2'        2.2890   -2.3650   -2.1060 ho        1 AV1      0.217000
     40 H2A         5.7830    2.8420   -1.4150 h5        1 AV1      0.194000
     41 HO2D       -2.6710    7.9500    1.3550 ho        1 AV1      0.233000
     42 H3'        -0.9290   -2.1080   -2.9050 h1        1 AV1      0.110000
     43 HO3'        0.5280   -2.7640   -4.6400 ho        1 AV1      0.214000
     44 H3D        -1.9620    7.9730   -1.9300 h1        1 AV1      0.135000
     45 HO3D       -3.3430    6.4510   -1.1990 ho        1 AV1      0.293000
     46 H4'         0.3660   -0.5030   -5.0140 h1        1 AV1      0.104000
     47 H4D        -0.8920    5.5880   -0.4160 h1        1 AV1      0.138000
     48 H5'        -2.1210   -0.2020   -3.1850 h1        1 AV1      0.068000
     49 H5'A       -1.9660   -0.6940   -4.9460 h1        1 AV1      0.068000
     50 H5D        -0.3200    7.1000   -3.0330 h1        1 AV1      0.048500
     51 H5DA        1.0640    6.1800   -2.2660 h1        1 AV1      0.048500
     52 HN6A        2.3170    6.0580   -0.3950 hn        1 AV1      0.265000
     53 HN6B        1.7050    5.3120    0.9530 hn        1 AV1      0.265000
     54 H1D         0.1460    8.1910    1.6000 h1        1 AV1      0.075000
     55 H1DA        0.7770    9.1310    0.1550 h1        1 AV1      0.075000
     56 H6A3        3.2620    5.9520    0.9910 hn        1 AV1      0.265000
     57 H2D        -1.4290    9.6680   -0.4180 h1        1 AV1      0.107000
@<TRIPOS>BOND
     1    1   13 1   
     2    1   35 1   
     3    2    3 1   
     4    2    4 1   
     5    3    7 1   
     6    3   13 1   
     7    3   28 1   
     8    4    9 1   
     9    4   16 1   
    10    4   31 1   
    11    5   10 1   
    12    5   23 1   
    13    5   36 1   
    14    5   37 1   
    15    6   12 1   
    16    6   32 1   
    17    8   14 1   
    18    8   26 1   
    19    8   54 1   
    20    8   55 1   
    21   10   11 1   
    22   10   17 1   
    23   10   38 1   
    24   11   39 1   
    25   12   19 1   
    26   12   40 1   
    27   14   15 1   
    28   14   20 1   
    29   14   57 1   
    30   15   41 1   
    31   17   18 1   
    32   17   22 1   
    33   17   42 1   
    34   18   43 1   
    35   19   24 1   
    36   20   21 1   
    37   20   25 1   
    38   20   44 1   
    39   21   45 1   
    40   22   23 1   
    41   22   27 1   
    42   22   46 1   
    43   24   29 1   
    44   24   36 1   
    45   25   26 1   
    46   25   30 1   
    47   25   47 1   
    48   27   28 1   
    49   27   48 1   
    50   27   49 1   
    51   29   32 1   
    52   29   34 1   
    53   30   31 1   
    54   30   50 1   
    55   30   51 1   
    56   32   33 1   
    57   33   52 1   
    58   33   53 1   
    59   33   56 1   
    60   34   35 1   
    61   35   36 1   
@<TRIPOS>SUBSTRUCTURE
     1 AV1         1 TEMP              0 ****  ****    0 ROOT
