@<TRIPOS>MOLECULE
AV1
   56    60     1     0     0
SMALL
bcc


@<TRIPOS>ATOM
      1 BR1         0.5120    2.6200   -0.3470 br        1 AV1      0.353000
      2 O3         -1.7580    4.1480   -3.1120 os        1 AV1     -1.297000
      3 PA         -1.8100    3.4020   -4.5960 p5        1 AV1      2.058000
      4 PN         -1.8250    4.7540   -1.6430 p5        1 AV1      2.809000
      5 C1'         1.9790    0.0790   -2.2780 c3        1 AV1      0.130000
      6 N1A         5.6290   -0.9540    1.3210 n2        1 AV1     -0.271000
      7 O1A        -2.3030    4.3730   -5.5810 o         1 AV1     -0.854000
      8 C1D        -2.9270   10.3090   -2.5610 c3        1 AV1     -0.049000
      9 O1N        -1.0510    3.8490   -0.7110 os        1 AV1     -1.149000
     10 C2'         0.4600   -0.2520   -2.4320 c3        1 AV1     -0.044000
     11 O2'         0.2490   -1.6490   -2.3820 oh        1 AV1     -0.326000
     12 C2A         5.3400   -1.5060    0.1080 c2        1 AV1     -0.034000
     13 O2A        -2.3450    2.0500   -4.3540 o         1 AV1     -0.854000
     14 C2D        -4.1890    9.4740   -2.2940 c3        1 AV1     -0.001000
     15 O2D        -5.0370   10.1270   -1.3720 oh        1 AV1     -0.342000
     16 O2N        -3.1640    5.2450   -1.2700 o         1 AV1     -1.211000
     17 C3'         0.1230    0.2580   -3.8500 c3        1 AV1     -0.018000
     18 O3'         0.3260   -0.7570   -4.8200 oh        1 AV1     -0.330000
     19 N3A         4.3540   -1.2180   -0.7690 n2        1 AV1     -0.189000
     20 C3D        -3.6660    8.0940   -1.8350 c3        1 AV1      0.003000
     21 O3D        -4.1630    7.8300   -0.5400 oh        1 AV1     -0.381000
     22 C4'         1.1650    1.3610   -4.0980 c3        1 AV1      0.005000
     23 O4'         2.2800    1.1320   -3.2080 os        1 AV1     -0.281000
     24 C4A         3.5400   -0.2040   -0.3470 c2        1 AV1      0.027000
     25 C4D        -2.1280    8.2190   -1.8210 c3        1 AV1     -0.035000
     26 O4D        -1.7730    9.4920   -2.3910 os        1 AV1     -0.288000
     27 C5'         0.6040    2.7640   -3.8230 c3        1 AV1      0.031000
     28 O5'        -0.1910    3.2090   -4.8710 os        1 AV1     -0.747000
     29 C5A         3.7180    0.4720    0.9360 c2        1 AV1     -0.189000
     30 C5D        -1.4170    7.1210   -2.6350 c3        1 AV1      0.046000
     31 O5D        -0.9210    6.1190   -1.8020 os        1 AV1     -0.756000
     32 C6A         4.7960    0.0400    1.7650 c2        1 AV1      0.152000
     33 N6A         4.9520    0.5850    3.0460 nh        1 AV1     -0.320000
     34 N7A         2.7440    1.4640    1.0830 n2        1 AV1     -0.176000
     35 C8A         1.9920    1.4230   -0.0360 c2        1 AV1     -0.167000
     36 N9A         2.4140    0.4010   -0.9370 na        1 AV1     -0.174000
     37 H1'         2.5780   -0.8200   -2.6240 h2        1 AV1      0.129000
     38 H2'        -0.1720    0.2750   -1.6680 h1        1 AV1      0.131000
     39 HO2'        0.4040   -1.9110   -1.4670 ho        1 AV1      0.199000
     40 H2A         6.0310   -2.3140   -0.2050 h5        1 AV1      0.162000
     41 H2D        -4.8050    9.3730   -3.2280 h1        1 AV1      0.106000
     42 HO2D       -4.7870    9.8420   -0.4830 ho        1 AV1      0.222000
     43 H3'        -0.9320    0.6640   -3.9150 h1        1 AV1      0.202000
     44 HO3'       -0.3410   -1.4300   -4.6380 ho        1 AV1      0.203000
     45 H3D        -4.0020    7.2900   -2.5450 h1        1 AV1      0.132000
     46 HO3D       -4.0800    6.8670   -0.4080 ho        1 AV1      0.283000
     47 H4'         1.5870    1.2950   -5.1360 h1        1 AV1      0.120000
     48 H4D        -1.7480    8.2170   -0.7630 h1        1 AV1      0.111000
     49 H5'         1.4800    3.4660   -3.7170 h1        1 AV1      0.081500
     50 H5'A        0.0210    2.7510   -2.8590 h1        1 AV1      0.081500
     51 H5D        -0.5370    7.5870   -3.1610 h1        1 AV1      0.085500
     52 H5DA       -2.1160    6.6810   -3.3970 h1        1 AV1      0.085500
     53 HN6A        4.5020    1.4680    3.1570 hn        1 AV1      0.196500
     54 HN6B        5.8720    0.5440    3.4210 hn        1 AV1      0.196500
     55 H1D        -2.8540   11.1660   -1.8420 h1        1 AV1      0.071500
     56 H1DA       -2.8960   10.6930   -3.6120 h1        1 AV1      0.071500
@<TRIPOS>BOND
     1    1    9 1   
     2    1   35 1   
     3    2    3 1   
     4    2    4 1   
     5    3    7 1   
     6    3   13 1   
     7    3   28 1   
     8    4    9 1   
     9    4   16 1   
    10    4   31 1   
    11    5   10 1   
    12    5   23 1   
    13    5   36 1   
    14    5   37 1   
    15    6   12 1   
    16    6   32 1   
    17    8   14 1   
    18    8   26 1   
    19    8   55 1   
    20    8   56 1   
    21   10   11 1   
    22   10   17 1   
    23   10   38 1   
    24   11   39 1   
    25   12   19 1   
    26   12   40 1   
    27   14   15 1   
    28   14   20 1   
    29   14   41 1   
    30   15   42 1   
    31   17   18 1   
    32   17   22 1   
    33   17   43 1   
    34   18   44 1   
    35   19   24 1   
    36   20   21 1   
    37   20   25 1   
    38   20   45 1   
    39   21   46 1   
    40   22   23 1   
    41   22   27 1   
    42   22   47 1   
    43   24   29 1   
    44   24   36 1   
    45   25   26 1   
    46   25   30 1   
    47   25   48 1   
    48   27   28 1   
    49   27   49 1   
    50   27   50 1   
    51   29   32 1   
    52   29   34 1   
    53   30   31 1   
    54   30   51 1   
    55   30   52 1   
    56   32   33 1   
    57   33   53 1   
    58   33   54 1   
    59   34   35 1   
    60   35   36 1   
@<TRIPOS>SUBSTRUCTURE
     1 AV1         1 TEMP              0 ****  ****    0 ROOT
