@<TRIPOS>MOLECULE
AV1
   56    60     1     0     0
SMALL
bcc


@<TRIPOS>ATOM
      1 BR1        -1.0940   -0.6200    1.1090 br        1 AV1      0.346000
      2 O3          2.6160    1.6150    0.6140 os        1 AV1     -1.268000
      3 PA          1.1600    1.8190    1.2150 p5        1 AV1      2.802000
      4 PN          4.1370    1.4760    0.0200 p5        1 AV1      2.092000
      5 C1'        -3.3670    0.4690   -1.3320 c3        1 AV1      0.179000
      6 N1A        -6.3080   -3.8120   -0.9990 n2        1 AV1     -0.268000
      7 O1A         1.0670    2.9180    2.1790 o         1 AV1     -1.185000
      8 C1D         7.3150   -3.0980   -1.3850 c3        1 AV1     -0.049000
      9 O1N         5.0310    0.9310    1.0660 o         1 AV1     -0.877000
     10 C2'        -4.2490    1.6280   -0.7630 c3        1 AV1     -0.049000
     11 O2'        -5.3450    1.7780   -1.6470 oh        1 AV1     -0.316000
     12 C2A        -6.3490   -2.7100   -1.7990 c2        1 AV1     -0.038000
     13 O2A         0.5310    0.4810    1.5940 os        1 AV1     -1.137000
     14 C2D         7.8050   -2.3490   -0.1350 c3        1 AV1     -0.001000
     15 O2D         8.1330   -3.2540    0.8980 oh        1 AV1     -0.344000
     16 O2N         4.4770    2.6390   -0.8080 o         1 AV1     -0.877000
     17 C3'        -3.3420    2.8750   -0.7870 c3        1 AV1     -0.037000
     18 O3'        -3.7940    3.7920   -1.7650 oh        1 AV1     -0.334000
     19 N3A        -5.5480   -1.6220   -1.8300 n2        1 AV1     -0.181000
     20 C3D         6.6710   -1.3520    0.2010 c3        1 AV1      0.008000
     21 O3D         6.1900   -1.6410    1.4940 oh        1 AV1     -0.381000
     22 C4'        -1.9240    2.3470   -1.0660 c3        1 AV1     -0.010000
     23 O4'        -2.0210    0.9560   -1.4120 os        1 AV1     -0.231000
     24 C4A        -4.5460   -1.6710   -0.9010 c2        1 AV1      0.020000
     25 C4D         5.5840   -1.5930   -0.8680 c3        1 AV1     -0.041000
     26 O4D         6.1390   -2.4640   -1.8740 os        1 AV1     -0.291000
     27 C5'        -1.0230    2.6170    0.1460 c3        1 AV1      0.044000
     28 O5'         0.2960    2.2830   -0.1230 os        1 AV1     -0.732000
     29 C5A        -4.3750   -2.7880    0.0260 c2        1 AV1     -0.183000
     30 C5D         5.1060   -0.3120   -1.5770 c3        1 AV1      0.062000
     31 O5D         3.9410    0.1750   -1.0010 os        1 AV1     -0.739000
     32 C6A        -5.3180   -3.8560   -0.0510 c2        1 AV1      0.149000
     33 N6A        -5.2630   -4.9020    0.8790 nh        1 AV1     -0.319000
     34 N7A        -3.2470   -2.5700    0.8220 n2        1 AV1     -0.183000
     35 C8A        -2.7280   -1.3890    0.4300 c2        1 AV1     -0.155000
     36 N9A        -3.4940   -0.7810   -0.6110 na        1 AV1     -0.183000
     37 H1'        -3.6800    0.2610   -2.4040 h2        1 AV1      0.129000
     38 H2'        -4.6210    1.4160    0.2730 h1        1 AV1      0.109000
     39 HO2'       -5.7280    2.6470   -1.4620 ho        1 AV1      0.202000
     40 H2A        -7.1700   -2.7120   -2.5440 h5        1 AV1      0.162000
     41 H2D         8.7620   -1.8010   -0.3500 h1        1 AV1      0.095000
     42 HO2D        7.3400   -3.3970    1.4310 ho        1 AV1      0.227000
     43 H3'        -3.3960    3.4470    0.1770 h1        1 AV1      0.135000
     44 HO3'       -3.7050    3.3580   -2.6240 ho        1 AV1      0.208000
     45 H3D         7.0550   -0.2970    0.1620 h1        1 AV1      0.118000
     46 HO3D        5.6590   -0.8680    1.7700 ho        1 AV1      0.291000
     47 H4'        -1.4670    2.8320   -1.9740 h1        1 AV1      0.120000
     48 H4D         4.7030   -2.1210   -0.4110 h1        1 AV1      0.122000
     49 H5'        -1.0890    3.7280    0.3490 h1        1 AV1      0.067500
     50 H5'A       -1.4000    2.0570    1.0450 h1        1 AV1      0.067500
     51 H5D         5.9130    0.4720   -1.5520 h1        1 AV1      0.061000
     52 H5DA        4.8810   -0.5730   -2.6500 h1        1 AV1      0.061000
     53 HN6A       -5.6620   -5.7630    0.5800 hn        1 AV1      0.196000
     54 HN6B       -4.3710   -4.9950    1.3150 hn        1 AV1      0.196000
     55 H1D         8.0620   -3.0650   -2.2170 h1        1 AV1      0.069000
     56 H1DA        7.0700   -4.1640   -1.1400 h1        1 AV1      0.069000
@<TRIPOS>BOND
     1    1   13 1   
     2    1   35 1   
     3    2    3 1   
     4    2    4 1   
     5    3    7 1   
     6    3   13 1   
     7    3   28 1   
     8    4    9 1   
     9    4   16 1   
    10    4   31 1   
    11    5   10 1   
    12    5   23 1   
    13    5   36 1   
    14    5   37 1   
    15    6   12 1   
    16    6   32 1   
    17    8   14 1   
    18    8   26 1   
    19    8   55 1   
    20    8   56 1   
    21   10   11 1   
    22   10   17 1   
    23   10   38 1   
    24   11   39 1   
    25   12   19 1   
    26   12   40 1   
    27   14   15 1   
    28   14   20 1   
    29   14   41 1   
    30   15   42 1   
    31   17   18 1   
    32   17   22 1   
    33   17   43 1   
    34   18   44 1   
    35   19   24 1   
    36   20   21 1   
    37   20   25 1   
    38   20   45 1   
    39   21   46 1   
    40   22   23 1   
    41   22   27 1   
    42   22   47 1   
    43   24   29 1   
    44   24   36 1   
    45   25   26 1   
    46   25   30 1   
    47   25   48 1   
    48   27   28 1   
    49   27   49 1   
    50   27   50 1   
    51   29   32 1   
    52   29   34 1   
    53   30   31 1   
    54   30   51 1   
    55   30   52 1   
    56   32   33 1   
    57   33   53 1   
    58   33   54 1   
    59   34   35 1   
    60   35   36 1   
@<TRIPOS>SUBSTRUCTURE
     1 AV1         1 TEMP              0 ****  ****    0 ROOT
