@<TRIPOS>MOLECULE
AV6
   35    38     1     0     0
SMALL
bcc


@<TRIPOS>ATOM
      1 C1         -0.1570   -0.1310    0.2140 ca        1 AV6     -0.099000
      2 C2          1.2090    0.0670    0.6140 ca        1 AV6      0.140100
      3 C3          1.5450   -0.0540    1.9590 ca        1 AV6     -0.186500
      4 C4          0.5480   -0.3320    2.9170 ca        1 AV6     -0.091500
      5 C5         -0.7660   -0.4910    2.5510 ca        1 AV6     -0.156500
      6 C6         -1.1470   -0.3980    1.1850 ca        1 AV6      0.012000
      7 C7         -2.4930   -0.5840    0.7710 ca        1 AV6     -0.156500
      8 C8         -2.8240   -0.5170   -0.5590 ca        1 AV6     -0.091500
      9 C9         -1.8470   -0.2650   -1.5440 ca        1 AV6     -0.186500
     10 C10        -0.5160   -0.0840   -1.1800 ca        1 AV6      0.140100
     11 N11         0.5050    0.0510   -2.1380 nh        1 AV6     -0.720600
     12 C12         1.7460    0.7160   -1.7050 c3        1 AV6      0.497000
     13 N13         2.1880    0.4270   -0.3380 nh        1 AV6     -0.720600
     14 C15         1.6880    2.2250   -1.9370 ca        1 AV6     -0.123300
     15 C16         2.3530    2.7490   -3.0490 ca        1 AV6     -0.127000
     16 C17         2.3080    4.1260   -3.2940 ca        1 AV6      0.105100
     17 C18         1.5970    4.9720   -2.4160 ca        1 AV6      0.048100
     18 C19         0.9390    4.4390   -1.3040 ca        1 AV6     -0.174000
     19 C20         0.9870    3.0660   -1.0700 ca        1 AV6     -0.092000
     20 O21         1.5990    6.3160   -2.7290 oh        1 AV6     -0.516100
     21 O22         2.9710    4.5910   -4.4050 oh        1 AV6     -0.496100
     22 H3          2.5850    0.0720    2.2950 ha        1 AV6      0.136500
     23 H4          0.8460   -0.4150    3.9740 ha        1 AV6      0.131500
     24 H5         -1.5420   -0.7000    3.3020 ha        1 AV6      0.134000
     25 H7         -3.2570   -0.7850    1.5360 ha        1 AV6      0.134000
     26 H8         -3.8670   -0.6610   -0.8820 ha        1 AV6      0.131500
     27 H9         -2.1540   -0.2250   -2.5990 ha        1 AV6      0.136500
     28 H16         2.9170    2.1040   -3.7390 ha        1 AV6      0.152000
     29 H19         0.3890    5.0990   -0.6200 ha        1 AV6      0.139000
     30 H20         0.4730    2.6440   -0.1920 ha        1 AV6      0.154000
     31 HO21        1.1180    6.7830   -2.0310 ho        1 AV6      0.431000
     32 HO22        2.8750    5.5560   -4.4280 ho        1 AV6      0.438000
     33 HN11        0.1810    0.4170   -3.0120 hn        1 AV6      0.404300
     34 HN13        2.9730   -0.1940   -0.3230 hn        1 AV6      0.404300
     35 H12         2.5430    0.3010   -2.4080 h2        1 AV6      0.066700
@<TRIPOS>BOND
     1    1    2 ar  
     2    1    6 ar  
     3    1   10 ar  
     4    2    3 ar  
     5    2   13 1   
     6    3    4 ar  
     7    3   22 1   
     8    4    5 ar  
     9    4   23 1   
    10    5    6 ar  
    11    5   24 1   
    12    6    7 ar  
    13    7    8 ar  
    14    7   25 1   
    15    8    9 ar  
    16    8   26 1   
    17    9   10 ar  
    18    9   27 1   
    19   10   11 1   
    20   11   12 1   
    21   11   33 1   
    22   12   13 1   
    23   12   14 1   
    24   12   35 1   
    25   13   34 1   
    26   14   15 ar  
    27   14   19 ar  
    28   15   16 ar  
    29   15   28 1   
    30   16   17 ar  
    31   16   21 1   
    32   17   18 ar  
    33   17   20 1   
    34   18   19 ar  
    35   18   29 1   
    36   19   30 1   
    37   20   31 1   
    38   21   32 1   
@<TRIPOS>SUBSTRUCTURE
     1 AV6         1 TEMP              0 ****  ****    0 ROOT
