@<TRIPOS>MOLECULE
AV6
   35    38     1     0     0
SMALL
bcc


@<TRIPOS>ATOM
      1 C1         -0.1730   -0.1340    0.1980 ca        1 AV6     -0.099000
      2 C2          1.1930    0.0500    0.6060 ca        1 AV6      0.140100
      3 C3          1.5230   -0.0850    1.9510 ca        1 AV6     -0.186500
      4 C4          0.5200   -0.3630    2.9020 ca        1 AV6     -0.091500
      5 C5         -0.7940   -0.5090    2.5300 ca        1 AV6     -0.156500
      6 C6         -1.1680   -0.4010    1.1640 ca        1 AV6      0.012000
      7 C7         -2.5150   -0.5730    0.7430 ca        1 AV6     -0.156500
      8 C8         -2.8400   -0.4920   -0.5880 ca        1 AV6     -0.091500
      9 C9         -1.8570   -0.2390   -1.5670 ca        1 AV6     -0.186500
     10 C10        -0.5260   -0.0720   -1.1960 ca        1 AV6      0.140100
     11 N11         0.5000    0.0630   -2.1490 nh        1 AV6     -0.720600
     12 C12         1.7440    0.7150   -1.7060 c3        1 AV6      0.497000
     13 N13         2.1790    0.4110   -0.3390 nh        1 AV6     -0.720600
     14 C15         1.6990    2.2260   -1.9260 ca        1 AV6     -0.123300
     15 C16         2.3670    2.7520   -3.0340 ca        1 AV6     -0.127000
     16 C17         2.3340    4.1320   -3.2690 ca        1 AV6      0.105100
     17 C18         1.6300    4.9770   -2.3830 ca        1 AV6      0.048100
     18 C19         0.9690    4.4410   -1.2760 ca        1 AV6     -0.174000
     19 C20         1.0060    3.0660   -1.0520 ca        1 AV6     -0.092000
     20 O21         1.6440    6.3230   -2.6870 oh        1 AV6     -0.516100
     21 O22         3.0000    4.6000   -4.3770 oh        1 AV6     -0.496100
     22 H3          2.5620    0.0300    2.2920 ha        1 AV6      0.136500
     23 H4          0.8130   -0.4580    3.9590 ha        1 AV6      0.131500
     24 H5         -1.5740   -0.7180    3.2760 ha        1 AV6      0.134000
     25 H7         -3.2830   -0.7740    1.5030 ha        1 AV6      0.134000
     26 H8         -3.8830   -0.6250   -0.9160 ha        1 AV6      0.131500
     27 H9         -2.1600   -0.1880   -2.6230 ha        1 AV6      0.136500
     28 H16         2.9250    2.1080   -3.7300 ha        1 AV6      0.152000
     29 H19         0.4250    5.1010   -0.5850 ha        1 AV6      0.139000
     30 H20         0.4890    2.6420   -0.1760 ha        1 AV6      0.154000
     31 HO21        1.1680    6.7890   -1.9850 ho        1 AV6      0.431000
     32 HO22        2.9110    5.5660   -4.3930 ho        1 AV6      0.438000
     33 HN11        0.1820    0.4390   -3.0210 hn        1 AV6      0.404300
     34 HN13        2.9590   -0.2160   -0.3260 hn        1 AV6      0.404300
     35 H12         2.5410    0.3000   -2.4090 h2        1 AV6      0.066700
@<TRIPOS>BOND
     1    1    2 ar  
     2    1    6 ar  
     3    1   10 ar  
     4    2    3 ar  
     5    2   13 1   
     6    3    4 ar  
     7    3   22 1   
     8    4    5 ar  
     9    4   23 1   
    10    5    6 ar  
    11    5   24 1   
    12    6    7 ar  
    13    7    8 ar  
    14    7   25 1   
    15    8    9 ar  
    16    8   26 1   
    17    9   10 ar  
    18    9   27 1   
    19   10   11 1   
    20   11   12 1   
    21   11   33 1   
    22   12   13 1   
    23   12   14 1   
    24   12   35 1   
    25   13   34 1   
    26   14   15 ar  
    27   14   19 ar  
    28   15   16 ar  
    29   15   28 1   
    30   16   17 ar  
    31   16   21 1   
    32   17   18 ar  
    33   17   20 1   
    34   18   19 ar  
    35   18   29 1   
    36   19   30 1   
    37   20   31 1   
    38   21   32 1   
@<TRIPOS>SUBSTRUCTURE
     1 AV6         1 TEMP              0 ****  ****    0 ROOT
