@<TRIPOS>MOLECULE
AV6
   35    32     1     0     0
SMALL
bcc


@<TRIPOS>ATOM
      1 C1         -0.8830   -1.0380    1.6570 c1        1 AV6     -0.099000
      2 C2          0.5160   -0.9010    1.6770 c1        1 AV6      0.055000
      3 C3          1.1820   -0.6580    2.8950 c1        1 AV6     -0.175000
      4 C4          0.4320   -0.5650    4.1190 c1        1 AV6     -0.124000
      5 C5         -0.9290   -0.7120    4.1010 c1        1 AV6     -0.124000
      6 C6         -1.6130   -0.9600    2.8570 c1        1 AV6      0.012000
      7 C7         -3.0080   -1.0030    2.8290 c2        1 AV6     -0.161000
      8 C8         -3.7080   -1.1190    1.5580 c1        1 AV6     -0.087000
      9 C9         -2.9870   -1.1870    0.3720 c1        1 AV6     -0.198000
     10 C10        -1.5780   -1.1440    0.4000 c2        1 AV6      0.062000
     11 N11        -0.8470   -1.2510   -0.8070 n3        1 AV6     -0.282000
     12 C12         0.6040   -1.1140   -0.7930 c3        1 AV6      0.134000
     13 N13         1.2740   -1.0170    0.4530 n3        1 AV6     -0.270000
     14 C15         0.9510    0.1790   -1.6190 c2        1 AV6     -0.116000
     15 C16         1.2490    0.0760   -2.9730 c2        1 AV6     -0.127000
     16 C17         1.6570    1.2320   -3.7030 c1        1 AV6      0.060000
     17 C18         1.7560    2.4670   -3.0540 c2        1 AV6      0.003000
     18 C19         1.4570    2.5680   -1.6990 c1        1 AV6     -0.174000
     19 C20         1.0510    1.4190   -0.9740 c1        1 AV6     -0.092000
     20 O21         2.1550    3.6490   -3.7980 oh        1 AV6     -0.270000
     21 O22         1.9220    1.1390   -5.1240 o         1 AV6     -0.250000
     22 H3          2.2000   -0.5470    2.9100 ha        1 AV6      0.139000
     23 H4          0.8960   -0.2970    4.9710 ha        1 AV6      0.133000
     24 H5         -1.4480   -0.6460    4.9600 ha        1 AV6      0.133000
     25 H7         -3.5340   -0.9550    3.6970 ha        1 AV6      0.134000
     26 H8         -4.6930   -1.1650    1.5390 ha        1 AV6      0.131000
     27 H9         -3.4610   -1.2630   -0.4880 ha        1 AV6      0.134000
     28 H16         1.1780   -0.7940   -3.4280 ha        1 AV6      0.152000
     29 H19         1.5270    3.4280   -1.2500 ha        1 AV6      0.139000
     30 H20         0.8280    1.4980    0.0300 ha        1 AV6      0.154000
     31 HO21        1.4830    4.1690   -3.8880 ho        1 AV6      0.230000
     32 HO22        2.7420    0.7560   -5.2580 ho        1 AV6      0.237000
     33 HN11       -1.1960   -0.6780   -1.4190 hn        1 AV6      0.201000
     34 HN13        1.8400   -1.6690    0.5260 hn        1 AV6      0.198000
     35 H12         0.9870   -1.8970   -1.2750 h2        1 AV6      0.106000
@<TRIPOS>BOND
     1    1    6 1   
     2    1   10 1   
     3    2    3 1   
     4    2   13 1   
     5    3   22 1   
     6    4    5 1   
     7    4   23 1   
     8    5   24 1   
     9    6    7 1   
    10    7    8 1   
    11    7   25 1   
    12    8   26 1   
    13    9   10 1   
    14    9   27 1   
    15   10   11 1   
    16   11   12 1   
    17   11   33 1   
    18   12   13 1   
    19   12   14 1   
    20   12   35 1   
    21   13   34 1   
    22   14   15 1   
    23   14   19 1   
    24   15   16 1   
    25   15   28 1   
    26   16   17 1   
    27   17   18 1   
    28   17   20 1   
    29   18   29 1   
    30   19   30 1   
    31   20   31 1   
    32   21   32 1   
@<TRIPOS>SUBSTRUCTURE
     1 AV6         1 TEMP              0 ****  ****    0 ROOT
