@<TRIPOS>MOLECULE
AV6
   35    38     1     0     0
SMALL
bcc


@<TRIPOS>ATOM
      1 C1         -2.1560   -0.0610   -0.0160 ca        1 AV6     -0.100000
      2 C2         -1.5420   -1.3300   -0.3030 ca        1 AV6      0.153600
      3 C3         -2.0100   -2.4720    0.3440 ca        1 AV6     -0.206000
      4 C4         -3.0910   -2.3840    1.2450 ca        1 AV6     -0.083000
      5 C5         -3.6920   -1.1800    1.5200 ca        1 AV6     -0.166000
      6 C6         -3.2320    0.0110    0.8960 ca        1 AV6      0.021000
      7 C7         -3.8230    1.2730    1.1730 ca        1 AV6     -0.166000
      8 C8         -3.3460    2.4090    0.5670 ca        1 AV6     -0.083000
      9 C9         -2.2680    2.3570   -0.3380 ca        1 AV6     -0.206000
     10 C10        -1.6740    1.1360   -0.6520 ca        1 AV6      0.153600
     11 N11        -0.6740    1.0420   -1.6330 nh        1 AV6     -0.710600
     12 C12         0.1460   -0.1730   -1.6790 c3        1 AV6      0.507000
     13 N13        -0.5430   -1.4070   -1.2870 nh        1 AV6     -0.710600
     14 C15         1.4760    0.0020   -0.9430 ca        1 AV6     -0.177300
     15 C16         2.6630   -0.0380   -1.6760 ca        1 AV6     -0.115000
     16 C17         3.8880    0.1200   -1.0150 ca        1 AV6      0.107100
     17 C18         3.9090    0.3190    0.3830 ca        1 AV6      0.052100
     18 C19         2.7140    0.3580    1.1080 ca        1 AV6     -0.171000
     19 C20         1.5020    0.1990    0.4390 ca        1 AV6     -0.112000
     20 O21         5.1540    0.4670    0.9570 oh        1 AV6     -0.514100
     21 O22         5.0280    0.0730   -1.7800 oh        1 AV6     -0.492100
     22 H3         -1.5570   -3.4550    0.1530 ha        1 AV6      0.134000
     23 H4         -3.4450   -3.3070    1.7290 ha        1 AV6      0.130000
     24 H5         -4.5350   -1.1160    2.2230 ha        1 AV6      0.134000
     25 H7         -4.6650    1.3170    1.8790 ha        1 AV6      0.134000
     26 H8         -3.8020    3.3880    0.7830 ha        1 AV6      0.130000
     27 H9         -1.9170    3.2910   -0.8000 ha        1 AV6      0.134000
     28 H16         2.6620   -0.1930   -2.7660 ha        1 AV6      0.158000
     29 H19         2.7330    0.5120    2.1960 ha        1 AV6      0.141000
     30 H20         0.5580    0.2280    1.0060 ha        1 AV6      0.151000
     31 HO21        5.0290    0.5940    1.9090 ho        1 AV6      0.433000
     32 HO22        5.7900    0.1970   -1.1910 ho        1 AV6      0.439000
     33 HN11       -0.1120    1.8660   -1.7160 hn        1 AV6      0.409800
     34 HN13        0.1020   -2.1590   -1.1470 hn        1 AV6      0.409800
     35 H12         0.3800   -0.3170   -2.7870 h2        1 AV6      0.084700
@<TRIPOS>BOND
     1    1    2 ar  
     2    1    6 ar  
     3    1   10 ar  
     4    2    3 ar  
     5    2   13 1   
     6    3    4 ar  
     7    3   22 1   
     8    4    5 ar  
     9    4   23 1   
    10    5    6 ar  
    11    5   24 1   
    12    6    7 ar  
    13    7    8 ar  
    14    7   25 1   
    15    8    9 ar  
    16    8   26 1   
    17    9   10 ar  
    18    9   27 1   
    19   10   11 1   
    20   11   12 1   
    21   11   33 1   
    22   12   13 1   
    23   12   14 1   
    24   12   35 1   
    25   13   34 1   
    26   14   15 ar  
    27   14   19 ar  
    28   15   16 ar  
    29   15   28 1   
    30   16   17 ar  
    31   16   21 1   
    32   17   18 ar  
    33   17   20 1   
    34   18   19 ar  
    35   18   29 1   
    36   19   30 1   
    37   20   31 1   
    38   21   32 1   
@<TRIPOS>SUBSTRUCTURE
     1 AV6         1 TEMP              0 ****  ****    0 ROOT
