@<TRIPOS>MOLECULE
AV6
   35    38     1     0     0
SMALL
bcc


@<TRIPOS>ATOM
      1 C1         -0.2340   -0.1460    0.1300 ca        1 AV6     -0.099000
      2 C2          1.1620    0.0790    0.3980 ca        1 AV6      0.140100
      3 C3          1.6100    0.0700    1.7160 ca        1 AV6     -0.186500
      4 C4          0.7080   -0.1830    2.7700 ca        1 AV6     -0.091500
      5 C5         -0.6230   -0.4180    2.5270 ca        1 AV6     -0.156500
      6 C6         -1.1210   -0.4100    1.1960 ca        1 AV6      0.012000
      7 C7         -2.4860   -0.6800    0.9090 ca        1 AV6     -0.156500
      8 C8         -2.9320   -0.6910   -0.3900 ca        1 AV6     -0.091500
      9 C9         -2.0600   -0.4180   -1.4640 ca        1 AV6     -0.186500
     10 C10        -0.7210   -0.1270   -1.2230 ca        1 AV6      0.140100
     11 N11         0.1370    0.2290   -2.2870 nu        1 AV6     -0.720600
     12 C12         1.4860    0.6980   -1.9560 c3        1 AV6      0.497000
     13 N13         2.0480    0.2080   -0.6870 nu        1 AV6     -0.720600
     14 C15         1.5570    2.2220   -2.0550 ca        1 AV6     -0.123300
     15 C16         2.5760    2.7860   -2.8270 ca        1 AV6     -0.127000
     16 C17         2.6750    4.1790   -2.9270 ca        1 AV6      0.105100
     17 C18         1.7440    4.9980   -2.2510 ca        1 AV6      0.048100
     18 C19         0.7280    4.4230   -1.4840 ca        1 AV6     -0.174000
     19 C20         0.6390    3.0350   -1.3890 ca        1 AV6     -0.092000
     20 O21         1.9120    6.3600   -2.3980 oh        1 AV6     -0.516100
     21 O22         3.6990    4.6860   -3.6920 oh        1 AV6     -0.496100
     22 H3          2.6680    0.2470    1.9550 ha        1 AV6      0.136500
     23 H4          1.0950   -0.1880    3.8010 ha        1 AV6      0.131500
     24 H5         -1.3230   -0.6180    3.3510 ha        1 AV6      0.134000
     25 H7         -3.1710   -0.8850    1.7440 ha        1 AV6      0.134000
     26 H8         -3.9870   -0.9110   -0.6150 ha        1 AV6      0.131500
     27 H9         -2.4590   -0.4300   -2.4900 ha        1 AV6      0.136500
     28 H16         3.3040    2.1620   -3.3650 ha        1 AV6      0.152000
     29 H19         0.0020    5.0630   -0.9620 ha        1 AV6      0.139000
     30 H20        -0.1650    2.5810   -0.7890 ha        1 AV6      0.154000
     31 HO21        1.1910    6.7990   -1.9260 ho        1 AV6      0.431000
     32 HO22        3.6230    5.6530   -3.6890 ho        1 AV6      0.438000
     33 HN11        0.1490   -0.4650   -3.0070 hn        1 AV6      0.404300
     34 HN13        2.8930    0.6920   -0.4520 hn        1 AV6      0.404300
     35 H12         2.1880    0.2800   -2.7520 h2        1 AV6      0.066700
@<TRIPOS>BOND
     1    1    2 ar  
     2    1    6 ar  
     3    1   10 ar  
     4    2    3 ar  
     5    2   13 1   
     6    3    4 ar  
     7    3   22 1   
     8    4    5 ar  
     9    4   23 1   
    10    5    6 ar  
    11    5   24 1   
    12    6    7 ar  
    13    7    8 ar  
    14    7   25 1   
    15    8    9 ar  
    16    8   26 1   
    17    9   10 ar  
    18    9   27 1   
    19   10   11 1   
    20   11   12 1   
    21   11   33 1   
    22   12   13 1   
    23   12   14 1   
    24   12   35 1   
    25   13   34 1   
    26   14   15 ar  
    27   14   19 ar  
    28   15   16 ar  
    29   15   28 1   
    30   16   17 ar  
    31   16   21 1   
    32   17   18 ar  
    33   17   20 1   
    34   18   19 ar  
    35   18   29 1   
    36   19   30 1   
    37   20   31 1   
    38   21   32 1   
@<TRIPOS>SUBSTRUCTURE
     1 AV6         1 TEMP              0 ****  ****    0 ROOT
