@<TRIPOS>MOLECULE
AV9
   51    47     1     0     0
SMALL
bcc


@<TRIPOS>ATOM
      1 C1          0.0260    4.0540   -4.6340 c1        1 AV9      0.055500
      2 C2         -0.5730    2.8310   -4.9110 c1        1 AV9     -0.194000
      3 C3         -0.5080    1.7820   -3.9670 c1        1 AV9      0.047000
      4 C4          0.1490    1.9710   -2.7740 c1        1 AV9     -0.111000
      5 C5          0.7570    3.2110   -2.4940 c1        1 AV9     -0.082000
      6 C6          0.6920    4.2450   -3.4260 c1        1 AV9      0.055500
      7 N7         -1.0570    0.5450   -4.2660 n2        1 AV9     -0.159000
      8 C8         -0.9470   -0.4870   -3.3760 c1        1 AV9     -0.019000
      9 C9         -0.2810   -0.2970   -2.1670 c1        1 AV9     -0.271000
     10 C10         0.2620    0.9220   -1.8690 c2        1 AV9      0.132000
     11 O11         0.2290    1.7220   -0.7040 os        1 AV9     -0.152000
     12 C12        -0.0180    0.9010    0.4270 c2        1 AV9      0.011000
     13 C13         0.9500    0.0030    0.8540 c2        1 AV9     -0.095000
     14 C15        -0.3910   -0.5330    2.7760 c1        1 AV9      0.097000
     15 C16        -1.3600    0.3660    2.3480 c1        1 AV9     -0.138000
     16 C17        -1.1730    1.0820    1.1740 c1        1 AV9     -0.109000
     17 O25        -0.2610   -6.9820    6.1510 os        1 AV9     -0.144000
     18 C11         0.7630   -0.7150    2.0300 c2        1 AV9     -0.112000
     19 N28        -0.5460   -1.2120    4.0430 n2        1 AV9     -0.295000
     20 O33         1.4080    5.0100   -2.4850 os        1 AV9     -0.207500
     21 O34         0.0240    5.0950   -5.5840 os        1 AV9     -0.207500
     22 C35        -0.4070   -2.6530    4.1140 c2        1 AV9      0.376000
     23 O36        -0.1610   -3.2880    3.1120 o         1 AV9     -0.390000
     24 N37        -0.5490   -3.3280    5.3770 n2        1 AV9     -0.280000
     25 C38        -0.4100   -4.6510    5.4460 c1        1 AV9      0.140000
     26 C40         0.8350   -7.7660    4.0250 c3        1 AV9     -0.179000
     27 C30        -0.0450   -6.7930    4.7970 c2        1 AV9      0.071000
     28 C43        -0.1280   -5.5290    4.4120 c1        1 AV9     -0.271000
     29 N21        -0.5230   -5.5470    6.6910 n3        1 AV9     -0.084000
     30 CL4         2.0220   -1.7640    2.6190 cl        1 AV9     -0.010000
     31 C49         2.1770    6.0500   -3.0590 c3        1 AV9     -0.077000
     32 C53        -1.2690    5.5230   -5.9600 c3        1 AV9     -0.077000
     33 H2         -1.0410    2.6970   -5.7610 ha        1 AV9      0.158000
     34 H5          1.2240    3.3460   -1.6460 ha        1 AV9      0.167000
     35 H8         -1.3350   -1.3580   -3.5890 ha        1 AV9      0.160000
     36 H9         -0.2030   -1.0340   -1.5320 ha        1 AV9      0.159000
     37 H13         1.7650   -0.1260    0.3280 ha        1 AV9      0.166000
     38 H17        -1.8570    1.7170    0.8730 ha        1 AV9      0.157000
     39 H16        -2.1750    0.4940    2.8750 ha        1 AV9      0.182000
     40 H28        -0.6710   -0.7290    4.8050 hn        1 AV9      0.258000
     41 H21        -0.4320   -5.2740    7.5600 hn        1 AV9      0.208000
     42 H491        3.0600    6.0850   -2.6220 h1        1 AV9      0.085667
     43 H492        1.7160    6.9050   -2.9320 h1        1 AV9      0.085667
     44 H493        2.2940    5.8800   -4.0210 h1        1 AV9      0.085667
     45 H531       -1.8660    5.4860   -5.1800 h1        1 AV9      0.085667
     46 H532       -1.2240    6.4470   -6.2940 h1        1 AV9      0.085667
     47 H533       -1.6150    4.9370   -6.6650 h1        1 AV9      0.085667
     48 H43        -0.4030   -5.3130    3.5000 ha        1 AV9      0.211000
     49 H401        1.7510   -7.4140    3.9800 hc        1 AV9      0.114000
     50 H402        0.8410   -8.6350    4.4820 hc        1 AV9      0.114000
     51 H403        0.4830   -7.8760    3.1170 hc        1 AV9      0.114000
@<TRIPOS>BOND
     1    1    6 1   
     2    1   21 1   
     3    2    3 1   
     4    2   33 1   
     5    3    7 1   
     6    4    5 1   
     7    4   10 1   
     8    5   34 1   
     9    6   20 1   
    10    7    8 1   
    11    8   35 1   
    12    9   10 1   
    13    9   36 1   
    14   10   11 1   
    15   11   12 1   
    16   12   13 1   
    17   12   16 1   
    18   13   18 1   
    19   13   37 1   
    20   14   15 1   
    21   14   18 1   
    22   15   39 1   
    23   16   38 1   
    24   17   27 1   
    25   17   29 1   
    26   18   30 1   
    27   19   22 1   
    28   19   40 1   
    29   20   31 1   
    30   21   32 1   
    31   22   23 1   
    32   22   24 1   
    33   24   25 1   
    34   25   29 1   
    35   26   27 1   
    36   26   49 1   
    37   26   50 1   
    38   26   51 1   
    39   27   28 1   
    40   28   48 1   
    41   29   41 1   
    42   31   42 1   
    43   31   43 1   
    44   31   44 1   
    45   32   45 1   
    46   32   46 1   
    47   32   47 1   
@<TRIPOS>SUBSTRUCTURE
     1 AV9         1 TEMP              0 ****  ****    0 ROOT
