@<TRIPOS>MOLECULE
AV9
   51    54     1     0     0
SMALL
bcc


@<TRIPOS>ATOM
      1 C1          6.8850   -0.5810    0.0900 ca        1 AV9      0.134100
      2 C2          6.2720   -0.9640    1.2600 ca        1 AV9     -0.249300
      3 C3          4.8590   -0.7990    1.4260 ca        1 AV9      0.424600
      4 C4          4.1120   -0.2300    0.3500 ca        1 AV9     -0.152300
      5 C5          4.7600    0.1590   -0.8490 ca        1 AV9     -0.163000
      6 C6          6.1180   -0.0090   -0.9870 ca        1 AV9      0.109100
      7 N7          4.2670   -1.1920    2.6120 nb        1 AV9     -0.678000
      8 C8          2.9610   -1.0270    2.7340 ca        1 AV9      0.437200
      9 C9          2.1150   -0.4710    1.7300 ca        1 AV9     -0.328300
     10 C10         2.7010   -0.0760    0.5450 ca        1 AV9      0.167100
     11 O11         2.0250    0.4970   -0.5210 os        1 AV9     -0.245200
     12 C12         0.6350    0.5680   -0.4080 ca        1 AV9      0.059100
     13 C13         0.0570    1.8360   -0.3090 ca        1 AV9     -0.096000
     14 C15        -2.1660    0.8050   -0.4610 ca        1 AV9      0.087600
     15 C16        -1.5410   -0.4600   -0.5580 ca        1 AV9     -0.137000
     16 C17        -0.1570   -0.5790   -0.5280 ca        1 AV9     -0.113000
     17 O25        -9.0490   -0.9700   -0.2480 os        1 AV9     -0.136400
     18 C11        -1.3320    1.9510   -0.3370 ca        1 AV9     -0.032600
     19 N28        -3.5550    0.9700   -0.5270 n         1 AV9     -0.441100
     20 O33         6.8560    0.3290   -2.1020 os        1 AV9     -0.301900
     21 O34         8.2330   -0.6950   -0.1720 os        1 AV9     -0.301900
     22 C35        -4.4990   -0.0100   -0.1980 c         1 AV9      0.821500
     23 O36        -4.1760   -1.1960    0.0470 o         1 AV9     -0.630100
     24 N37        -5.8480    0.4750   -0.1490 ne        1 AV9     -0.708100
     25 C38        -6.8510   -0.3530   -0.2220 cd        1 AV9      0.666500
     26 C30        -8.2620   -2.1490   -0.3280 cc        1 AV9      0.109900
     27 C43        -6.9380   -1.8360   -0.3080 cd        1 AV9     -0.357600
     28 N21        -8.2370    0.1250   -0.3170 na        1 AV9     -0.493700
     29 CL4        -2.0030    3.5140   -0.2210 cl        1 AV9     -0.088400
     30 C49         6.1220    0.8980   -3.1810 c3        1 AV9      0.108700
     31 C53         9.0270   -1.2540    0.8710 c3        1 AV9      0.107700
     32 H2          6.8490   -1.4010    2.0890 ha        1 AV9      0.160000
     33 H5          4.1470    0.5930   -1.6540 ha        1 AV9      0.159000
     34 H8          2.5170   -1.3500    3.6940 h4        1 AV9      0.023100
     35 H9          1.0380   -0.3680    1.9120 ha        1 AV9      0.158000
     36 H13         0.6960    2.7280   -0.2190 ha        1 AV9      0.166000
     37 H17         0.3160   -1.5690   -0.6040 ha        1 AV9      0.156000
     38 H16        -2.1520   -1.3740   -0.6550 ha        1 AV9      0.182000
     39 H28        -3.8810    1.9090   -0.6340 hn        1 AV9      0.344500
     40 H21        -8.4910    0.7490    0.4450 hn        1 AV9      0.413800
     41 H491        5.6370    1.8550   -2.8680 h1        1 AV9      0.046700
     42 H492        6.9090    1.0880   -3.9550 h1        1 AV9      0.046700
     43 H493        5.3580    0.1780   -3.5620 h1        1 AV9      0.046700
     44 H531       10.0600   -1.2450    0.4390 h1        1 AV9      0.047700
     45 H532        8.9760   -0.6190    1.7890 h1        1 AV9      0.047700
     46 H533        8.7020   -2.2980    1.0970 h1        1 AV9      0.047700
     47 H43        -6.0610   -2.4830   -0.3180 ha        1 AV9      0.211000
     48 H401       -9.8030   -3.4380    0.3810 hc        1 AV9      0.074700
     49 H402       -9.5390   -3.4530   -1.4140 hc        1 AV9      0.074700
     50 H403       -8.3360   -4.2710   -0.3140 hc        1 AV9      0.074700
     51 C40        -9.0240   -3.3960   -0.4210 c3        1 AV9     -0.056900
@<TRIPOS>BOND
     1    1    2 ar  
     2    1    6 ar  
     3    1   21 1   
     4    2    3 ar  
     5    2   32 1   
     6    3    4 ar  
     7    3    7 ar  
     8    4    5 ar  
     9    4   10 ar  
    10    5    6 ar  
    11    5   33 1   
    12    6   20 1   
    13    7    8 ar  
    14    8    9 ar  
    15    8   34 1   
    16    9   10 ar  
    17    9   35 1   
    18   10   11 1   
    19   11   12 1   
    20   12   13 ar  
    21   12   16 ar  
    22   13   18 ar  
    23   13   36 1   
    24   14   15 ar  
    25   14   18 ar  
    26   14   19 1   
    27   15   16 ar  
    28   15   38 1   
    29   16   37 1   
    30   17   26 1   
    31   17   28 1   
    32   18   29 1   
    33   19   22 1   
    34   19   39 1   
    35   20   30 1   
    36   21   31 1   
    37   22   23 2   
    38   22   24 1   
    39   24   25 2   
    40   25   27 1   
    41   25   28 1   
    42   26   27 2   
    43   26   51 1   
    44   27   47 1   
    45   28   40 1   
    46   30   41 1   
    47   30   42 1   
    48   30   43 1   
    49   31   44 1   
    50   31   45 1   
    51   31   46 1   
    52   48   51 1   
    53   49   51 1   
    54   50   51 1   
@<TRIPOS>SUBSTRUCTURE
     1 AV9         1 TEMP              0 ****  ****    0 ROOT
