@<TRIPOS>MOLECULE
AV9
   52    54     1     0     0
SMALL
bcc


@<TRIPOS>ATOM
      1 C1         -0.0810    0.8420   -0.0820 c2        1 AV9     -0.027100
      2 C2          0.7250    1.8260    0.6400 cx        1 AV9      0.013500
      3 C3          0.1220    3.1880    1.0440 cx        1 AV9      0.122800
      4 C4          1.1560   -1.4760    2.2820 cg        1 AV9     -0.027300
      5 C5          0.5430   -1.0360    1.3490 ch        1 AV9     -0.222300
      6 C6         -0.1620   -0.4770    0.2730 cf        1 AV9      0.233400
      7 N7         -1.2040    3.5150    0.7520 n1        1 AV9     -0.458300
      8 C8         -2.3080    3.7290    0.4870 c1        1 AV9      0.558300
      9 C9          2.0050   -3.2800    3.6840 c2        1 AV9     -0.223000
     10 C10         1.8810   -1.9780    3.3860 ce        1 AV9      0.171400
     11 O11         2.4320   -0.9200    4.1240 os        1 AV9     -0.259200
     12 C12         3.2920   -1.2920    5.1590 ca        1 AV9      0.028100
     13 C13         4.6620   -1.3950    4.9030 ca        1 AV9     -0.095000
     14 C15         5.0600   -1.7530    7.3000 ca        1 AV9      0.114600
     15 C16         3.6650   -1.6380    7.5150 ca        1 AV9     -0.150000
     16 C17         2.7920   -1.4170    6.4590 ca        1 AV9     -0.099000
     17 O25         7.4740   -3.2300   13.8350 os        1 AV9     -0.128400
     18 C11         5.5370   -1.6240    5.9630 ca        1 AV9     -0.044600
     19 N28         5.9770   -1.9530    8.3320 n         1 AV9     -0.444100
     20 O33        -0.9950   -1.2520   -0.5110 os        1 AV9     -0.335900
     21 O34        -0.8120    1.3600   -1.1370 oh        1 AV9     -0.540100
     22 C35         5.6770   -2.3990    9.6300 c         1 AV9      0.826500
     23 O36         4.4980   -2.5890   10.0080 o         1 AV9     -0.630100
     24 N37         6.8350   -2.6260   10.4360 ne        1 AV9     -0.719100
     25 C38         6.7230   -2.8180   11.7220 cd        1 AV9      0.678500
     26 C30         6.0570   -3.1690   13.8800 cc        1 AV9      0.121900
     27 C43         5.5570   -2.9320   12.6350 cd        1 AV9     -0.366600
     28 N21         7.9040   -2.8870   12.5880 na        1 AV9     -0.494700
     29 CL4         7.1980   -1.7400    5.6090 cl        1 AV9     -0.077400
     30 C49        -0.8240   -2.6670   -0.3880 c3        1 AV9      0.115700
     31 C53         1.1770    3.0800   -0.0470 cx        1 AV9     -0.067400
     32 H2          0.4010    3.6230    2.0370 h1        1 AV9      0.158700
     33 H5          1.3820    1.3620    1.4130 hc        1 AV9      0.142700
     34 H8          1.5400   -4.0600    3.0690 ha        1 AV9      0.148000
     35 H9         -3.3440    3.9460    0.2550 ha        1 AV9      0.288500
     36 H13         5.0420   -1.2920    3.8750 ha        1 AV9      0.160000
     37 H17         2.5800   -3.6250    4.5540 ha        1 AV9      0.148000
     38 H16         1.7110   -1.3280    6.6450 ha        1 AV9      0.152000
     39 H28         3.2520   -1.7270    8.5350 ha        1 AV9      0.189000
     40 H21         8.5870   -3.5770   12.2890 hn        1 AV9      0.421800
     41 H491        0.2130   -2.9580   -0.6840 h1        1 AV9      0.062033
     42 H492       -1.5790   -3.0770   -1.1060 h1        1 AV9      0.062033
     43 H493       -1.0450   -2.9920    0.6560 h1        1 AV9      0.062033
     44 H531       -0.9710    0.6400   -1.7700 ho        1 AV9      0.456000
     45 H532        2.1730    3.5060    0.1860 hc        1 AV9      0.120700
     46 H533        0.8900    3.2300   -1.1070 hc        1 AV9      0.120700
     47 H43         4.5240   -2.8540   12.2960 ha        1 AV9      0.211000
     48 H401        4.3600   -3.4710   15.1200 hc        1 AV9      0.078033
     49 H402        5.6990   -2.4730   15.8540 hc        1 AV9      0.078033
     50 H403        5.8960   -4.2700   15.6980 hc        1 AV9      0.078033
     51 C40         5.4690   -3.3590   15.2070 c3        1 AV9     -0.059900
     52 H282        6.9440   -1.8790    8.0840 hn        1 AV9      0.348500
@<TRIPOS>BOND
     1    1    2 1   
     2    1    6 2   
     3    1   21 1   
     4    2    3 1   
     5    2   31 1   
     6    2   33 1   
     7    3    7 1   
     8    3   31 1   
     9    3   32 1   
    10    4    5 3   
    11    4   10 1   
    12    5    6 1   
    13    6   20 1   
    14    7    8 3   
    15    8   35 1   
    16    9   10 2   
    17    9   34 1   
    18    9   37 1   
    19   10   11 1   
    20   11   12 1   
    21   12   13 ar  
    22   12   16 ar  
    23   13   18 ar  
    24   13   36 1   
    25   14   15 ar  
    26   14   18 ar  
    27   14   19 1   
    28   15   16 ar  
    29   15   39 1   
    30   16   38 1   
    31   17   26 1   
    32   17   28 1   
    33   18   29 1   
    34   19   22 1   
    35   19   52 1   
    36   20   30 1   
    37   21   44 1   
    38   22   23 2   
    39   22   24 1   
    40   24   25 2   
    41   25   27 1   
    42   25   28 1   
    43   26   27 2   
    44   26   51 1   
    45   27   47 1   
    46   28   40 1   
    47   30   41 1   
    48   30   42 1   
    49   30   43 1   
    50   31   45 1   
    51   31   46 1   
    52   48   51 1   
    53   49   51 1   
    54   50   51 1   
@<TRIPOS>SUBSTRUCTURE
     1 AV9         1 TEMP              0 ****  ****    0 ROOT
