@<TRIPOS>MOLECULE
AV9
   51    52     1     0     0
SMALL
bcc


@<TRIPOS>ATOM
      1 C1         -0.7070    0.6220   -0.3710 c2        1 AV9      0.137000
      2 C2          0.6240    0.6010   -0.9900 c2        1 AV9     -0.105000
      3 C3          1.4610   -0.6160   -0.7020 c3        1 AV9     -0.068000
      4 C4          0.7290    0.0570    2.8580 c1        1 AV9     -0.148000
      5 C5         -0.0690    0.2490    1.9820 c1        1 AV9     -0.008000
      6 C6         -0.9950    0.4730    0.9560 c2        1 AV9     -0.043000
      7 N7          2.8820   -0.3660   -0.7140 n2        1 AV9     -0.183000
      8 C8          3.6030   -0.5550    0.3200 c2        1 AV9     -0.107000
      9 C9          2.9490   -0.4880    3.5910 c1        1 AV9      0.163000
     10 C10         1.6690   -0.1710    3.8780 c2        1 AV9     -0.110000
     11 O11         1.0970   -0.0340    5.1560 os        1 AV9     -0.096000
     12 C12         1.9160   -0.1850    6.2480 c2        1 AV9      0.103000
     13 C13         3.3490   -0.5270    6.0720 c3        1 AV9     -0.176000
     14 C15         3.4820   -0.5600    8.5650 c2        1 AV9     -0.001000
     15 C16         2.1020   -0.1310    8.6590 c1        1 AV9     -0.087000
     16 C17         1.3470    0.0060    7.4840 c2        1 AV9     -0.225000
     17 O25         7.3390   -4.0330   13.3640 os        1 AV9     -0.148000
     18 C11         4.1040   -0.6690    7.3460 c2        1 AV9     -0.058000
     19 N28         4.1690   -0.7280    9.7890 ns        1 AV9     -0.260000
     20 O33        -2.3320    0.6620    1.3220 os        1 AV9     -0.224000
     21 O34        -1.6970    0.8770   -1.2870 oh        1 AV9     -0.242000
     22 C35         4.6630   -1.9940   10.1600 c2        1 AV9      0.355000
     23 O36         4.7720   -2.9300    9.3350 o         1 AV9     -0.385000
     24 N37         5.0210   -2.1190   11.5450 n2        1 AV9     -0.263000
     25 C38         5.9630   -2.9390   11.9060 c2        1 AV9      0.129000
     26 C30         7.6180   -4.5110   12.0560 c2        1 AV9      0.064000
     27 C43         6.8170   -3.8940   11.1470 c2        1 AV9     -0.268000
     28 N21         6.4450   -3.0030   13.2950 na        1 AV9     -0.083000
     29 Cl4         5.7570   -0.9570    7.1430 cl        1 AV9      0.030000
     30 C49        -2.9060   -0.4580    1.9950 c3        1 AV9     -0.080000
     31 C53         1.0060    1.5860   -1.8110 c2        1 AV9     -0.130000
     32 H2          1.2680   -1.3630   -1.5300 h1        1 AV9      0.095000
     33 H5          1.1030   -1.0870    0.2620 h1        1 AV9      0.095000
     34 H8          3.2610   -0.8940    1.3210 h4        1 AV9      0.114500
     35 H9          4.6900   -0.3710    0.2300 h4        1 AV9      0.114500
     36 H13         3.8510    0.2800    5.4470 hc        1 AV9      0.170000
     37 H17         3.4280   -1.5150    5.5140 hc        1 AV9      0.170000
     38 H16         0.2820    0.2770    7.5710 ha        1 AV9      0.172000
     39 H28         3.7830   -0.1670   10.5270 hn        1 AV9      0.253000
     40 H21         5.6960   -3.2000   13.9540 hn        1 AV9      0.204000
     41 H491       -2.3250   -0.7010    2.9170 h1        1 AV9      0.085333
     42 H492       -2.9440   -1.3420    1.3140 h1        1 AV9      0.085333
     43 H493       -3.9370   -0.1090    2.2560 h1        1 AV9      0.085333
     44 H531       -2.5540    0.9090   -0.8270 ho        1 AV9      0.242000
     45 H532        1.9880    1.6000   -2.3030 ha        1 AV9      0.133500
     46 H533        0.3470    2.4380   -2.0350 ha        1 AV9      0.133500
     47 H43         6.7290   -4.0390   10.0710 ha        1 AV9      0.208000
     48 H401        8.7300   -5.9360   10.9430 hc        1 AV9      0.111333
     49 H402        9.6620   -5.0590   12.2430 hc        1 AV9      0.111333
     50 H403        8.4740   -6.3530   12.7010 hc        1 AV9      0.111333
     51 C40         8.6750   -5.5210   11.9800 c3        1 AV9     -0.177000
@<TRIPOS>BOND
     1    1    2 1   
     2    1    6 1   
     3    1   21 1   
     4    2    3 1   
     5    2   31 1   
     6    3    7 1   
     7    3   32 1   
     8    3   33 1   
     9    4    5 1   
    10    4   10 1   
    11    5    6 1   
    12    6   20 1   
    13    7    8 1   
    14    8   34 1   
    15    8   35 1   
    16    9   10 1   
    17   10   11 1   
    18   11   12 1   
    19   12   13 1   
    20   12   16 1   
    21   13   18 1   
    22   13   36 1   
    23   13   37 1   
    24   14   15 1   
    25   14   18 1   
    26   14   19 1   
    27   15   16 1   
    28   16   38 1   
    29   17   26 1   
    30   17   28 1   
    31   18   29 1   
    32   19   22 1   
    33   19   39 1   
    34   20   30 1   
    35   21   44 1   
    36   22   23 1   
    37   22   24 1   
    38   24   25 1   
    39   25   27 1   
    40   25   28 1   
    41   26   27 1   
    42   26   51 1   
    43   27   47 1   
    44   28   40 1   
    45   30   41 1   
    46   30   42 1   
    47   30   43 1   
    48   31   45 1   
    49   31   46 1   
    50   48   51 1   
    51   49   51 1   
    52   50   51 1   
@<TRIPOS>SUBSTRUCTURE
     1 AV9         1 TEMP              0 ****  ****    0 ROOT
