@<TRIPOS>MOLECULE
AVD
   45    46     1     0     0
SMALL
bcc


@<TRIPOS>ATOM
      1 C5         -0.6840   -0.7910   -0.2840 c2        1 AVD      0.111000
      2 C6          0.1840    0.0750    0.3030 c2        1 AVD     -0.220000
      3 C2          1.0580   -0.6460    2.4700 c2        1 AVD      0.055000
      4 C4         -1.3350   -0.2470    2.0080 c1        1 AVD      0.169000
      5 O40         7.3270    1.7810    0.8460 o         1 AVD     -0.526500
      6 O41         9.0920    2.9870    0.1640 o         1 AVD     -0.526500
      7 C34         8.2290    3.4350    2.3280 c2        1 AVD      0.007000
      8 C33         8.7430    4.8160    2.2060 c3        1 AVD     -0.170000
      9 C32         8.7780    5.6060    3.4500 c2        1 AVD     -0.091000
     10 C31         8.3560    5.0910    4.6270 c2        1 AVD     -0.199000
     11 C30         7.8490    3.7610    4.7480 c1        1 AVD     -0.077000
     12 C28         7.8310    2.9660    3.5600 c2        1 AVD     -0.147000
     13 N21         7.3900    1.5980    3.7200 n3        1 AVD      0.066000
     14 C22         8.2850    0.7040    4.3800 c2        1 AVD     -0.066000
     15 C23         7.9510   -0.5660    4.6890 c2        1 AVD     -0.160000
     16 C26         9.0110   -1.4970    5.3270 c2        1 AVD      0.385000
     17 O42         9.1000   -2.6450    4.8350 o         1 AVD     -0.514500
     18 O27         9.7010   -0.9990    6.2490 o         1 AVD     -0.514500
     19 C24         6.5990   -1.0730    4.4150 c2        1 AVD      0.283000
     20 O25         6.0560   -2.0170    4.9820 o         1 AVD     -0.224000
     21 C17         5.8740   -0.3050    3.2960 c3        1 AVD     -0.051000
     22 C18         4.4620   -0.5280    3.3070 c1        1 AVD     -0.141000
     23 C16         6.2170    1.1730    3.2760 c2        1 AVD      0.207000
     24 C15         5.2270    2.0490    2.6330 c2        1 AVD     -0.165000
     25 C14         4.3320    2.8200    3.2510 c2        1 AVD     -0.123000
     26 CL29        4.1570    2.9780    4.9220 cl        1 AVD     -0.007000
     27 C13         3.2910   -0.7870    3.3240 c1        1 AVD     -0.061000
     28 N10         1.9930   -1.1530    3.3820 n3        1 AVD     -0.137000
     29 C3         -0.3430   -0.4730    2.8880 c2        1 AVD     -0.340000
     30 CL12       -0.7460   -0.5390    4.5420 cl        1 AVD      0.030000
     31 F11        -1.6770   -0.3830   -1.0900 f         1 AVD     -0.092000
     32 C1          1.2980   -0.4000    1.1350 c2        1 AVD     -0.009000
     33 F9          2.5020   -0.5270    0.5420 f         1 AVD     -0.071000
     34 H6          0.1260    1.1630    0.1360 ha        1 AVD      0.172000
     35 H4         -0.6310   -1.8900   -0.1610 h4        1 AVD      0.164000
     36 H33         8.1340    5.3520    1.4210 hc        1 AVD      0.171000
     37 H32         9.7850    4.7290    1.7610 hc        1 AVD      0.171000
     38 H31         9.1650    6.6330    3.3590 ha        1 AVD      0.124000
     39 H30         8.3870    5.6860    5.5550 ha        1 AVD      0.143000
     40 H22         9.2660    1.1440    4.6440 h4        1 AVD      0.208000
     41 H18         6.3070   -0.7110    2.3160 hc        1 AVD      0.201000
     42 H15         5.2920    2.0090    1.5210 ha        1 AVD      0.225000
     43 HN10        3.6090    3.4290    2.6900 h4        1 AVD      0.153000
     44 H102        1.6550   -1.2570    4.3240 hn        1 AVD      0.240000
     45 C39         8.2180    2.6580    1.0010 c2        1 AVD      0.350000
@<TRIPOS>BOND
     1    1    2 1   
     2    1   31 1   
     3    1   35 1   
     4    2   32 1   
     5    2   34 1   
     6    3   28 1   
     7    3   29 1   
     8    3   32 1   
     9    4   29 1   
    10    5   45 1   
    11    6   45 1   
    12    7    8 1   
    13    7   12 1   
    14    7   45 1   
    15    8    9 1   
    16    8   36 1   
    17    8   37 1   
    18    9   10 1   
    19    9   38 1   
    20   10   11 1   
    21   10   39 1   
    22   11   12 1   
    23   12   13 1   
    24   13   14 1   
    25   13   23 1   
    26   14   15 1   
    27   14   40 1   
    28   15   16 1   
    29   15   19 1   
    30   16   17 1   
    31   16   18 1   
    32   19   20 1   
    33   19   21 1   
    34   21   22 1   
    35   21   23 1   
    36   21   41 1   
    37   22   27 1   
    38   23   24 1   
    39   24   25 1   
    40   24   42 1   
    41   25   26 1   
    42   25   43 1   
    43   27   28 1   
    44   28   44 1   
    45   29   30 1   
    46   32   33 1   
@<TRIPOS>SUBSTRUCTURE
     1 AVD         1 TEMP              0 ****  ****    0 ROOT
