@<TRIPOS>MOLECULE
AVD
   44    39     1     0     0
SMALL
bcc


@<TRIPOS>ATOM
      1 C5         -5.4270    0.7160   -4.2800 c1        1 AVD      0.052000
      2 C6         -4.3620    1.4350   -4.8020 c2        1 AVD     -0.172000
      3 C2         -3.1030    1.0260   -2.7980 c1        1 AVD      0.073000
      4 C4         -5.3290    0.1520   -3.0170 c1        1 AVD     -0.143000
      5 O40         3.7150    1.6260    2.4950 o         1 AVD     -0.558750
      6 C39         2.5400    1.5860    2.9470 c1        1 AVD      0.375000
      7 O41         1.8350    2.6290    2.9580 o         1 AVD     -0.558750
      8 C34         1.9970    0.2990    3.5260 c1        1 AVD     -0.064000
      9 C33         1.8230    0.1760    4.8960 c1        1 AVD     -0.124000
     10 C32         1.3870   -1.0250    5.4340 c1        1 AVD     -0.157500
     11 C31         1.1260   -2.1030    4.6030 c1        1 AVD     -0.157500
     12 C30         1.3000   -1.9800    3.2330 c1        1 AVD     -0.139000
     13 C28         1.7350   -0.7790    2.6950 c2        1 AVD      0.034000
     14 N21         1.9850   -0.6760    1.2990 n3        1 AVD     -0.134000
     15 C22         3.3230   -0.8620    0.7910 c2        1 AVD      0.002000
     16 C23         3.5880   -0.7350   -0.6540 c1        1 AVD     -0.236000
     17 C26         4.9910   -0.9240   -1.1870 c1        1 AVD      0.375000
     18 O42         5.7970    0.0440   -1.1950 o         1 AVD     -0.558750
     19 O27         5.3630   -2.0550   -1.5940 o         1 AVD     -0.558750
     20 C24         2.5020   -0.4230   -1.5610 c2        1 AVD      0.324000
     21 O25         2.7290   -0.2420   -2.7410 o         1 AVD     -0.348000
     22 C17         1.1040   -0.2290   -1.0240 c2        1 AVD     -0.202000
     23 C18         0.0480    0.0400   -1.9010 c2        1 AVD     -0.064000
     24 C16         0.8580   -0.3520    0.3560 c2        1 AVD      0.139000
     25 C15        -0.4430   -0.2050    0.8490 c2        1 AVD     -0.160000
     26 C14        -1.4960    0.0630   -0.0280 c1        1 AVD     -0.001000
     27 CL29       -2.8750    0.4170    0.9770 cl        1 AVD     -0.040000
     28 C13        -1.2490    0.1860   -1.4070 c2        1 AVD     -0.085000
     29 N10        -1.9520    1.2730   -1.9970 n2        1 AVD     -0.211000
     30 C3         -4.1670    0.3070   -2.2760 c1        1 AVD     -0.065000
     31 CL12       -4.0660   -0.3550   -0.6660 cl        1 AVD      0.033000
     32 F11        -6.5680    0.6110   -4.9730 f         1 AVD     -0.120000
     33 C1         -3.2010    1.5900   -4.0610 c2        1 AVD      0.030000
     34 F9         -2.1880    2.3170   -4.5500 f         1 AVD     -0.112000
     35 H6         -4.4310    1.8320   -5.6910 ha        1 AVD      0.150000
     36 H4         -6.0790   -0.3540   -2.6500 ha        1 AVD      0.155000
     37 H33         2.0070    0.9350    5.4820 ha        1 AVD      0.132000
     38 H32         1.2650   -1.1120    6.3990 ha        1 AVD      0.104500
     39 H31         0.8190   -2.9490    4.9820 ha        1 AVD      0.104500
     40 H30         1.1160   -2.7390    2.6480 ha        1 AVD      0.139000
     41 H22         4.0490   -1.0950    1.4020 h4        1 AVD      0.170000
     42 H18         0.2170    0.1220   -2.8580 ha        1 AVD      0.152000
     43 H15        -0.6180   -0.3120    1.8030 ha        1 AVD      0.216000
     44 HN10       -1.6650    2.1280   -1.8630 hn        1 AVD      0.209000
@<TRIPOS>BOND
     1    1    2 1   
     2    1    4 1   
     3    2   33 1   
     4    2   35 1   
     5    3   30 1   
     6    3   33 1   
     7    4   36 1   
     8    5    6 1   
     9    6    7 1   
    10    8    9 1   
    11    8   13 1   
    12    9   37 1   
    13   10   11 1   
    14   10   38 1   
    15   11   39 1   
    16   12   13 1   
    17   12   40 1   
    18   13   14 1   
    19   14   15 1   
    20   14   24 1   
    21   15   16 1   
    22   15   41 1   
    23   16   20 1   
    24   17   18 1   
    25   17   19 1   
    26   20   21 1   
    27   20   22 1   
    28   22   23 1   
    29   22   24 1   
    30   23   28 1   
    31   23   42 1   
    32   24   25 1   
    33   25   26 1   
    34   25   43 1   
    35   26   28 1   
    36   28   29 1   
    37   29   44 1   
    38   30   31 1   
    39   33   34 1   
@<TRIPOS>SUBSTRUCTURE
     1 AVD         1 TEMP              0 ****  ****    0 ROOT
