@<TRIPOS>MOLECULE
AVD
   44    47     1     0     0
SMALL
bcc


@<TRIPOS>ATOM
      1 C5         -0.4410   -1.9740    1.0380 c3        1 AVD      0.103000
      2 C6          0.7960   -1.4060    0.4000 c2        1 AVD     -0.210000
      3 C2          1.0400    0.1900    2.2780 c2        1 AVD      0.204000
      4 C4         -1.0840   -1.0530    2.0100 c1        1 AVD     -0.232000
      5 O40         7.6950    2.9370    0.6120 o         1 AVD     -0.526000
      6 O41         9.8650    3.5100    0.7210 o         1 AVD     -0.526000
      7 C34         8.5930    3.6450    2.7140 c2        1 AVD      0.010000
      8 C33         9.2460    4.9270    3.0670 c3        1 AVD     -0.166000
      9 C32         9.1580    5.3330    4.4810 c2        1 AVD     -0.114000
     10 C31         8.4920    4.5810    5.3830 c2        1 AVD     -0.192000
     11 C30         7.8180    3.3680    5.0300 c1        1 AVD     -0.099000
     12 C28         7.9560    2.9050    3.6860 c2        1 AVD     -0.118000
     13 N21         7.3760    1.6210    3.3860 n3        1 AVD     -0.027000
     14 C22         8.2040    0.4760    3.5380 c2        1 AVD     -0.038000
     15 C23         7.7080   -0.7750    3.6580 c2        1 AVD     -0.199000
     16 C26         8.6740   -1.9560    3.8030 c2        1 AVD      0.384000
     17 O42         9.6190   -1.8230    4.6280 o         1 AVD     -0.545500
     18 O27         8.4820   -2.9580    3.0680 o         1 AVD     -0.545500
     19 C24         6.2490   -0.9920    3.6700 c2        1 AVD      0.307000
     20 O25         5.6780   -1.9200    4.2360 o         1 AVD     -0.238000
     21 C17         5.4990    0.0830    2.8780 c3        1 AVD     -0.156000
     22 C18         4.0500   -0.0430    2.9140 c1        1 AVD     -0.175000
     23 C16         6.0580    1.4680    3.1580 c2        1 AVD      0.199000
     24 C15         5.1470    2.5760    3.1440 c2        1 AVD     -0.274000
     25 C14         3.7920    2.3760    3.0790 c2        1 AVD      0.104000
     26 CL29        2.7690    3.7520    3.0990 cl        1 AVD     -0.064000
     27 C13         3.2330    1.0590    3.0050 c2        1 AVD     -0.225000
     28 N10         1.8230    0.9020    3.0830 n3        1 AVD     -0.082000
     29 C3         -0.3530   -0.0720    2.5800 c2        1 AVD     -0.265000
     30 CL12       -1.0860    0.9220    3.7820 cl        1 AVD     -0.088000
     31 F11        -1.3190   -2.4450    0.0680 f         1 AVD     -0.170000
     32 C1          1.4960   -0.4070    0.9900 c2        1 AVD      0.082000
     33 F9          2.5870    0.1190    0.3860 f         1 AVD     -0.085000
     34 H6          1.1060   -1.8220   -0.5690 ha        1 AVD      0.147000
     35 H4         -0.1110   -2.8730    1.6590 h1        1 AVD      0.121000
     36 H33         8.8150    5.7340    2.4060 hc        1 AVD      0.159000
     37 H32        10.3310    4.8210    2.7520 hc        1 AVD      0.159000
     38 H31         9.6570    6.2780    4.7470 ha        1 AVD      0.108000
     39 H30         8.4310    4.8800    6.4420 ha        1 AVD      0.127000
     40 H22         9.2870    0.6910    3.5730 h4        1 AVD      0.186000
     41 H18         5.7640   -0.1370    1.7830 hc        1 AVD      0.207000
     42 H15         5.5610    3.5960    3.1950 ha        1 AVD      0.158000
     43 HN10        1.3990    1.3100    3.8980 hn        1 AVD      0.246000
     44 C39         8.7240    3.3120    1.2200 c2        1 AVD      0.347000
@<TRIPOS>BOND
     1    1    2 1   
     2    1    4 1   
     3    1   31 1   
     4    1   35 1   
     5    2   32 1   
     6    2   34 1   
     7    3   28 1   
     8    3   29 1   
     9    3   32 1   
    10    4   29 1   
    11    5   44 1   
    12    6   44 1   
    13    7    8 1   
    14    7   12 1   
    15    7   44 1   
    16    8    9 1   
    17    8   36 1   
    18    8   37 1   
    19    9   10 1   
    20    9   38 1   
    21   10   11 1   
    22   10   39 1   
    23   11   12 1   
    24   12   13 1   
    25   13   14 1   
    26   13   23 1   
    27   14   15 1   
    28   14   40 1   
    29   15   16 1   
    30   15   19 1   
    31   16   17 1   
    32   16   18 1   
    33   19   20 1   
    34   19   21 1   
    35   21   22 1   
    36   21   23 1   
    37   21   41 1   
    38   22   27 1   
    39   23   24 1   
    40   24   25 1   
    41   24   42 1   
    42   25   26 1   
    43   25   27 1   
    44   27   28 1   
    45   28   43 1   
    46   29   30 1   
    47   32   33 1   
@<TRIPOS>SUBSTRUCTURE
     1 AVD         1 TEMP              0 ****  ****    0 ROOT
