@<TRIPOS>MOLECULE
AVD
   44    47     1     0     0
SMALL
bcc


@<TRIPOS>ATOM
      1 C5          5.9020   -0.5690    1.7890 ca        1 AVD      0.086900
      2 C6          4.6320   -1.0010    2.2020 ca        1 AVD     -0.175000
      3 C2          3.7210   -0.5350   -0.0490 ca        1 AVD      0.153600
      4 C4          6.0990   -0.1240    0.4770 ca        1 AVD     -0.148000
      5 O40        -1.5290    3.3560    1.5060 o         1 AVD     -0.816300
      6 O41        -3.3790    2.7680    2.6190 o         1 AVD     -0.816300
      7 C34        -3.4260    2.6870    0.2290 ca        1 AVD     -0.083600
      8 C33        -4.1140    3.7910   -0.2980 ca        1 AVD     -0.124000
      9 C32        -4.8040    3.7180   -1.5000 ca        1 AVD     -0.150000
     10 C31        -4.8250    2.5160   -2.2090 ca        1 AVD     -0.165000
     11 C30        -4.1530    1.4080   -1.7140 ca        1 AVD     -0.139000
     12 C28        -3.4370    1.4780   -0.4920 ca        1 AVD      0.114600
     13 N21        -2.7990    0.2780   -0.0330 na        1 AVD     -0.377200
     14 C22        -3.6280   -0.8490    0.0970 cc        1 AVD      0.080000
     15 C23        -3.2000   -2.1360    0.0310 cd        1 AVD     -0.270400
     16 C26        -4.2260   -3.2560    0.1880 c         1 AVD      0.934800
     17 O42        -5.1180   -3.3410   -0.7060 o         1 AVD     -0.829800
     18 O27        -4.1570   -4.0080    1.1950 o         1 AVD     -0.829800
     19 C24        -1.7990   -2.4350   -0.2340 c         1 AVD      0.602900
     20 O25        -1.3280   -3.5710   -0.4170 o         1 AVD     -0.586100
     21 C17        -0.9140   -1.2440   -0.3240 ca        1 AVD     -0.233600
     22 C18         0.4570   -1.4460   -0.5240 ca        1 AVD     -0.010000
     23 C16        -1.4360    0.0760   -0.2400 ca        1 AVD      0.225600
     24 C15        -0.5270    1.1700   -0.3460 ca        1 AVD     -0.156000
     25 C14         0.8140    0.9400   -0.5690 ca        1 AVD      0.045400
     26 CL29        1.8690    2.2760   -0.7410 cl        1 AVD     -0.132400
     27 C13         1.3440   -0.3770   -0.6710 ca        1 AVD     -0.025400
     28 N10         2.7080   -0.6220   -1.0050 nh        1 AVD     -0.570000
     29 C3          5.0250   -0.1060   -0.4100 ca        1 AVD     -0.027600
     30 CL12        5.3380    0.4620   -1.9920 cl        1 AVD     -0.111400
     31 F11         6.9410   -0.5860    2.6630 f         1 AVD     -0.154900
     32 C1          3.5600   -0.9930    1.3030 ca        1 AVD      0.130900
     33 F9          2.3650   -1.4420    1.7450 f         1 AVD     -0.101900
     34 H6          4.4710   -1.3480    3.2330 ha        1 AVD      0.160000
     35 H4          7.0950    0.2160    0.1580 ha        1 AVD      0.147000
     36 H33        -4.0970    4.7300    0.2770 ha        1 AVD      0.132000
     37 H32        -5.3360    4.5960   -1.8900 ha        1 AVD      0.102000
     38 H31        -5.3770    2.4420   -3.1560 ha        1 AVD      0.107000
     39 H30        -4.1920    0.4580   -2.2720 ha        1 AVD      0.140000
     40 H22        -4.6930   -0.6080    0.2780 h4        1 AVD      0.170000
     41 H18         0.8190   -2.4890   -0.5700 ha        1 AVD      0.161000
     42 H15        -0.8980    2.2050   -0.1810 ha        1 AVD      0.218000
     43 HN10        2.9460   -0.1600   -1.8650 hn        1 AVD      0.408800
     44 C39        -2.7170    2.9280    1.5610 c         1 AVD      0.916200
@<TRIPOS>BOND
     1    1    2 ar  
     2    1    4 ar  
     3    1   31 1   
     4    2   32 ar  
     5    2   34 1   
     6    3   28 1   
     7    3   29 ar  
     8    3   32 ar  
     9    4   29 ar  
    10    4   35 1   
    11    5   44 1   
    12    6   44 1   
    13    7    8 ar  
    14    7   12 ar  
    15    7   44 1   
    16    8    9 ar  
    17    8   36 1   
    18    9   10 ar  
    19    9   37 1   
    20   10   11 ar  
    21   10   38 1   
    22   11   12 ar  
    23   11   39 1   
    24   12   13 1   
    25   13   14 1   
    26   13   23 1   
    27   14   15 2   
    28   14   40 1   
    29   15   16 1   
    30   15   19 1   
    31   16   17 1   
    32   16   18 1   
    33   19   20 2   
    34   19   21 1   
    35   21   22 ar  
    36   21   23 ar  
    37   22   27 ar  
    38   22   41 1   
    39   23   24 ar  
    40   24   25 ar  
    41   24   42 1   
    42   25   26 1   
    43   25   27 ar  
    44   27   28 1   
    45   28   43 1   
    46   29   30 1   
    47   32   33 1   
@<TRIPOS>SUBSTRUCTURE
     1 AVD         1 TEMP              0 ****  ****    0 ROOT
