@<TRIPOS>MOLECULE
AVE
   36    37     1     0     0
SMALL
bcc


@<TRIPOS>ATOM
      1 C1          0.5780    0.4970   -0.2020 ca        1 AVE      0.081000
      2 C2          0.1460    1.4230    0.7870 ca        1 AVE      0.056000
      3 C3          0.6060    1.2900    2.1060 ca        1 AVE     -0.092000
      4 C13         3.8660    0.3690    5.3980 c2        1 AVE      0.412000
      5 C15         6.0090    0.2340    6.6340 c2        1 AVE      0.055000
      6 C16         5.4360    0.7890    7.9090 c3        1 AVE     -0.188000
      7 C19         8.1980    0.1140    7.7770 c2        1 AVE     -0.042000
      8 C20         7.3480   -0.1050    6.6360 c2        1 AVE     -0.083000
      9 O28         1.0790    0.0250    4.7820 o         1 AVE     -0.273000
     10 C30         8.5610   -0.0550    4.5690 c3        1 AVE      0.521000
     11 C5          1.9070   -0.6520    1.4670 ca        1 AVE     -0.036000
     12 C6          1.4550   -0.5400    0.1500 ca        1 AVE     -0.149000
     13 F11         0.1410    0.6140   -1.4750 f         1 AVE     -0.084000
     14 F34        -0.7030    2.4200    0.4550 f         1 AVE     -0.083000
     15 C4          1.4880    0.2610    2.4430 ca        1 AVE     -0.109000
     16 N12         3.2840    0.2720    4.0980 n         1 AVE     -0.390000
     17 O27         3.1770    0.7220    6.3720 o         1 AVE     -0.316000
     18 N14         5.2310    0.0700    5.4860 n         1 AVE     -0.321000
     19 C17         6.3260    0.9820    9.0440 c1        1 AVE     -0.047000
     20 C18         7.7060    0.6610    8.9250 c2        1 AVE     -0.168000
     21 O26         9.1760    2.0680   10.1710 o         1 AVE     -0.552500
     22 O25         8.8940   -0.0420   10.8730 o         1 AVE     -0.552500
     23 O29         7.9010   -0.7990    5.5510 os        1 AVE     -0.255000
     24 F32         9.2020   -0.9670    3.7930 f         1 AVE     -0.157333
     25 F33         7.6640    0.6030    3.7800 f         1 AVE     -0.157333
     26 F31         9.4620    0.8370    5.0410 f         1 AVE     -0.157333
     27 H3          0.2590    1.9950    2.8800 ha        1 AVE      0.181000
     28 H16         4.6040    0.1040    8.2600 hc        1 AVE      0.169000
     29 H19         9.2570   -0.1750    7.6750 ha        1 AVE      0.152000
     30 H6          1.7780   -1.2570   -0.6220 ha        1 AVE      0.171000
     31 HN12        3.8800    0.2610    3.3010 hn        1 AVE      0.237000
     32 HN14        5.7070   -0.2880    4.6840 hn        1 AVE      0.237000
     33 H17         4.9380    1.7820    7.6980 hc        1 AVE      0.169000
     34 C9          1.9130    0.1660    3.8800 c2        1 AVE      0.364000
     35 CL10        2.9560   -1.9290    1.8530 cl        1 AVE      0.021000
     36 C24         8.6590    0.9220   10.0960 c2        1 AVE      0.385000
@<TRIPOS>BOND
     1    1    2 1   
     2    1   12 1   
     3    1   13 1   
     4    2    3 1   
     5    2   14 1   
     6    3   15 1   
     7    3   27 1   
     8    4   16 1   
     9    4   17 1   
    10    4   18 1   
    11    5    6 1   
    12    5    8 1   
    13    5   18 1   
    14    6   19 1   
    15    6   28 1   
    16    6   33 1   
    17    7    8 1   
    18    7   20 1   
    19    7   29 1   
    20    8   23 1   
    21    9   34 1   
    22   10   23 1   
    23   10   24 1   
    24   10   25 1   
    25   10   26 1   
    26   11   12 1   
    27   11   15 1   
    28   11   35 1   
    29   12   30 1   
    30   15   34 1   
    31   16   31 1   
    32   16   34 1   
    33   18   32 1   
    34   19   20 1   
    35   20   36 1   
    36   21   36 1   
    37   22   36 1   
@<TRIPOS>SUBSTRUCTURE
     1 AVE         1 TEMP              0 ****  ****    0 ROOT
