@<TRIPOS>MOLECULE
AVE
   37    38     1     0     0
SMALL
bcc


@<TRIPOS>ATOM
      1 C1          2.1530    2.6290    1.6320 ca        1 AVE      0.163900
      2 C2          3.4740    2.1110    1.4980 ca        1 AVE      0.112900
      3 C3          3.8150    0.9140    2.1460 ca        1 AVE     -0.064000
      4 C13         3.8650   -2.2710    5.6670 c         1 AVE      0.653100
      5 C15         5.5950   -0.8140    6.5810 ca        1 AVE     -0.101400
      6 C16         5.6320   -0.3680    7.9160 ca        1 AVE     -0.126000
      7 C19         6.5160    1.3430    5.8680 ca        1 AVE     -0.085000
      8 C20         6.0770    0.0560    5.5670 ca        1 AVE      0.027100
      9 O28         3.6870   -2.0380    2.9750 o         1 AVE     -0.375100
     10 C30         7.1230   -0.8880    3.6240 c3        1 AVE      0.829700
     11 C5          1.5620    0.7530    3.0490 ca        1 AVE      0.049400
     12 C6          1.2050    1.9380    2.4090 ca        1 AVE     -0.138000
     13 F11         1.8110    3.7740    1.0130 f         1 AVE     -0.088900
     14 F34         4.3850    2.7650    0.7520 f         1 AVE     -0.088900
     15 C4          2.8620    0.2400    2.9170 ca        1 AVE     -0.185600
     16 N12         3.1980   -1.0400    5.0420 ny        1 AVE     -0.568600
     17 O27         3.2260   -3.3240    5.5510 o         1 AVE     -0.515100
     18 N14         5.0780   -2.0980    6.2670 ns        1 AVE     -0.402100
     19 C17         6.0780    0.9190    8.2090 ca        1 AVE     -0.090000
     20 C18         6.4860    1.7890    7.1950 ca        1 AVE     -0.091600
     21 O26         6.9210    3.5560    8.7280 o         1 AVE     -0.781300
     22 O25         7.0340    4.0000    6.5200 o         1 AVE     -0.781300
     23 O29         5.9750   -0.3380    4.2290 os        1 AVE     -0.436900
     24 F32         6.7750   -1.0080    2.3170 f         1 AVE     -0.206967
     25 F33         8.2080   -0.0910    3.7350 f         1 AVE     -0.206967
     26 F31         7.3940   -2.1150    4.1310 f         1 AVE     -0.206967
     27 H3          4.8430    0.5120    2.0530 ha        1 AVE      0.197000
     28 H16         5.3060   -1.0310    8.7320 ha        1 AVE      0.141000
     29 H19         6.8860    2.0290    5.0840 ha        1 AVE      0.197000
     30 H6          0.1850    2.3490    2.5020 ha        1 AVE      0.190000
     31 HN12        3.6300   -0.1670    5.3830 hn        1 AVE      0.478800
     32 HN14        5.5130   -2.9080    6.6630 hn        1 AVE      0.379500
     33 H17         6.1120    1.2890    9.2510 ha        1 AVE      0.191000
     34 C9          3.2760   -1.0360    3.5310 c         1 AVE      0.595700
     35 Cl10        0.3930   -0.0660    3.9700 cl        1 AVE     -0.059400
     36 C24         6.8580    3.2510    7.5130 c         1 AVE      0.914200
     37 H122        2.2070   -1.0600    5.3160 hn        1 AVE      0.478800
@<TRIPOS>BOND
     1    1    2 ar  
     2    1   12 ar  
     3    1   13 1   
     4    2    3 ar  
     5    2   14 1   
     6    3   15 ar  
     7    3   27 1   
     8    4   16 1   
     9    4   17 2   
    10    4   18 1   
    11    5    6 ar  
    12    5    8 ar  
    13    5   18 1   
    14    6   19 ar  
    15    6   28 1   
    16    7    8 ar  
    17    7   20 ar  
    18    7   29 1   
    19    8   23 1   
    20    9   34 2   
    21   10   23 1   
    22   10   24 1   
    23   10   25 1   
    24   10   26 1   
    25   11   12 ar  
    26   11   15 ar  
    27   11   35 1   
    28   12   30 1   
    29   15   34 1   
    30   16   31 1   
    31   16   34 1   
    32   16   37 1   
    33   18   32 1   
    34   19   20 ar  
    35   19   33 1   
    36   20   36 1   
    37   21   36 1   
    38   22   36 1   
@<TRIPOS>SUBSTRUCTURE
     1 AVE         1 TEMP              0 ****  ****    0 ROOT
