@<TRIPOS>MOLECULE
AVE
   36    37     1     0     0
SMALL
bcc


@<TRIPOS>ATOM
      1 C1          6.1520   -1.3120    0.3270 ca        1 AVE      0.114900
      2 C2          5.9010   -1.1090   -1.0570 ca        1 AVE      0.086900
      3 C3          4.7430   -0.4250   -1.4560 ca        1 AVE     -0.094000
      4 C13         0.1480    0.8770   -0.9300 c         1 AVE      0.765100
      5 C15        -2.2610    0.5980   -0.5010 ca        1 AVE      0.013600
      6 C16        -2.7570    1.7620   -1.1150 ca        1 AVE     -0.145000
      7 C19        -4.4090    0.3720    0.6810 ca        1 AVE     -0.073000
      8 C20        -3.1140   -0.0760    0.4160 ca        1 AVE     -0.002900
      9 O28         2.7740    1.7680   -1.7570 o         1 AVE     -0.520100
     10 C30        -2.8800   -2.4400    0.7360 c3        1 AVE      0.807700
     11 C5          4.0910   -0.1520    0.8610 ca        1 AVE      0.044400
     12 C6          5.2420   -0.8260    1.2780 ca        1 AVE     -0.151000
     13 F11         7.2640   -1.9690    0.7250 f         1 AVE     -0.120900
     14 F34         6.7760   -1.5700   -1.9780 f         1 AVE     -0.120900
     15 C4          3.8380    0.0440   -0.5030 ca        1 AVE     -0.130600
     16 N12         1.4080    0.2680   -0.6250 n         1 AVE     -0.610500
     17 O27         0.1110    2.0460   -1.3520 o         1 AVE     -0.551100
     18 N14        -0.9900    0.0550   -0.8080 n         1 AVE     -0.427100
     19 C17        -4.0460    2.2110   -0.8330 ca        1 AVE     -0.081000
     20 C18        -4.8800    1.5270    0.0540 ca        1 AVE     -0.127600
     21 O26        -6.6740    3.0700   -0.2640 o         1 AVE     -0.818300
     22 O25        -6.9880    1.3730    1.1630 o         1 AVE     -0.818300
     23 O29        -2.5930   -1.1410    1.1640 os        1 AVE     -0.375900
     24 F32        -2.4940   -3.2480    1.7590 f         1 AVE     -0.227633
     25 F33        -4.1840   -2.6720    0.4590 f         1 AVE     -0.227633
     26 F31        -2.1320   -2.7660   -0.3550 f         1 AVE     -0.227633
     27 H3          4.5560   -0.2460   -2.5280 ha        1 AVE      0.178000
     28 H16        -2.1180    2.3270   -1.8120 ha        1 AVE      0.157000
     29 H19        -5.0680   -0.1700    1.3800 ha        1 AVE      0.176000
     30 H6          5.4490   -0.9800    2.3490 ha        1 AVE      0.171000
     31 HN12        1.4170   -0.5550   -0.0670 hn        1 AVE      0.318500
     32 HN14       -0.8520   -0.8550   -0.4150 hn        1 AVE      0.302500
     33 H17        -4.4390    3.1230   -1.3150 ha        1 AVE      0.167000
     34 C9          2.6360    0.7910   -1.0100 c         1 AVE      0.688700
     35 CL10        3.0290    0.4310    2.0470 cl        1 AVE     -0.048400
     36 C24        -6.2930    2.0300    0.3410 c         1 AVE      0.912200
@<TRIPOS>BOND
     1    1    2 ar  
     2    1   12 ar  
     3    1   13 1   
     4    2    3 ar  
     5    2   14 1   
     6    3   15 ar  
     7    3   27 1   
     8    4   16 1   
     9    4   17 2   
    10    4   18 1   
    11    5    6 ar  
    12    5    8 ar  
    13    5   18 1   
    14    6   19 ar  
    15    6   28 1   
    16    7    8 ar  
    17    7   20 ar  
    18    7   29 1   
    19    8   23 1   
    20    9   34 2   
    21   10   23 1   
    22   10   24 1   
    23   10   25 1   
    24   10   26 1   
    25   11   12 ar  
    26   11   15 ar  
    27   11   35 1   
    28   12   30 1   
    29   15   34 1   
    30   16   31 1   
    31   16   34 1   
    32   18   32 1   
    33   19   20 ar  
    34   19   33 1   
    35   20   36 1   
    36   21   36 1   
    37   22   36 1   
@<TRIPOS>SUBSTRUCTURE
     1 AVE         1 TEMP              0 ****  ****    0 ROOT
