@<TRIPOS>MOLECULE
AVE
   36    29     1     0     0
SMALL
bcc


@<TRIPOS>ATOM
      1 C1         -4.1430   -1.0870   -5.2410 c1        1 AVE      0.078000
      2 C2         -2.7630   -0.9650   -5.2570 c1        1 AVE      0.055000
      3 C3         -2.0590   -0.9010   -4.0640 c1        1 AVE     -0.092000
      4 C9         -2.2210   -0.7330   -1.4490 c1        1 AVE      0.378500
      5 C13        -0.3450   -0.3140    0.0860 c1        1 AVE      0.378500
      6 C15         1.5540   -0.0150    1.6210 c1        1 AVE      0.021000
      7 C16         1.4540   -1.1000    2.4780 c2        1 AVE     -0.146000
      8 C19         2.7900    1.1890    3.2900 c1        1 AVE     -0.073000
      9 C20         2.2220    1.1300    2.0270 c1        1 AVE     -0.048000
     10 C24         3.3080    0.0960    5.5270 c1        1 AVE      0.361000
     11 O28        -2.9690   -0.8640   -0.5010 o         1 AVE     -0.298500
     12 C30         3.0350    3.1400    1.1080 c3        1 AVE      0.522000
     13 CL10       -4.9730   -1.0930   -1.3220 cl        1 AVE      0.020000
     14 C5         -4.1170   -1.0800   -2.8400 c2        1 AVE     -0.037000
     15 C6         -4.8200   -1.1440   -4.0330 c2        1 AVE     -0.149000
     16 F11        -4.8210   -1.1770   -6.3930 f         1 AVE     -0.086000
     17 F34        -2.1120   -0.8740   -6.4240 f         1 AVE     -0.085000
     18 C4         -2.7360   -0.9580   -2.8560 c1        1 AVE     -0.106000
     19 N12        -0.8550   -0.4100   -1.2370 n2        1 AVE     -0.336500
     20 O27        -1.0970   -0.4130    1.0360 o         1 AVE     -0.298500
     21 N14         1.0440   -0.1060    0.2990 n2        1 AVE     -0.336500
     22 C17         2.0220   -1.0400    3.7410 c1        1 AVE     -0.081000
     23 C18         2.6900    0.1050    4.1470 c1        1 AVE     -0.107000
     24 O26         4.4920   -0.3010    5.6840 o         1 AVE     -0.553000
     25 O25         2.6390    0.4890    6.5180 o         1 AVE     -0.553000
     26 O29         2.7520    1.7800    0.9000 os        1 AVE     -0.259000
     27 F32         2.9760    3.7920   -0.0610 f         1 AVE     -0.155667
     28 F33         2.1360    3.6590    1.9540 f         1 AVE     -0.155667
     29 F31         4.2630    3.2660    1.6280 f         1 AVE     -0.155667
     30 H3         -1.0850   -0.8420   -4.0750 ha        1 AVE      0.181000
     31 H16         1.0030   -1.9140    2.1840 ha        1 AVE      0.157000
     32 H19         3.2780    1.9880    3.5690 ha        1 AVE      0.176000
     33 H6         -5.7930   -1.2300   -4.0220 ha        1 AVE      0.170000
     34 HN12       -0.3080   -0.2530   -1.9490 hn        1 AVE      0.225500
     35 HN14        1.6050   -0.0150   -0.4140 hn        1 AVE      0.225500
     36 H17         1.9520   -1.8040    4.3440 ha        1 AVE      0.167000
@<TRIPOS>BOND
     1    1    2 1   
     2    1   15 1   
     3    2   17 1   
     4    3   18 1   
     5    3   30 1   
     6    4   11 1   
     7    4   19 1   
     8    5   20 1   
     9    5   21 1   
    10    6    7 1   
    11    6    9 1   
    12    7   22 1   
    13    7   31 1   
    14    8   23 1   
    15    8   32 1   
    16    9   26 1   
    17   10   24 1   
    18   10   25 1   
    19   12   26 1   
    20   12   27 1   
    21   12   28 1   
    22   12   29 1   
    23   13   14 1   
    24   14   15 1   
    25   14   18 1   
    26   15   33 1   
    27   19   34 1   
    28   21   35 1   
    29   22   36 1   
@<TRIPOS>SUBSTRUCTURE
     1 AVE         1 TEMP              0 ****  ****    0 ROOT
