@<TRIPOS>MOLECULE
AVF
   47    49     1     0     0
SMALL
bcc


@<TRIPOS>ATOM
      1 C1          4.6690    2.9990   -0.4610 ca        1 AVF      0.116900
      2 C2          5.1830    1.7190   -0.8050 ca        1 AVF      0.069900
      3 C3          4.3510    0.5970   -0.7100 ca        1 AVF     -0.094000
      4 C11         0.1570   -1.6900   -0.9210 c         1 AVF      0.764100
      5 C13        -2.1960   -2.3550   -0.8310 ca        1 AVF      0.059600
      6 C14        -2.0970   -3.7310   -1.0900 ca        1 AVF     -0.153000
      7 C15        -3.1230   -4.5990   -0.6830 ca        1 AVF      0.112900
      8 C16        -4.2540   -4.1070   -0.0130 ca        1 AVF     -0.171000
      9 C24        -3.9540    0.4160   -0.8120 c3        1 AVF      0.191300
     10 C27        -3.5380    1.8680   -0.5750 c3        1 AVF     -0.061400
     11 C28        -3.8070    2.3310    0.8430 c3        1 AVF     -0.191700
     12 C29        -3.0510    3.6700    1.0780 c         1 AVF      0.918600
     13 O31        -1.7910    3.6620    0.9500 o         1 AVF     -0.843800
     14 O30        -3.7330    4.6850    1.3780 o         1 AVF     -0.843800
     15 C26        -3.3410    1.3230    1.8750 c3        1 AVF     -0.061400
     16 C25        -3.7590   -0.1110    1.5440 c3        1 AVF      0.191300
     17 N21        -3.3730   -0.4650    0.1890 nh        1 AVF     -0.674000
     18 C18        -3.3440   -1.8460   -0.1330 ca        1 AVF      0.094600
     19 C17        -4.3510   -2.7470    0.2510 ca        1 AVF     -0.132000
     20 F23        -3.0160   -5.9270   -0.9410 f         1 AVF     -0.150900
     21 N12        -1.1950   -1.4700   -1.3060 n         1 AVF     -0.429100
     22 O19         0.6240   -2.8350   -0.7780 o         1 AVF     -0.567100
     23 N10         0.9890   -0.5410   -0.8250 n         1 AVF     -0.602500
     24 O20         2.7210   -1.5490    0.3380 o         1 AVF     -0.534100
     25 C4          3.0230    0.7300   -0.2930 ca        1 AVF     -0.143600
     26 F22         6.4660    1.5900   -1.2170 f         1 AVF     -0.129900
     27 F9          5.4620    4.0900   -0.5470 f         1 AVF     -0.124900
     28 C6          3.3410    3.1200   -0.0310 ca        1 AVF     -0.149000
     29 C5          2.5150    1.9900    0.0530 ca        1 AVF      0.029400
     30 CL8         0.9320    2.2280    0.5830 cl        1 AVF      0.035600
     31 H3          4.7510   -0.4020   -0.9540 ha        1 AVF      0.172000
     32 H14        -1.2020   -4.1420   -1.5860 ha        1 AVF      0.175000
     33 H16        -5.0480   -4.7980    0.3010 ha        1 AVF      0.140000
     34 H24        -5.0810    0.3480   -0.8020 h1        1 AVF      0.018450
     35 H24A       -3.6070    0.0850   -1.8310 h1        1 AVF      0.018450
     36 H27        -2.4420    1.9890   -0.7890 hc        1 AVF      0.050950
     37 H27A       -4.1010    2.5150   -1.2950 hc        1 AVF      0.050950
     38 H28        -4.9070    2.5130    0.9720 hc        1 AVF      0.037700
     39 H26        -2.2220    1.3810    1.9530 hc        1 AVF      0.050950
     40 H26A       -3.7690    1.5850    2.8770 hc        1 AVF      0.050950
     41 H25        -3.2550   -0.8240    2.2530 h1        1 AVF      0.018450
     42 H25A       -4.8750   -0.2150    1.6890 h1        1 AVF      0.018450
     43 H17        -5.2350   -2.3690    0.7900 ha        1 AVF      0.141000
     44 HN12       -1.4890   -0.5090   -1.3030 hn        1 AVF      0.320500
     45 HN10        0.6160    0.3450   -1.0940 hn        1 AVF      0.334500
     46 H6          2.9480    4.1140    0.2400 ha        1 AVF      0.182000
     47 C7          2.2400   -0.5470   -0.2110 c         1 AVF      0.692700
@<TRIPOS>BOND
     1    1    2 ar  
     2    1   27 1   
     3    1   28 ar  
     4    2    3 ar  
     5    2   26 1   
     6    3   25 ar  
     7    3   31 1   
     8    4   21 1   
     9    4   22 2   
    10    4   23 1   
    11    5    6 ar  
    12    5   18 ar  
    13    5   21 1   
    14    6    7 ar  
    15    6   32 1   
    16    7    8 ar  
    17    7   20 1   
    18    8   19 ar  
    19    8   33 1   
    20    9   10 1   
    21    9   17 1   
    22    9   34 1   
    23    9   35 1   
    24   10   11 1   
    25   10   36 1   
    26   10   37 1   
    27   11   12 1   
    28   11   15 1   
    29   11   38 1   
    30   12   13 1   
    31   12   14 1   
    32   15   16 1   
    33   15   39 1   
    34   15   40 1   
    35   16   17 1   
    36   16   41 1   
    37   16   42 1   
    38   17   18 1   
    39   18   19 ar  
    40   19   43 1   
    41   21   44 1   
    42   23   45 1   
    43   23   47 1   
    44   24   47 2   
    45   25   29 ar  
    46   25   47 1   
    47   28   29 ar  
    48   28   46 1   
    49   29   30 1   
@<TRIPOS>SUBSTRUCTURE
     1 AVF         1 TEMP              0 ****  ****    0 ROOT
