@<TRIPOS>MOLECULE
AVF
   47    42     1     0     0
SMALL
bcc


@<TRIPOS>ATOM
      1 C1         -5.8500   -4.7250    0.8580 c1        1 AVF      0.071000
      2 C2         -4.9590   -4.3900   -0.1550 c1        1 AVF      0.071000
      3 C3         -4.4210   -3.1020   -0.2130 c1        1 AVF     -0.140333
      4 C7         -4.0870   -0.7750    0.7440 c1        1 AVF      0.362000
      5 C11        -2.0800    0.5550    0.0930 c1        1 AVF      0.389000
      6 C13        -0.0020    1.7870   -0.4590 c1        1 AVF      0.060000
      7 C14        -0.4630    3.1000   -0.3110 c1        1 AVF     -0.140333
      8 C15         0.4450    4.1430   -0.1520 c1        1 AVF      0.071000
      9 C16         1.8300    3.8760   -0.1390 c1        1 AVF     -0.165000
     10 C24         2.6520   -0.0630   -1.6510 c3        1 AVF     -0.067500
     11 C27         4.0000    0.6370   -1.5890 c3        1 AVF     -0.173000
     12 C28         4.7770    0.3160   -0.3230 c3        1 AVF     -0.184000
     13 C29         6.1170    1.1220   -0.2560 c2        1 AVF      0.335000
     14 O31         6.5840    1.4890    0.8800 o         1 AVF     -0.574000
     15 O30         6.8130    1.2800   -1.3090 o         1 AVF     -0.574000
     16 C26         3.8780    0.5660    0.8830 c3        1 AVF     -0.173000
     17 C25         2.5330   -0.1330    0.7730 c3        1 AVF     -0.067500
     18 N21         1.8420    0.1600   -0.4650 n3        1 AVF     -0.243000
     19 C18         1.3740    1.5220   -0.4470 c2        1 AVF     -0.036000
     20 C17         2.2870    2.5730   -0.2860 c2        1 AVF     -0.108000
     21 F23         0.0090    5.4210   -0.1810 f         1 AVF     -0.096667
     22 N12        -0.9360    0.7230   -0.7320 n2        1 AVF     -0.279000
     23 O19        -2.2710    1.3120    1.0320 o         1 AVF     -0.320000
     24 N10        -3.0270   -0.4920   -0.1920 n2        1 AVF     -0.389000
     25 O20        -4.3970    0.0560    1.5790 o         1 AVF     -0.283000
     26 C4         -4.7750   -2.1570    0.7390 c1        1 AVF     -0.112000
     27 F22        -4.7220   -5.2420   -1.1290 f         1 AVF     -0.096667
     28 F9         -6.3620   -5.9770    0.9200 f         1 AVF     -0.096667
     29 C6         -6.2070   -3.7790    1.8130 c1        1 AVF     -0.140333
     30 C5         -5.6700   -2.4920    1.7550 c1        1 AVF     -0.033000
     31 CL8        -5.9580   -1.3730    3.0640 cl        1 AVF      0.031000
     32 H3         -3.7940   -2.8670   -0.9250 ha        1 AVF      0.173000
     33 H14        -1.4360    3.2960   -0.3830 ha        1 AVF      0.173000
     34 H16         2.4480    4.6510   -0.1120 ha        1 AVF      0.156000
     35 H24         2.1580    0.2680   -2.4420 h1        1 AVF      0.072500
     36 H24A        2.8040   -1.0350   -1.7540 h1        1 AVF      0.072500
     37 H27         4.5380    0.3580   -2.3700 hc        1 AVF      0.091000
     38 H27A        3.8540    1.6160   -1.6360 hc        1 AVF      0.091000
     39 H28         5.1100   -0.6090   -0.3260 hc        1 AVF      0.077000
     40 H26         3.7280    1.5250    0.9680 hc        1 AVF      0.091000
     41 H26A        4.3350    0.2450    1.6870 hc        1 AVF      0.091000
     42 H25         1.9630    0.1480    1.5330 h1        1 AVF      0.072500
     43 H25A        2.6790   -1.1140    0.8300 h1        1 AVF      0.072500
     44 H17         3.2690    2.3910   -0.3140 ha        1 AVF      0.227000
     45 HN12       -0.8270    0.2040   -1.4580 hn        1 AVF      0.232000
     46 HN10       -2.9340   -1.0060   -0.9590 hn        1 AVF      0.235000
     47 H6         -6.8460   -4.0120    2.5170 ha        1 AVF      0.173000
@<TRIPOS>BOND
     1    1   28 1   
     2    1   29 1   
     3    2    3 1   
     4    2   27 1   
     5    3   32 1   
     6    4   25 1   
     7    4   26 1   
     8    5   23 1   
     9    5   24 1   
    10    6   19 1   
    11    6   22 1   
    12    7    8 1   
    13    7   33 1   
    14    8   21 1   
    15    9   20 1   
    16    9   34 1   
    17   10   11 1   
    18   10   18 1   
    19   10   35 1   
    20   10   36 1   
    21   11   12 1   
    22   11   37 1   
    23   11   38 1   
    24   12   13 1   
    25   12   16 1   
    26   12   39 1   
    27   13   14 1   
    28   13   15 1   
    29   16   17 1   
    30   16   40 1   
    31   16   41 1   
    32   17   18 1   
    33   17   42 1   
    34   17   43 1   
    35   18   19 1   
    36   19   20 1   
    37   20   44 1   
    38   22   45 1   
    39   24   46 1   
    40   26   30 1   
    41   29   47 1   
    42   30   31 1   
@<TRIPOS>SUBSTRUCTURE
     1 AVF         1 TEMP              0 ****  ****    0 ROOT
