@<TRIPOS>MOLECULE
AVF
   48    50     1     0     0
SMALL
bcc


@<TRIPOS>ATOM
      1 C1         -0.2950    0.4820    0.3600 ca        1 AVF      0.095000
      2 C2          0.6560    1.5380    0.3020 ca        1 AVF      0.059000
      3 C3          1.6720    1.6060    1.2670 ca        1 AVF     -0.091000
      4 C11         4.8050   -0.4250    4.3140 c2        1 AVF      0.406000
      5 C13         6.1390    0.4440    6.1670 c2        1 AVF     -0.059000
      6 C14         5.6550    0.2560    7.4100 c2        1 AVF     -0.155000
      7 C15         6.5550    0.1820    8.6390 c3        1 AVF      0.137000
      8 C16         7.9760    0.4260    8.3470 c1        1 AVF     -0.357000
      9 C24         9.1150   -0.4990    4.1260 c3        1 AVF     -0.080000
     10 C27         9.3660   -1.7010    3.2220 c3        1 AVF     -0.175000
     11 C28         9.4020   -2.9910    4.0270 c3        1 AVF     -0.106000
     12 C29         9.6160   -4.1610    3.1090 c2        1 AVF      0.308000
     13 O31         8.8220   -5.0390    2.7660 o         1 AVF     -0.345000
     14 O30        10.8790   -4.2310    2.6030 oh        1 AVF     -0.311000
     15 C26         8.1100   -3.1660    4.8120 c3        1 AVF     -0.176000
     16 C25         7.6480   -1.9000    5.4430 c2        1 AVF      0.101000
     17 N21         8.0590   -0.7030    5.1140 n3        1 AVF     -0.055000
     18 C18         7.6320    0.5120    5.8770 c3        1 AVF      0.058000
     19 C17         8.4580    0.6240    7.1360 c2        1 AVF     -0.333000
     20 F23         6.3180   -1.0120    9.3100 f         1 AVF     -0.170000
     21 N12         5.2870    0.6570    5.0400 ns        1 AVF     -0.312000
     22 O19         5.3540   -1.5580    4.3350 o         1 AVF     -0.432000
     23 N10         3.7100   -0.2950    3.4180 ns        1 AVF     -0.372000
     24 O20         3.0090    1.8550    3.8970 o         1 AVF     -0.330000
     25 C4          1.7570    0.6370    2.2690 ca        1 AVF     -0.118000
     26 F22         0.5770    2.4680   -0.6730 f         1 AVF     -0.077000
     27 F9         -1.2780    0.4060   -0.5610 f         1 AVF     -0.075000
     28 C6         -0.2100   -0.4760    1.3820 ca        1 AVF     -0.147000
     29 C5          0.8130   -0.3970    2.3290 ca        1 AVF     -0.031000
     30 Cl8         0.8630   -1.5660    3.5580 cl        1 AVF      0.026000
     31 H3          2.3960    2.4370    1.2380 ha        1 AVF      0.178000
     32 H14         4.5740    0.1890    7.6130 ha        1 AVF      0.129000
     33 H16         6.2090    1.0280    9.3150 h1        1 AVF      0.107000
     34 H24         7.8410    1.3870    5.1920 h1        1 AVF      0.109000
     35 H24A        8.8280    0.3850    3.4870 h1        1 AVF      0.131500
     36 H27        10.0540   -0.2320    4.6950 h1        1 AVF      0.131500
     37 H27A        8.5630   -1.7660    2.4420 hc        1 AVF      0.118500
     38 H28        10.3470   -1.5540    2.6980 hc        1 AVF      0.118500
     39 H26        10.2750   -2.9540    4.7420 hc        1 AVF      0.142000
     40 H26A        8.2460   -3.9420    5.6140 hc        1 AVF      0.155000
     41 H25         7.2800   -3.5270    4.1340 hc        1 AVF      0.155000
     42 H25A        6.8640   -1.9880    6.2320 h4        1 AVF      0.213000
     43 H17         9.5050    0.8960    6.9500 ha        1 AVF      0.113000
     44 HN12        4.7380    1.4940    5.0750 hn        1 AVF      0.259000
     45 HN10       10.9580   -5.0110    2.0270 ho        1 AVF      0.252000
     46 H6         -0.9600   -1.2830    1.4260 ha        1 AVF      0.178000
     47 C7          2.8580    0.7910    3.2700 c2        1 AVF      0.366000
     48 H102        3.5140   -1.1280    2.9010 hn        1 AVF      0.261000
@<TRIPOS>BOND
     1    1    2 1   
     2    1   27 1   
     3    1   28 1   
     4    2    3 1   
     5    2   26 1   
     6    3   25 1   
     7    3   31 1   
     8    4   21 1   
     9    4   22 1   
    10    4   23 1   
    11    5    6 1   
    12    5   18 1   
    13    5   21 1   
    14    6    7 1   
    15    6   32 1   
    16    7    8 1   
    17    7   20 1   
    18    7   33 1   
    19    8   19 1   
    20    9   10 1   
    21    9   17 1   
    22    9   35 1   
    23    9   36 1   
    24   10   11 1   
    25   10   37 1   
    26   10   38 1   
    27   11   12 1   
    28   11   15 1   
    29   11   39 1   
    30   12   13 1   
    31   12   14 1   
    32   14   45 1   
    33   15   16 1   
    34   15   40 1   
    35   15   41 1   
    36   16   17 1   
    37   16   42 1   
    38   17   18 1   
    39   18   19 1   
    40   18   34 1   
    41   19   43 1   
    42   21   44 1   
    43   23   47 1   
    44   23   48 1   
    45   24   47 1   
    46   25   29 1   
    47   25   47 1   
    48   28   29 1   
    49   28   46 1   
    50   29   30 1   
@<TRIPOS>SUBSTRUCTURE
     1 AVF         1 TEMP              0 ****  ****    0 ROOT
