@<TRIPOS>MOLECULE
AVF
   47    49     1     0     0
SMALL
bcc


@<TRIPOS>ATOM
      1 C1          1.9650   -0.5400   -0.7040 ca        1 AVF      0.061000
      2 C2          2.9870   -1.3530   -0.1460 ca        1 AVF      0.056000
      3 C3          3.2310   -1.3120    1.2370 ca        1 AVF     -0.098000
      4 C11         4.3540   -0.0670    5.3120 c2        1 AVF      0.394000
      5 C13         6.3750    0.2150    6.7220 c2        1 AVF     -0.043000
      6 C14         5.8270   -0.0200    7.9330 c2        1 AVF     -0.198000
      7 C15         6.6500   -0.2170    9.1880 c3        1 AVF      0.135000
      8 C16         8.1070   -0.3020    8.9640 c1        1 AVF     -0.373000
      9 C24         8.9970   -0.1010    4.3020 c3        1 AVF     -0.081000
     10 C27         9.3230   -1.0820    3.1780 c3        1 AVF     -0.152000
     11 C28         8.2620   -2.1550    3.0440 c3        1 AVF     -0.181000
     12 C29         6.8780   -1.5750    2.6750 c2        1 AVF      0.333000
     13 O31         6.0030   -2.3720    2.2450 o         1 AVF     -0.578000
     14 O30         6.6530   -0.3370    2.8550 o         1 AVF     -0.578000
     15 C26         8.1360   -2.9010    4.3660 c3        1 AVF     -0.163000
     16 C25         7.9390   -1.9390    5.4900 c2        1 AVF      0.070000
     17 N21         8.2860   -0.6800    5.4380 n3        1 AVF     -0.040000
     18 C18         7.8950    0.2640    6.5350 c3        1 AVF      0.045000
     19 C17         8.6620   -0.0520    7.7910 c2        1 AVF     -0.351000
     20 F23         6.1450   -1.2900    9.9190 f         1 AVF     -0.182000
     21 N12         5.6260    0.5000    5.5520 n         1 AVF     -0.316000
     22 O19         3.5790   -0.3880    6.2350 o         1 AVF     -0.350000
     23 N10         3.9570   -0.1700    3.9500 n         1 AVF     -0.380000
     24 O20         1.7640   -0.8590    4.3180 o         1 AVF     -0.302000
     25 C4          2.4560   -0.4930    2.0590 ca        1 AVF     -0.102000
     26 F22         3.7180   -2.1560   -0.9510 f         1 AVF     -0.087000
     27 F9          1.7180   -0.5730   -2.0340 f         1 AVF     -0.101000
     28 C6          1.2130    0.3030    0.1280 ca        1 AVF     -0.167000
     29 C5          1.4640    0.3260    1.5010 ca        1 AVF     -0.019000
     30 CL8         0.5470    1.3880    2.4570 cl        1 AVF      0.009000
     31 H3          4.0640   -1.9210    1.6580 ha        1 AVF      0.236000
     32 H14         4.7350   -0.0770    8.0750 ha        1 AVF      0.163000
     33 H16         6.4800    0.7190    9.8150 h1        1 AVF      0.086000
     34 H24         8.1830    1.2920    6.1590 h1        1 AVF      0.099000
     35 H24A        9.9420    0.3600    4.7050 h1        1 AVF      0.132000
     36 H27         8.3290    0.7120    3.8810 h1        1 AVF      0.132000
     37 H27A       10.3210   -1.5560    3.3650 hc        1 AVF      0.089500
     38 H28         9.3830   -0.4970    2.2240 hc        1 AVF      0.089500
     39 H26         8.5530   -2.8780    2.2380 hc        1 AVF      0.114000
     40 H26A        9.0500   -3.5190    4.5700 hc        1 AVF      0.127500
     41 H25         7.2450   -3.5870    4.3230 hc        1 AVF      0.127500
     42 H25A        7.4300   -2.3000    6.4130 h4        1 AVF      0.201000
     43 H17         9.7510   -0.0190    7.6570 ha        1 AVF      0.098000
     44 HN12        6.1760    0.6940    4.7350 hn        1 AVF      0.240000
     45 HN10        4.6740   -0.1300    3.2380 hn        1 AVF      0.289000
     46 H6          0.4330    0.9400   -0.3150 ha        1 AVF      0.157000
     47 C7          2.6770   -0.5320    3.5470 c2        1 AVF      0.364000
@<TRIPOS>BOND
     1    1    2 1   
     2    1   27 1   
     3    1   28 1   
     4    2    3 1   
     5    2   26 1   
     6    3   25 1   
     7    3   31 1   
     8    4   21 1   
     9    4   22 1   
    10    4   23 1   
    11    5    6 1   
    12    5   18 1   
    13    5   21 1   
    14    6    7 1   
    15    6   32 1   
    16    7    8 1   
    17    7   20 1   
    18    7   33 1   
    19    8   19 1   
    20    9   10 1   
    21    9   17 1   
    22    9   35 1   
    23    9   36 1   
    24   10   11 1   
    25   10   37 1   
    26   10   38 1   
    27   11   12 1   
    28   11   15 1   
    29   11   39 1   
    30   12   13 1   
    31   12   14 1   
    32   15   16 1   
    33   15   40 1   
    34   15   41 1   
    35   16   17 1   
    36   16   42 1   
    37   17   18 1   
    38   18   19 1   
    39   18   34 1   
    40   19   43 1   
    41   21   44 1   
    42   23   45 1   
    43   23   47 1   
    44   24   47 1   
    45   25   29 1   
    46   25   47 1   
    47   28   29 1   
    48   28   46 1   
    49   29   30 1   
@<TRIPOS>SUBSTRUCTURE
     1 AVF         1 TEMP              0 ****  ****    0 ROOT
