@<TRIPOS>MOLECULE
AVF
   48    50     1     0     0
SMALL
bcc


@<TRIPOS>ATOM
      1 C1         -0.2160    0.6150    0.3390 ca        1 AVF      0.095000
      2 C2          0.7440    1.6650    0.3180 ca        1 AVF      0.059000
      3 C3          1.7500    1.7000    1.2950 ca        1 AVF     -0.091000
      4 C11         4.8330   -0.4310    4.3250 c2        1 AVF      0.406000
      5 C13         6.1510    0.3810    6.2150 c2        1 AVF     -0.059000
      6 C14         5.6500    0.1640    7.4470 c2        1 AVF     -0.155000
      7 C15         6.5330    0.0510    8.6840 c3        1 AVF      0.137000
      8 C16         7.9600    0.2910    8.4160 c1        1 AVF     -0.357000
      9 C24         9.1420   -0.5290    4.1850 c3        1 AVF     -0.080000
     10 C27         9.3950   -1.7080    3.2510 c3        1 AVF     -0.175000
     11 C28         9.4130   -3.0200    4.0220 c3        1 AVF     -0.106000
     12 C29         9.6300   -4.1670    3.0740 c2        1 AVF      0.308000
     13 O31         8.8330   -5.0300    2.7000 o         1 AVF     -0.345000
     14 O30        10.8970   -4.2310    2.5800 oh        1 AVF     -0.311000
     15 C26         8.1120   -3.2070    4.7870 c3        1 AVF     -0.176000
     16 C25         7.6520   -1.9540    5.4470 c2        1 AVF      0.101000
     17 N21         8.0750   -0.7520    5.1550 n3        1 AVF     -0.055000
     18 C18         7.6470    0.4450    5.9460 c3        1 AVF      0.058000
     19 C17         8.4590    0.5160    7.2170 c2        1 AVF     -0.333000
     20 F23         6.2790   -1.1580    9.3220 f         1 AVF     -0.170000
     21 N12         5.3140    0.6290    5.0840 n         1 AVF     -0.312000
     22 O19         5.3730   -1.5680    4.3220 o         1 AVF     -0.432000
     23 N10         3.7490   -0.2690    3.4200 n         1 AVF     -0.372000
     24 O20         3.0580    1.8720    3.9460 o         1 AVF     -0.330000
     25 C4          1.8160    0.7060    2.2730 ca        1 AVF     -0.118000
     26 F22         0.6830    2.6200   -0.6350 f         1 AVF     -0.077000
     27 F9         -1.1880    0.5700   -0.5960 f         1 AVF     -0.075000
     28 C6         -0.1490   -0.3690    1.3370 ca        1 AVF     -0.147000
     29 C5          0.8640   -0.3220    2.2970 ca        1 AVF     -0.031000
     30 CL8         0.8910   -1.5220    3.4960 cl        1 AVF      0.026000
     31 H3          2.4800    2.5260    1.2950 ha        1 AVF      0.178000
     32 H14         4.5660    0.0990    7.6350 ha        1 AVF      0.129000
     33 H16         6.1860    0.8830    9.3780 h1        1 AVF      0.107000
     34 H24         7.8710    1.3370    5.2870 h1        1 AVF      0.109000
     35 H24A       10.0770   -0.2850    4.7710 h1        1 AVF      0.131500
     36 H27         8.8690    0.3730    3.5660 h1        1 AVF      0.131500
     37 H27A       10.3830   -1.5550    2.7420 hc        1 AVF      0.118500
     38 H28         8.6000   -1.7470    2.4610 hc        1 AVF      0.118500
     39 H26        10.2780   -3.0080    4.7460 hc        1 AVF      0.142000
     40 H26A        8.2340   -4.0040    5.5690 hc        1 AVF      0.155000
     41 H25         7.2870   -3.5430    4.0910 hc        1 AVF      0.155000
     42 H25A        6.8590   -2.0580    6.2250 h4        1 AVF      0.213000
     43 H17         9.5090    0.7850    7.0500 ha        1 AVF      0.113000
     44 HN12        4.7700    1.4690    5.1340 hn        1 AVF      0.259000
     45 HN10       10.9760   -4.9950    1.9830 ho        1 AVF      0.252000
     46 H6         -0.9050   -1.1720    1.3520 ha        1 AVF      0.178000
     47 C7          2.9060    0.8270    3.2910 c2        1 AVF      0.366000
     48 H102        3.5530   -1.0880    2.8790 hn        1 AVF      0.261000
@<TRIPOS>BOND
     1    1    2 1   
     2    1   27 1   
     3    1   28 1   
     4    2    3 1   
     5    2   26 1   
     6    3   25 1   
     7    3   31 1   
     8    4   21 1   
     9    4   22 1   
    10    4   23 1   
    11    5    6 1   
    12    5   18 1   
    13    5   21 1   
    14    6    7 1   
    15    6   32 1   
    16    7    8 1   
    17    7   20 1   
    18    7   33 1   
    19    8   19 1   
    20    9   10 1   
    21    9   17 1   
    22    9   35 1   
    23    9   36 1   
    24   10   11 1   
    25   10   37 1   
    26   10   38 1   
    27   11   12 1   
    28   11   15 1   
    29   11   39 1   
    30   12   13 1   
    31   12   14 1   
    32   14   45 1   
    33   15   16 1   
    34   15   40 1   
    35   15   41 1   
    36   16   17 1   
    37   16   42 1   
    38   17   18 1   
    39   18   19 1   
    40   18   34 1   
    41   19   43 1   
    42   21   44 1   
    43   23   47 1   
    44   23   48 1   
    45   24   47 1   
    46   25   29 1   
    47   25   47 1   
    48   28   29 1   
    49   28   46 1   
    50   29   30 1   
@<TRIPOS>SUBSTRUCTURE
     1 AVF         1 TEMP              0 ****  ****    0 ROOT
