@<TRIPOS>MOLECULE
AVG
   26    25     1     0     0
SMALL
bcc


@<TRIPOS>ATOM
      1 O1          1.6070    1.1460    3.6190 o         1 AVG     -0.806300
      2 O2          1.5330    2.2250    1.6630 o         1 AVG     -0.806300
      3 C1          1.9020    1.2680    2.4050 c         1 AVG      0.915600
      4 C2          2.8530    0.2040    1.7770 c3        1 AVG     -0.010500
      5 N1          2.5030    0.0420    0.3280 n4        1 AVG     -0.831600
      6 C3          4.2990    0.6720    1.9610 c3        1 AVG     -0.103400
      7 C4          4.5680    1.0560    3.4110 c3        1 AVG      0.142400
      8 O3          4.2080    2.4340    3.5580 os        1 AVG     -0.443600
      9 C5          3.7510    2.7690    4.8640 c3        1 AVG      0.113400
     10 C6          2.9430    4.0660    4.7340 c3        1 AVG      0.104800
     11 N2          1.7330    3.9020    3.8930 n4        1 AVG     -0.853600
     12 HC2         2.6970   -0.7880    2.2900 hx        1 AVG      0.115700
     13 HN11        2.2070    0.9720   -0.0220 hn        1 AVG      0.459467
     14 HN12        1.7200   -0.6060    0.2340 hn        1 AVG      0.459467
     15 HC31        5.0070   -0.1490    1.6750 hc        1 AVG      0.074700
     16 HC32        4.5050    1.5660    1.3120 hc        1 AVG      0.074700
     17 HC41        5.6660    0.9710    3.6320 h1        1 AVG      0.069200
     18 HC42        3.9810    0.4060    4.1130 h1        1 AVG      0.069200
     19 HC51        4.6380    2.9670    5.5240 h1        1 AVG      0.081200
     20 HC52        3.1200    1.9440    5.2950 h1        1 AVG      0.081200
     21 HC61        2.6260    4.3930    5.7650 hx        1 AVG      0.103200
     22 HC62        3.5870    4.8660    4.2690 hx        1 AVG      0.103200
     23 HN21        1.1290    4.7180    3.9620 hn        1 AVG      0.475467
     24 HN22        1.2130    3.0440    4.1700 hn        1 AVG      0.475467
     25 H13         3.3010   -0.2940   -0.2100 hn        1 AVG      0.459467
     26 H23         2.0050    3.7490    2.9020 hn        1 AVG      0.475467
@<TRIPOS>BOND
     1    1    3 1   
     2    2    3 1   
     3    3    4 1   
     4    4    5 1   
     5    4    6 1   
     6    4   12 1   
     7    5   13 1   
     8    5   14 1   
     9    5   25 1   
    10    6    7 1   
    11    6   15 1   
    12    6   16 1   
    13    7    8 1   
    14    7   17 1   
    15    7   18 1   
    16    8    9 1   
    17    9   10 1   
    18    9   19 1   
    19    9   20 1   
    20   10   11 1   
    21   10   21 1   
    22   10   22 1   
    23   11   23 1   
    24   11   24 1   
    25   11   26 1   
@<TRIPOS>SUBSTRUCTURE
     1 AVG         1 TEMP              0 ****  ****    0 ROOT
