@<TRIPOS>MOLECULE
AVG
   26    25     1     0     0
SMALL
bcc


@<TRIPOS>ATOM
      1 O1          1.6710    1.1210    3.7240 o         1 AVG     -0.806300
      2 O2          1.4470    2.1310    1.7420 o         1 AVG     -0.806300
      3 C1          1.8920    1.2120    2.4910 c         1 AVG      0.915600
      4 C2          2.8420    0.1590    1.8420 c3        1 AVG     -0.010500
      5 N1          2.4150   -0.0620    0.4220 n4        1 AVG     -0.831600
      6 C3          4.2780    0.6810    1.9270 c3        1 AVG     -0.103400
      7 C4          4.6170    1.1220    3.3450 c3        1 AVG      0.142400
      8 O3          4.2180    2.4910    3.4690 os        1 AVG     -0.443600
      9 C5          3.8260    2.8550    4.7890 c3        1 AVG      0.113400
     10 C6          2.9670    4.1200    4.6650 c3        1 AVG      0.104800
     11 N2          1.7170    3.8870    3.9020 n4        1 AVG     -0.853600
     12 HC2         2.7500   -0.8190    2.3950 hx        1 AVG      0.115700
     13 HN11        3.1920   -0.3900   -0.1510 hn        1 AVG      0.459467
     14 HN12        2.0660    0.8450    0.0610 hn        1 AVG      0.459467
     15 HC31        4.4160    1.5580    1.2390 hc        1 AVG      0.074700
     16 HC32        4.9970   -0.1260    1.6260 hc        1 AVG      0.074700
     17 HC41        4.0940    0.4770    4.1010 h1        1 AVG      0.069200
     18 HC42        5.7280    1.0800    3.5040 h1        1 AVG      0.069200
     19 HC51        3.2500    2.0250    5.2820 h1        1 AVG      0.081200
     20 HC52        4.7420    3.1040    5.3890 h1        1 AVG      0.081200
     21 HC61        3.5540    4.9250    4.1380 hx        1 AVG      0.103200
     22 HC62        2.6990    4.4700    5.7020 hx        1 AVG      0.103200
     23 HN21        1.0890    4.6850    3.9810 hn        1 AVG      0.475467
     24 HN22        1.9360    3.7110    2.9020 hn        1 AVG      0.475467
     25 H13         1.6510   -0.7400    0.3940 hn        1 AVG      0.459467
     26 H23         1.2440    3.0230    4.2370 hn        1 AVG      0.475467
@<TRIPOS>BOND
     1    1    3 1   
     2    2    3 1   
     3    3    4 1   
     4    4    5 1   
     5    4    6 1   
     6    4   12 1   
     7    5   13 1   
     8    5   14 1   
     9    5   25 1   
    10    6    7 1   
    11    6   15 1   
    12    6   16 1   
    13    7    8 1   
    14    7   17 1   
    15    7   18 1   
    16    8    9 1   
    17    9   10 1   
    18    9   19 1   
    19    9   20 1   
    20   10   11 1   
    21   10   21 1   
    22   10   22 1   
    23   11   23 1   
    24   11   24 1   
    25   11   26 1   
@<TRIPOS>SUBSTRUCTURE
     1 AVG         1 TEMP              0 ****  ****    0 ROOT
