@<TRIPOS>MOLECULE
AVG
   24    23     1     0     0
SMALL
bcc


@<TRIPOS>ATOM
      1 O1         -2.8600    2.1340   -2.5250 o         1 AVG     -0.841800
      2 O2         -1.0290    2.3460   -3.7010 o         1 AVG     -0.841800
      3 C1         -1.6020    2.2170   -2.5830 c         1 AVG      0.890600
      4 C2         -0.7850    2.2260   -1.3110 c3        1 AVG      0.015500
      5 N1         -1.1390    3.3660   -0.5270 n3        1 AVG     -0.894800
      6 C3         -1.0650    0.9670   -0.5230 c3        1 AVG     -0.064400
      7 C4          0.2550    0.2800   -0.1760 c3        1 AVG      0.133400
      8 O3         -0.0040   -0.8700    0.6070 os        1 AVG     -0.434600
      9 C5          1.1520   -1.6300    0.9100 c3        1 AVG      0.133400
     10 C6          0.7530   -2.8610    1.7280 c3        1 AVG      0.143800
     11 N2          1.9410   -3.5880    2.1160 n3        1 AVG     -0.913800
     12 HC2         0.1650    2.2660   -1.5330 h1        1 AVG      0.040700
     13 HN11       -0.3980    3.6760   -0.0880 hn        1 AVG      0.331800
     14 HN12       -1.4670    4.0240   -1.0760 hn        1 AVG      0.331800
     15 HC31       -1.5400    1.1970    0.3020 hc        1 AVG      0.059200
     16 HC32       -1.6170    0.3630   -1.0590 hc        1 AVG      0.059200
     17 HC41        0.8220    0.8990    0.3300 h1        1 AVG      0.024200
     18 HC42        0.7130    0.0180   -1.0010 h1        1 AVG      0.024200
     19 HC51        1.7760   -1.0830    1.4270 h1        1 AVG      0.022200
     20 HC52        1.5810   -1.9170    0.0780 h1        1 AVG      0.022200
     21 HC61        0.2670   -2.5760    2.5300 h1        1 AVG      0.040200
     22 HC62        0.1770   -3.4410    1.1860 h1        1 AVG      0.040200
     23 HN21        2.0440   -3.5440    3.0300 hn        1 AVG      0.339800
     24 HN22        1.8600   -4.4660    1.8600 hn        1 AVG      0.339800
@<TRIPOS>BOND
     1    1    3 1   
     2    2    3 1   
     3    3    4 1   
     4    4    5 1   
     5    4    6 1   
     6    4   12 1   
     7    5   13 1   
     8    5   14 1   
     9    6    7 1   
    10    6   15 1   
    11    6   16 1   
    12    7    8 1   
    13    7   17 1   
    14    7   18 1   
    15    8    9 1   
    16    9   10 1   
    17    9   19 1   
    18    9   20 1   
    19   10   11 1   
    20   10   21 1   
    21   10   22 1   
    22   11   23 1   
    23   11   24 1   
@<TRIPOS>SUBSTRUCTURE
     1 AVG         1 TEMP              0 ****  ****    0 ROOT
