@<TRIPOS>MOLECULE
AVG
   24    23     1     0     0
SMALL
bcc


@<TRIPOS>ATOM
      1 O1          1.7760    0.0280   -2.6430 o         1 AVG     -0.840800
      2 O2          0.0580   -0.7620   -3.8380 o         1 AVG     -0.840800
      3 C1          0.5480   -0.1970   -2.8190 c         1 AVG      0.890600
      4 C2         -0.4400    0.2900   -1.7050 c3        1 AVG      0.015500
      5 N1         -1.8470    0.0300   -1.9890 n3        1 AVG     -0.894800
      6 C3          0.0220   -0.2940   -0.3700 c3        1 AVG     -0.065400
      7 C4         -0.6790    0.3830    0.7910 c3        1 AVG      0.133400
      8 O3         -0.1310   -0.1680    1.9960 os        1 AVG     -0.438600
      9 C5         -0.6620    0.4510    3.1570 c3        1 AVG      0.090400
     10 C6         -0.0160   -0.2290    4.3720 c3        1 AVG      0.152800
     11 N2          1.4230   -0.2100    4.4310 n3        1 AVG     -0.899800
     12 HC2        -0.3280    1.4130   -1.6560 h1        1 AVG      0.039700
     13 HN11       -1.9970    0.2490   -2.9610 hn        1 AVG      0.332300
     14 HN12       -2.0110   -0.9580   -1.8980 hn        1 AVG      0.332300
     15 HC31        1.1310   -0.1380   -0.2940 hc        1 AVG      0.059700
     16 HC32       -0.1670   -1.3970   -0.3320 hc        1 AVG      0.059700
     17 HC41       -1.7840    0.1920    0.7750 h1        1 AVG      0.023200
     18 HC42       -0.4990    1.4910    0.7760 h1        1 AVG      0.023200
     19 HC51       -1.7760    0.3180    3.1910 h1        1 AVG      0.018700
     20 HC52       -0.4320    1.5510    3.1420 h1        1 AVG      0.018700
     21 HC61       -0.3490   -1.3050    4.3920 h1        1 AVG      0.046200
     22 HC62       -0.4130    0.2810    5.2930 h1        1 AVG      0.046200
     23 HN21        1.8010   -0.7570    3.6790 hn        1 AVG      0.348800
     24 HN22        1.7620    0.7280    4.3260 hn        1 AVG      0.348800
@<TRIPOS>BOND
     1    1    3 1   
     2    2    3 1   
     3    3    4 1   
     4    4    5 1   
     5    4    6 1   
     6    4   12 1   
     7    5   13 1   
     8    5   14 1   
     9    6    7 1   
    10    6   15 1   
    11    6   16 1   
    12    7    8 1   
    13    7   17 1   
    14    7   18 1   
    15    8    9 1   
    16    9   10 1   
    17    9   19 1   
    18    9   20 1   
    19   10   11 1   
    20   10   21 1   
    21   10   22 1   
    22   11   23 1   
    23   11   24 1   
@<TRIPOS>SUBSTRUCTURE
     1 AVG         1 TEMP              0 ****  ****    0 ROOT
