@<TRIPOS>MOLECULE
AVG
   26    25     1     0     0
SMALL
bcc


@<TRIPOS>ATOM
      1 O1          1.7690    0.9910    3.7610 o         1 AVG     -0.806300
      2 O2          1.3720    2.0390    1.8270 o         1 AVG     -0.806300
      3 C1          1.9230    1.1360    2.5240 c         1 AVG      0.915600
      4 C2          2.9200    0.1830    1.7970 c3        1 AVG     -0.010500
      5 N1          2.4440   -0.0290    0.3910 nz        1 AVG     -0.831600
      6 C3          4.3130    0.8140    1.8340 c3        1 AVG     -0.103400
      7 C4          4.6840    1.2370    3.2500 c3        1 AVG      0.142400
      8 O3          4.1860    2.5670    3.4380 os        1 AVG     -0.443600
      9 C5          3.8300    2.8580    4.7860 c3        1 AVG      0.113400
     10 C6          2.8690    4.0530    4.7440 c3        1 AVG      0.104800
     11 N2          1.6060    3.7450    4.0310 nz        1 AVG     -0.853600
     12 HC2         2.9310   -0.8160    2.3190 hx        1 AVG      0.115700
     13 HN11        3.2160   -0.2760   -0.2280 hn        1 AVG      0.459467
     14 HN12        1.7350   -0.7640    0.3740 hn        1 AVG      0.459467
     15 HC31        4.3490    1.7200    1.1710 hc        1 AVG      0.074700
     16 HC32        5.0780    0.0770    1.4740 hc        1 AVG      0.074700
     17 HC41        4.2490    0.5310    4.0060 h1        1 AVG      0.069200
     18 HC42        5.8010    1.2800    3.3570 h1        1 AVG      0.069200
     19 HC51        3.3440    1.9700    5.2760 h1        1 AVG      0.081200
     20 HC52        4.7510    3.1610    5.3520 h1        1 AVG      0.081200
     21 HC61        2.6250    4.3500    5.8030 hx        1 AVG      0.103200
     22 HC62        3.3660    4.9180    4.2180 hx        1 AVG      0.103200
     23 HN21        0.9230    4.4870    4.1650 hn        1 AVG      0.475467
     24 HN22        1.2190    2.8360    4.3570 hn        1 AVG      0.475467
     25 H13         2.0090    0.8580    0.0770 hn        1 AVG      0.459467
     26 H23         1.7910    3.6170    3.0170 hn        1 AVG      0.475467
@<TRIPOS>BOND
     1    1    3 1   
     2    2    3 1   
     3    3    4 1   
     4    4    5 1   
     5    4    6 1   
     6    4   12 1   
     7    5   13 1   
     8    5   14 1   
     9    5   25 1   
    10    6    7 1   
    11    6   15 1   
    12    6   16 1   
    13    7    8 1   
    14    7   17 1   
    15    7   18 1   
    16    8    9 1   
    17    9   10 1   
    18    9   19 1   
    19    9   20 1   
    20   10   11 1   
    21   10   21 1   
    22   10   22 1   
    23   11   23 1   
    24   11   24 1   
    25   11   26 1   
@<TRIPOS>SUBSTRUCTURE
     1 AVG         1 TEMP              0 ****  ****    0 ROOT
