@<TRIPOS>MOLECULE
AVI
   26    26     1     0     0
SMALL
bcc


@<TRIPOS>ATOM
      1 CAL        -0.1570   -0.4940   -0.5310 c3        1 AVI      0.082600
      2 N           1.2030   -0.0570   -0.1300 n4        1 AVI     -0.646400
      3 CAM         1.2320    0.2640    1.3170 c3        1 AVI      0.082600
      4 CA          2.2180   -1.1060   -0.5060 c3        1 AVI     -0.034500
      5 C           2.0560   -2.4860    0.2780 c         1 AVI      0.934600
      6 OXT         2.9470   -3.3210    0.0210 o         1 AVI     -0.776800
      7 O           1.0620   -2.6160    1.0360 o         1 AVI     -0.776800
      8 CB          3.6560   -0.6280   -0.3590 c3        1 AVI     -0.115700
      9 CG          4.0370    0.4470   -1.2980 cc        1 AVI      0.283600
     10 ND1         3.2790    1.5990   -1.5530 nc        1 AVI     -0.732000
     11 CE1         3.9900    2.3250   -2.4400 cd        1 AVI      0.403400
     12 NE2         5.1890    1.6890   -2.7710 na        1 AVI     -0.313900
     13 CD2         5.2280    0.4950   -2.0540 cd        1 AVI     -0.229600
     14 HE2        -0.8960    0.3030   -0.2600 hx        1 AVI      0.094700
     15 HE3        -0.4040   -1.4550    0.0080 hx        1 AVI      0.094700
     16 HAL        -0.1760   -0.6690   -1.6380 hx        1 AVI      0.094700
     17 HE4         2.2350    0.6890    1.5800 hx        1 AVI      0.094700
     18 HAM         1.0510   -0.6810    1.9080 hx        1 AVI      0.094700
     19 HE5         0.4340    1.0180    1.5420 hx        1 AVI      0.094700
     20 HA          2.0220   -1.3460   -1.5910 hx        1 AVI      0.082700
     21 HB1         4.3010   -1.5360   -0.5520 hc        1 AVI      0.092200
     22 HB2         3.8630   -0.3000    0.6950 hc        1 AVI      0.092200
     23 HE1         3.6930    3.2920   -2.8600 h5        1 AVI      0.064100
     24 HKL         5.8790    2.0170   -3.3940 hn        1 AVI      0.307700
     25 HD2         6.0530   -0.2120   -2.1250 h4        1 AVI      0.191000
     26 H           1.4280    0.8040   -0.6480 hn        1 AVI      0.440800
@<TRIPOS>BOND
     1    1    2 1   
     2    1   14 1   
     3    1   15 1   
     4    1   16 1   
     5    2    3 1   
     6    2    4 1   
     7    2   26 1   
     8    3   17 1   
     9    3   18 1   
    10    3   19 1   
    11    4    5 1   
    12    4    8 1   
    13    4   20 1   
    14    5    6 1   
    15    5    7 1   
    16    8    9 1   
    17    8   21 1   
    18    8   22 1   
    19    9   10 1   
    20    9   13 2   
    21   10   11 2   
    22   11   12 1   
    23   11   23 1   
    24   12   13 1   
    25   12   24 1   
    26   13   25 1   
@<TRIPOS>SUBSTRUCTURE
     1 AVI         1 TEMP              0 ****  ****    0 ROOT
