@<TRIPOS>MOLECULE
AVI
   26    26     1     0     0
SMALL
bcc


@<TRIPOS>ATOM
      1 CAL        -0.1640   -0.4430   -0.5090 c3        1 AVI      0.082600
      2 N           1.2100   -0.0460   -0.1120 nx        1 AVI     -0.646400
      3 CAM         1.2640    0.2270    1.3450 c3        1 AVI      0.082600
      4 CA          2.1990   -1.1030   -0.5340 c3        1 AVI     -0.034500
      5 C           2.0180   -2.5040    0.2080 c         1 AVI      0.934600
      6 OXT         2.8910   -3.3470   -0.0850 o         1 AVI     -0.776800
      7 O           1.0310   -2.6380    0.9730 o         1 AVI     -0.776800
      8 CB          3.6480   -0.6580   -0.3920 c3        1 AVI     -0.115700
      9 CG          4.0390    0.4380   -1.3020 cc        1 AVI      0.283600
     10 ND1         3.3010    1.6120   -1.5110 nc        1 AVI     -0.732000
     11 CE1         4.0150    2.3510   -2.3850 cd        1 AVI      0.403400
     12 NE2         5.1970    1.7010   -2.7510 na        1 AVI     -0.313900
     13 CD2         5.2200    0.4850   -2.0720 cd        1 AVI     -0.229600
     14 HE2        -0.8820    0.3600   -0.2030 hx        1 AVI      0.094700
     15 HE3        -0.2000   -0.5810   -1.6210 hx        1 AVI      0.094700
     16 HAL        -0.4230   -1.4160    0.0020 hx        1 AVI      0.094700
     17 HE4         1.0690   -0.7320    1.9070 hx        1 AVI      0.094700
     18 HAM         2.2780    0.6220    1.6090 hx        1 AVI      0.094700
     19 HE5         0.4850    0.9900    1.6030 hx        1 AVI      0.094700
     20 HA          1.9850   -1.3040   -1.6240 hx        1 AVI      0.082700
     21 HB1         3.8750   -0.3680    0.6700 hc        1 AVI      0.092700
     22 HB2         4.2720   -1.5730   -0.6210 hc        1 AVI      0.092700
     23 HE1         3.7320    3.3370   -2.7700 h5        1 AVI      0.064100
     24 HKL         5.8850    2.0350   -3.3730 hn        1 AVI      0.307700
     25 HD2         6.0300   -0.2360   -2.1750 h4        1 AVI      0.191000
     26 H           1.4460    0.8270   -0.6050 hn        1 AVI      0.440800
@<TRIPOS>BOND
     1    1    2 1   
     2    1   14 1   
     3    1   15 1   
     4    1   16 1   
     5    2    3 1   
     6    2    4 1   
     7    2   26 1   
     8    3   17 1   
     9    3   18 1   
    10    3   19 1   
    11    4    5 1   
    12    4    8 1   
    13    4   20 1   
    14    5    6 1   
    15    5    7 1   
    16    8    9 1   
    17    8   21 1   
    18    8   22 1   
    19    9   10 1   
    20    9   13 2   
    21   10   11 2   
    22   11   12 1   
    23   11   23 1   
    24   12   13 1   
    25   12   24 1   
    26   13   25 1   
@<TRIPOS>SUBSTRUCTURE
     1 AVI         1 TEMP              0 ****  ****    0 ROOT
