@<TRIPOS>MOLECULE
AVJ
   29    27     1     0     0
SMALL
bcc


@<TRIPOS>ATOM
      1 CAA         0.5160   -0.6510    0.4880 c3        1 AVJ      0.081100
      2 CAB         2.2220    0.7140    3.2650 cx        1 AVJ     -0.110000
      3 CAC         2.2320   -1.5920   -0.9710 c3        1 AVJ      0.081100
      4 CAM        -1.1880    2.2350    0.4880 c1        1 AVJ      0.331800
      5 CAP         1.7600    1.8630    4.0920 cu        1 AVJ     -0.191200
      6 NAR        -0.5250    4.2800   -2.2630 n8        1 AVJ     -0.686600
      7 NAT        -1.2010    3.0560   -0.3620 n1        1 AVJ     -0.683600
      8 CAX         1.6490    1.9220   -1.5780 c         1 AVJ      0.908600
      9 CAY         1.0380    1.5870    3.0240 cu        1 AVJ     -0.191200
     10 CAZ        -1.3790    4.0830   -1.2740 cg        1 AVJ      0.144800
     11 CBC         2.1670    0.8420   -0.5730 c3        1 AVJ     -0.047200
     12 NBE         1.3730   -0.4210   -0.6960 nx        1 AVJ     -0.673400
     13 HAA         0.7460   -0.2620   -1.5270 hn        1 AVJ      0.487800
     14 HAAA       -0.1970    0.2200    0.6010 hx        1 AVJ      0.091700
     15 HAAB       -0.0660   -1.5990    0.3500 hx        1 AVJ      0.091700
     16 HAB         1.1510   -0.7210    1.4120 hx        1 AVJ      0.091700
     17 HABA        3.1280    0.8090    2.6370 hc        1 AVJ      0.043200
     18 HABB        2.0930   -0.3220    3.6320 hc        1 AVJ      0.043200
     19 HAC         1.5910   -2.5020   -1.1060 hx        1 AVJ      0.091700
     20 HACA        2.9360   -1.7540   -0.1140 hx        1 AVJ      0.091700
     21 HACB        2.8190   -1.4050   -1.9090 hx        1 AVJ      0.091700
     22 HAM         0.2090    1.7770    2.3650 ha        1 AVJ      0.203500
     23 HAP         3.2470    0.6380   -0.7970 hx        1 AVJ      0.095700
     24 HAPA        1.9730    2.4410    4.9660 ha        1 AVJ      0.203500
     25 HNAR       -0.7250    5.0450   -2.8670 hn        1 AVJ      0.446300
     26 HAZ         0.3060    3.7510   -2.4740 hn        1 AVJ      0.446300
     27 HBC         2.0780    1.2480    0.4720 hx        1 AVJ      0.095700
     28 OAL         0.7520    1.5600   -2.3950 o         1 AVJ     -0.788300
     29 OAH         2.1430    3.0660   -1.4830 o         1 AVJ     -0.788300
@<TRIPOS>BOND
     1    1   12 1   
     2    1   14 1   
     3    1   15 1   
     4    1   16 1   
     5    2    5 1   
     6    2    9 1   
     7    2   17 1   
     8    2   18 1   
     9    3   12 1   
    10    3   19 1   
    11    3   20 1   
    12    3   21 1   
    13    4    7 3   
    14    5    9 2   
    15    5   24 1   
    16    6   10 3   
    17    6   25 1   
    18    6   26 1   
    19    7   10 1   
    20    8   11 1   
    21    8   28 1   
    22    8   29 1   
    23    9   22 1   
    24   11   12 1   
    25   11   23 1   
    26   11   27 1   
    27   12   13 1   
@<TRIPOS>SUBSTRUCTURE
     1 AVJ         1 TEMP              0 ****  ****    0 ROOT
