@<TRIPOS>MOLECULE
AVJ
   29    26     1     0     0
SMALL
bcc


@<TRIPOS>ATOM
      1 CAA        -1.1850    0.1570    0.2770 c3        1 AVJ     -0.174000
      2 CAB         1.7420    0.1590    2.7300 c3        1 AVJ     -0.290000
      3 CAC         1.9680   -1.7870   -2.7230 c2        1 AVJ     -0.088000
      4 CAM         0.5290    4.2890    2.3980 c1        1 AVJ     -0.118000
      5 CAP         2.2960    2.8220    3.1760 c1        1 AVJ     -0.030000
      6 NAR        -0.9650    1.1150   -1.9940 n2        1 AVJ     -0.258000
      7 NAT        -0.4820    4.8070    2.6430 n1        1 AVJ     -0.059000
      8 CAX         1.9100    1.3390   -1.0530 c2        1 AVJ      0.321000
      9 CAY         1.7860    3.6460    2.0880 c3        1 AVJ     -0.175000
     10 CAZ        -0.4850    0.8830   -0.8350 c2        1 AVJ      0.155000
     11 CBC         2.1020    0.5420   -2.3230 c3        1 AVJ     -0.140000
     12 NBE         1.4100   -0.7180   -2.3080 n2        1 AVJ     -0.195000
     13 HAA        -1.3630   -0.9020   -0.0300 hc        1 AVJ      0.113667
     14 HAAA       -0.5530    0.1740    1.2010 hc        1 AVJ      0.113667
     15 HAAB       -2.1650    0.6490    0.4910 hc        1 AVJ      0.113667
     16 HAB         1.1140   -0.7520    2.6140 hc        1 AVJ      0.075500
     17 HABA        1.3080    0.8040    3.5300 hc        1 AVJ      0.075500
     18 HABB        2.7750   -0.1370    3.0120 hc        1 AVJ      0.075500
     19 HAC         1.3650   -2.7150   -2.7030 h4        1 AVJ      0.125500
     20 HACA        1.7640    0.7160    1.7640 hc        1 AVJ      0.075500
     21 HACB        3.0010   -1.8900   -3.1110 h4        1 AVJ      0.125500
     22 HAM         1.6440    2.9780    1.1720 hc        1 AVJ      0.161500
     23 HAP         1.6950    1.1590   -3.1790 h1        1 AVJ      0.122500
     24 HAPA        3.3100    2.4260    2.9970 ha        1 AVJ      0.044000
     25 HNAR        2.5330    4.4370    1.7780 hc        1 AVJ      0.161500
     26 HAZ        -0.3950    1.6060   -2.6460 hn        1 AVJ      0.158000
     27 HBC         3.2200    0.4540   -2.4790 h1        1 AVJ      0.122500
     28 OAL         0.7490    1.3840   -0.3360 os        1 AVJ     -0.286000
     29 OAH         2.7980    2.0140   -0.5230 o         1 AVJ     -0.325000
@<TRIPOS>BOND
     1    1   10 1   
     2    1   13 1   
     3    1   14 1   
     4    1   15 1   
     5    2   16 1   
     6    2   17 1   
     7    2   18 1   
     8    2   20 1   
     9    3   12 1   
    10    3   19 1   
    11    3   21 1   
    12    4    7 1   
    13    4    9 1   
    14    5    9 1   
    15    5   24 1   
    16    6   10 1   
    17    6   26 1   
    18    8   11 1   
    19    8   28 1   
    20    8   29 1   
    21    9   22 1   
    22    9   25 1   
    23   10   28 1   
    24   11   12 1   
    25   11   23 1   
    26   11   27 1   
@<TRIPOS>SUBSTRUCTURE
     1 AVJ         1 TEMP              0 ****  ****    0 ROOT
