@<TRIPOS>MOLECULE
AVL
   35    36     1     0     0
SMALL
bcc


@<TRIPOS>ATOM
      1 CAA         0.4510    0.7000    0.4860 c3        1 AVL     -0.087600
      2 CAB         1.7420    0.0320    0.0530 c3        1 AVL     -0.157700
      3 CAC         2.5650   -0.3660    1.2620 c3        1 AVL     -0.087600
      4 CAD         1.4170   -1.1940   -0.7780 c         1 AVL      0.619300
      5 OAE         0.7160   -2.1030   -0.3070 o         1 AVL     -0.556100
      6 CAF         1.8830   -1.2370   -2.1550 cc        1 AVL     -0.381800
      7 CAG         1.1480   -1.8530   -3.2080 cd        1 AVL      0.001700
      8 CAH        -0.0880   -2.5520   -3.2780 cd        1 AVL     -0.110000
      9 CAI        -0.5260   -3.0100   -4.4930 cc        1 AVL     -0.106000
     10 CAJ         0.2490   -2.7890   -5.6660 cc        1 AVL     -0.176000
     11 CAK         1.4510   -2.1200   -5.6090 cd        1 AVL     -0.044300
     12 NAL         1.9170   -1.6480   -4.3900 na        1 AVL      0.205000
     13 NAM         3.0640   -0.9920   -4.1350 nd        1 AVL     -0.576100
     14 CAN         3.0800   -0.7310   -2.7890 cc        1 AVL      0.428600
     15 CAO         4.2380   -0.0590   -2.1270 c3        1 AVL     -0.083000
     16 CAQ         5.5510   -0.7130   -2.5130 c3        1 AVL     -0.089600
     17 CAP         4.2620    1.4190   -2.4680 c3        1 AVL     -0.089600
     18 H1          0.6770    1.5780    1.1370 hc        1 AVL      0.042367
     19 H2         -0.1230    1.0530   -0.4040 hc        1 AVL      0.042367
     20 H3         -0.1840   -0.0200    1.0580 hc        1 AVL      0.042367
     21 H4          2.3250    0.7640   -0.5730 hc        1 AVL      0.063700
     22 H5          2.7880    0.5330    1.8850 hc        1 AVL      0.042367
     23 H6          3.5300   -0.8330    0.9490 hc        1 AVL      0.042367
     24 H7          2.0000   -1.1040    1.8830 hc        1 AVL      0.042367
     25 H8         -0.6360   -2.7090   -2.3350 ha        1 AVL      0.178000
     26 H9         -1.4760   -3.5580   -4.5810 ha        1 AVL      0.146000
     27 H10        -0.1150   -3.1600   -6.6350 ha        1 AVL      0.154000
     28 H11         2.0870   -1.9300   -6.4910 h4        1 AVL      0.179000
     29 H12         4.1080   -0.1770   -1.0120 hc        1 AVL      0.061700
     30 H13         5.5150   -1.8100   -2.3120 hc        1 AVL      0.042033
     31 H14         5.7730   -0.5560   -3.5960 hc        1 AVL      0.042033
     32 H15         6.3810   -0.2670   -1.9130 hc        1 AVL      0.042033
     33 H16         3.2980    1.9060   -2.1860 hc        1 AVL      0.042033
     34 H17         4.4270    1.5670   -3.5620 hc        1 AVL      0.042033
     35 H18         5.0910    1.9200   -1.9120 hc        1 AVL      0.042033
@<TRIPOS>BOND
     1    1    2 1   
     2    1   18 1   
     3    1   19 1   
     4    1   20 1   
     5    2    3 1   
     6    2    4 1   
     7    2   21 1   
     8    3   22 1   
     9    3   23 1   
    10    3   24 1   
    11    4    5 2   
    12    4    6 1   
    13    6    7 2   
    14    6   14 1   
    15    7    8 1   
    16    7   12 1   
    17    8    9 2   
    18    8   25 1   
    19    9   10 1   
    20    9   26 1   
    21   10   11 2   
    22   10   27 1   
    23   11   12 1   
    24   11   28 1   
    25   12   13 1   
    26   13   14 2   
    27   14   15 1   
    28   15   16 1   
    29   15   17 1   
    30   15   29 1   
    31   16   30 1   
    32   16   31 1   
    33   16   32 1   
    34   17   33 1   
    35   17   34 1   
    36   17   35 1   
@<TRIPOS>SUBSTRUCTURE
     1 AVL         1 TEMP              0 ****  ****    0 ROOT
