@<TRIPOS>MOLECULE
AVL
   35    36     1     0     0
SMALL
bcc


@<TRIPOS>ATOM
      1 CAA         0.4470    0.6960    0.4850 c3        1 AVL     -0.087600
      2 CAB         1.7390    0.0300    0.0530 c3        1 AVL     -0.157700
      3 CAC         2.5610   -0.3680    1.2620 c3        1 AVL     -0.087600
      4 CAD         1.4160   -1.1960   -0.7800 c         1 AVL      0.619300
      5 OAE         0.7160   -2.1060   -0.3090 o         1 AVL     -0.556100
      6 CAF         1.8830   -1.2380   -2.1550 cc        1 AVL     -0.381800
      7 CAG         1.1500   -1.8530   -3.2090 cd        1 AVL      0.001700
      8 CAH        -0.0850   -2.5540   -3.2810 cd        1 AVL     -0.110000
      9 CAI        -0.5210   -3.0120   -4.4970 cc        1 AVL     -0.106000
     10 CAJ         0.2550   -2.7890   -5.6690 cc        1 AVL     -0.176000
     11 CAK         1.4560   -2.1190   -5.6110 cd        1 AVL     -0.044300
     12 NAL         1.9200   -1.6470   -4.3910 na        1 AVL      0.205000
     13 NAM         3.0660   -0.9900   -4.1340 nd        1 AVL     -0.576100
     14 CAN         3.0810   -0.7300   -2.7880 cc        1 AVL      0.428600
     15 CAO         4.2370   -0.0560   -2.1250 c3        1 AVL     -0.083000
     16 CAQ         5.5520   -0.7080   -2.5100 c3        1 AVL     -0.089600
     17 CAP         4.2590    1.4220   -2.4640 c3        1 AVL     -0.089600
     18 H1          0.6710    1.5740    1.1380 hc        1 AVL      0.042367
     19 H2         -0.1270    1.0490   -0.4050 hc        1 AVL      0.042367
     20 H3         -0.1880   -0.0250    1.0560 hc        1 AVL      0.042367
     21 H4          2.3210    0.7630   -0.5720 hc        1 AVL      0.063700
     22 H5          2.7830    0.5300    1.8860 hc        1 AVL      0.042367
     23 H6          3.5270   -0.8330    0.9500 hc        1 AVL      0.042367
     24 H7          1.9970   -1.1070    1.8820 hc        1 AVL      0.042367
     25 H8         -0.6330   -2.7120   -2.3390 ha        1 AVL      0.178000
     26 H9         -1.4700   -3.5610   -4.5860 ha        1 AVL      0.146000
     27 H10        -0.1070   -3.1600   -6.6390 ha        1 AVL      0.154000
     28 H11         2.0920   -1.9270   -6.4920 h4        1 AVL      0.179000
     29 H12         4.1060   -0.1750   -1.0100 hc        1 AVL      0.061700
     30 H13         5.5160   -1.8060   -2.3100 hc        1 AVL      0.042033
     31 H14         5.7740   -0.5500   -3.5920 hc        1 AVL      0.042033
     32 H15         6.3800   -0.2610   -1.9090 hc        1 AVL      0.042033
     33 H16         3.2940    1.9080   -2.1830 hc        1 AVL      0.042033
     34 H17         4.4250    1.5710   -3.5590 hc        1 AVL      0.042033
     35 H18         5.0880    1.9230   -1.9070 hc        1 AVL      0.042033
@<TRIPOS>BOND
     1    1    2 1   
     2    1   18 1   
     3    1   19 1   
     4    1   20 1   
     5    2    3 1   
     6    2    4 1   
     7    2   21 1   
     8    3   22 1   
     9    3   23 1   
    10    3   24 1   
    11    4    5 2   
    12    4    6 1   
    13    6    7 2   
    14    6   14 1   
    15    7    8 1   
    16    7   12 1   
    17    8    9 2   
    18    8   25 1   
    19    9   10 1   
    20    9   26 1   
    21   10   11 2   
    22   10   27 1   
    23   11   12 1   
    24   11   28 1   
    25   12   13 1   
    26   13   14 2   
    27   14   15 1   
    28   15   16 1   
    29   15   17 1   
    30   15   29 1   
    31   16   30 1   
    32   16   31 1   
    33   16   32 1   
    34   17   33 1   
    35   17   34 1   
    36   17   35 1   
@<TRIPOS>SUBSTRUCTURE
     1 AVL         1 TEMP              0 ****  ****    0 ROOT
