@<TRIPOS>MOLECULE
AVL
   35    36     1     0     0
SMALL
bcc


@<TRIPOS>ATOM
      1 CAA        -2.0890   -2.6880   -1.5240 c3        1 AVL     -0.087600
      2 CAB        -2.1300   -1.4970   -0.5860 c3        1 AVL     -0.157700
      3 CAC        -3.3480   -1.5720    0.3130 c3        1 AVL     -0.087600
      4 CAD        -0.8680   -1.4780    0.2550 c         1 AVL      0.619300
      5 OAE        -0.5750   -2.4510    0.9680 o         1 AVL     -0.556100
      6 CAF         0.0160   -0.3300    0.1440 cc        1 AVL     -0.381800
      7 CAG         1.4340   -0.4260    0.2410 cd        1 AVL      0.001700
      8 CAH         2.3430   -1.4950    0.4680 cd        1 AVL     -0.110000
      9 CAI         3.6880   -1.2350    0.4820 cc        1 AVL     -0.106000
     10 CAJ         4.1660    0.0890    0.2730 cc        1 AVL     -0.176000
     11 CAK         3.2950    1.1340    0.0590 cd        1 AVL     -0.044300
     12 NAL         1.9270    0.8970    0.0430 na        1 AVL      0.205000
     13 NAM         0.9300    1.7830   -0.1320 nd        1 AVL     -0.576100
     14 CAN        -0.2430    1.0760   -0.0720 cc        1 AVL      0.428600
     15 CAO        -1.5750    1.7440   -0.1700 c3        1 AVL     -0.083000
     16 CAQ        -1.6700    2.9290    0.7730 c3        1 AVL     -0.089600
     17 CAP        -1.8490    2.1800   -1.5970 c3        1 AVL     -0.089600
     18 H1         -3.0340   -2.7390   -2.1160 hc        1 AVL      0.042367
     19 H2         -1.2290   -2.5980   -2.2310 hc        1 AVL      0.042367
     20 H3         -1.9760   -3.6350   -0.9420 hc        1 AVL      0.042367
     21 H4         -2.1800   -0.5600   -1.2080 hc        1 AVL      0.063700
     22 H5         -3.3020   -2.4920    0.9450 hc        1 AVL      0.042367
     23 H6         -3.4000   -0.6830    0.9870 hc        1 AVL      0.042367
     24 H7         -4.2770   -1.6060   -0.3060 hc        1 AVL      0.042367
     25 H8          1.9150   -2.4960    0.6410 ha        1 AVL      0.178000
     26 H9          4.4180   -2.0390    0.6580 ha        1 AVL      0.146000
     27 H10         5.2470    0.2850    0.2840 ha        1 AVL      0.154000
     28 H11         3.6190    2.1770   -0.1030 h4        1 AVL      0.179000
     29 H12        -2.3570    0.9920    0.1410 hc        1 AVL      0.061700
     30 H13        -1.4160    2.6190    1.8150 hc        1 AVL      0.042033
     31 H14        -0.9730    3.7430    0.4640 hc        1 AVL      0.042033
     32 H15        -2.7120    3.3320    0.7630 hc        1 AVL      0.042033
     33 H16        -1.7810    1.3130   -2.2960 hc        1 AVL      0.042033
     34 H17        -2.8750    2.6160   -1.6670 hc        1 AVL      0.042033
     35 H18        -1.1120    2.9540   -1.9200 hc        1 AVL      0.042033
@<TRIPOS>BOND
     1    1    2 1   
     2    1   18 1   
     3    1   19 1   
     4    1   20 1   
     5    2    3 1   
     6    2    4 1   
     7    2   21 1   
     8    3   22 1   
     9    3   23 1   
    10    3   24 1   
    11    4    5 2   
    12    4    6 1   
    13    6    7 2   
    14    6   14 1   
    15    7    8 1   
    16    7   12 1   
    17    8    9 2   
    18    8   25 1   
    19    9   10 1   
    20    9   26 1   
    21   10   11 2   
    22   10   27 1   
    23   11   12 1   
    24   11   28 1   
    25   12   13 1   
    26   13   14 2   
    27   14   15 1   
    28   15   16 1   
    29   15   17 1   
    30   15   29 1   
    31   16   30 1   
    32   16   31 1   
    33   16   32 1   
    34   17   33 1   
    35   17   34 1   
    36   17   35 1   
@<TRIPOS>SUBSTRUCTURE
     1 AVL         1 TEMP              0 ****  ****    0 ROOT
