@<TRIPOS>MOLECULE
AVL
   35    30     1     0     0
SMALL
bcc


@<TRIPOS>ATOM
      1 CAA        -2.6770    0.6200    2.2650 c3        1 AVL     -0.205500
      2 CAB        -1.1710    0.7260    2.1670 c3        1 AVL     -0.147000
      3 CAC        -0.5780    0.7800    3.5570 c3        1 AVL     -0.205500
      4 CAD        -0.6280   -0.4790    1.4340 c1        1 AVL      0.311000
      5 OAE        -0.6020   -1.5630    1.9820 o         1 AVL     -0.317000
      6 CAF        -0.0950   -0.3310    0.0260 c1        1 AVL     -0.276000
      7 CAG        -0.6960   -1.0410   -0.9970 c1        1 AVL      0.026000
      8 CAH        -1.8470   -1.8450   -1.0340 c1        1 AVL     -0.110000
      9 CAI        -2.2190   -2.4510   -2.2020 c1        1 AVL     -0.141000
     10 CAJ        -1.4690   -2.2730   -3.3350 c1        1 AVL     -0.141000
     11 CAK        -0.3310   -1.4780   -3.2960 c1        1 AVL     -0.020000
     12 NAL         0.0450   -0.8660   -2.1170 n1        1 AVL     -0.023000
     13 NAM         1.1170   -0.0420   -1.7980 n1        1 AVL     -0.109000
     14 CAN         1.0240    0.2810   -0.4830 c1        1 AVL     -0.021000
     15 CAO         2.2190    1.1480   -0.1500 c2        1 AVL     -0.047000
     16 CAQ         3.4810    0.3180   -0.2290 c3        1 AVL     -0.207500
     17 CAP         2.3040    2.2910   -1.1370 c3        1 AVL     -0.207500
     18 H1         -2.9180   -0.2280    2.6910 hc        1 AVL      0.081667
     19 H2         -3.0660    0.6560    1.3650 hc        1 AVL      0.081667
     20 H3         -3.0230    1.3650    2.8000 hc        1 AVL      0.081667
     21 H4         -0.9330    1.5380    1.6800 hc        1 AVL      0.103000
     22 H5         -0.8170    1.6300    3.9820 hc        1 AVL      0.081667
     23 H6         -0.9320    0.0380    4.0920 hc        1 AVL      0.081667
     24 H7          0.3970    0.7060    3.5000 hc        1 AVL      0.081667
     25 H8         -2.3810   -1.9710   -0.2270 ha        1 AVL      0.178000
     26 H9         -3.0190   -3.0090   -2.2290 ha        1 AVL      0.150000
     27 H10        -1.7340   -2.7050   -4.1690 ha        1 AVL      0.150000
     28 H11         0.2030   -1.3520   -4.1030 ha        1 AVL      0.179000
     29 H12         2.1200    1.5040    0.7540 ha        1 AVL      0.101000
     30 H13         3.3180   -0.5640    0.1650 hc        1 AVL      0.081333
     31 H14         3.7440    0.2130   -1.1680 hc        1 AVL      0.081333
     32 H15         4.1990    0.7680    0.2630 hc        1 AVL      0.081333
     33 H16         1.4090    2.6650   -1.2810 hc        1 AVL      0.081333
     34 H17         2.6620    1.9630   -1.9880 hc        1 AVL      0.081333
     35 H18         2.8950    2.9870   -0.7800 hc        1 AVL      0.081333
@<TRIPOS>BOND
     1    1    2 1   
     2    1   18 1   
     3    1   19 1   
     4    1   20 1   
     5    2    3 1   
     6    2    4 1   
     7    2   21 1   
     8    3   22 1   
     9    3   23 1   
    10    3   24 1   
    11    4    5 1   
    12    6    7 1   
    13    6   14 1   
    14    7    8 1   
    15    8   25 1   
    16    9   10 1   
    17    9   26 1   
    18   10   27 1   
    19   11   12 1   
    20   11   28 1   
    21   13   14 1   
    22   15   16 1   
    23   15   17 1   
    24   15   29 1   
    25   16   30 1   
    26   16   31 1   
    27   16   32 1   
    28   17   33 1   
    29   17   34 1   
    30   17   35 1   
@<TRIPOS>SUBSTRUCTURE
     1 AVL         1 TEMP              0 ****  ****    0 ROOT
